data_str_m12_o10_o22_f0_bcu.sym.14
_audit_creation_date              2012-12-11T14:07:25-0500
_audit_creation_method            fapswitch 2.2
_symmetry_space_group_name_H-M    P1
_symmetry_Int_Tables_number       1
_space_group_crystal_system       triclinic
_cell_length_a                    20.009707
_cell_length_b                    16.994661
_cell_length_c                    15.627676
_cell_angle_alpha                 90.264757
_cell_angle_beta                  52.122158
_cell_angle_gamma                 90.287975
_cell_volume                      4194.6459343

loop_
_atom_site_label
_atom_site_type_symbol
_atom_type_description
_atom_site_fract_x
_atom_site_fract_y
_atom_site_fract_z
_atom_type_partial_charge
C1    C     C_R   0.339518 0.174588 0.050153 0.026563
C2    C     C_R   0.669244 0.822159 0.042114 0.150373
C3    C     C_R   0.459801 0.700682 0.003933 -0.143971
C4    C     C_R   0.828093 0.748472 0.107252 0.130042
C5    C     C_R   0.888276 0.809194 0.051861 -0.234697
C6    C     C_R   0.869647 0.884667 0.096843 -0.122590
C7    C     C_R   0.790180 0.900439 0.194864 -0.099019
C8    C     C_R   0.729304 0.841087 0.248492 -0.167036
C9    C     C_R   0.748930 0.764743 0.206738 -0.130660
C10   C     C_R   0.881268 0.225734 0.034043 0.099786
C11   C     C_R   0.807786 0.182727 0.112809 -0.210891
C12   C     C_R   0.812710 0.118469 0.163844 -0.132743
C13   C     C_R   0.215337 0.643360 0.964977 0.159602
C14   C     C_R   0.891028 0.095021 0.134925 -0.098992
C15   C     C_R   0.964646 0.135349 0.053865 -0.126658
C16   C     C_R   0.959801 0.200683 0.003934 -0.143971
C17   C     C_R   0.852700 0.788029 0.629907 0.158741
C18   C     C_R   0.841343 0.709656 0.665552 -0.183959
C19   C     C_R   0.859706 0.688071 0.735171 -0.111342
C20   C     C_R   0.887664 0.744430 0.772086 -0.091371
C21   C     C_R   0.895103 0.822943 0.741890 -0.135801
C22   C     C_R   0.878309 0.844619 0.670729 -0.149870
C23   C     C_R   0.794737 0.192372 0.578674 0.176183
C24   C     C_R   0.169245 0.322159 0.042114 0.150373
C25   C     C_R   0.824298 0.255609 0.606127 -0.176138
C26   C     C_R   0.865676 0.241632 0.651074 -0.136884
C27   C     C_R   0.877636 0.164699 0.669942 -0.068818
C28   C     C_R   0.847182 0.101595 0.645406 -0.107397
C29   C     C_R   0.806464 0.115102 0.599536 -0.150826
C30   C     C_R   0.352700 0.288029 0.629907 0.158740
C31   C     C_R   0.341343 0.209656 0.665552 -0.183958
C32   C     C_R   0.359707 0.188071 0.735170 -0.111341
C33   C     C_R   0.387664 0.244429 0.772085 -0.091372
C34   C     C_R   0.395103 0.322943 0.741890 -0.135800
C35   C     C_R   0.694387 0.864633 0.677098 -0.004632
C36   C     C_R   0.378309 0.344619 0.670729 -0.149869
C37   C     C_R   0.294737 0.692372 0.578674 0.176182
C38   C     C_R   0.324298 0.755610 0.606127 -0.176138
C39   C     C_R   0.365676 0.741633 0.651073 -0.136884
C40   C     C_R   0.377636 0.664700 0.669942 -0.068819
C41   C     C_R   0.347182 0.601596 0.645406 -0.107397
C42   C     C_R   0.306464 0.615103 0.599536 -0.150825
C43   C     C_R   0.611752 0.184962 0.697558 -0.002095
C44   C     C_R   0.194387 0.364633 0.677098 -0.004632
C45   C     C_R   0.111752 0.684962 0.697558 -0.002095
C46   C     C_3   0.267815 0.190579 0.486505 -0.393829
C47   C     C_3   0.208458 0.873463 0.528563 -0.403902
C48   C     C_3   0.767815 0.690579 0.486505 -0.393828
C49   C     C_R   0.373754 0.801936 0.995218 0.033397
C50   C     C_3   0.708458 0.373463 0.528563 -0.403900
C51   C     C_3   0.213676 0.238646 0.589676 -0.399788
C52   C     C_3   0.154337 0.823443 0.631401 -0.412372
C53   C     C_3   0.713676 0.738646 0.589676 -0.399788
C54   C     C_3   0.654337 0.323443 0.631401 -0.412373
C55   C     C_3   0.400569 0.256441 0.439138 -0.454379
C56   C     C_3   0.305536 0.757383 0.424275 -0.447154
C57   C     C_3   0.900569 0.756441 0.439138 -0.454379
C58   C     C_3   0.805536 0.257383 0.424275 -0.447154
C59   C     C_3   0.823939 0.814523 0.374703 -0.406301
C60   C     C_R   0.839518 0.674588 0.050154 0.026563
C61   C     C_3   0.676282 0.279903 0.433071 -0.408649
C62   C     C_3   0.323939 0.314523 0.374702 -0.406303
C63   C     C_3   0.176282 0.779903 0.433071 -0.408649
C64   C     C_3   0.349295 0.236421 0.397771 0.380423
C65   C     C_3   0.249062 0.820788 0.426070 0.387176
C66   C     C_3   0.849295 0.736421 0.397771 0.380423
C67   C     C_3   0.749062 0.320787 0.426070 0.387176
C68   C     C_3   0.754938 0.820110 0.574999 0.334207
C69   C     C_3   0.659033 0.235454 0.600906 0.338862
C70   C     C_3   0.254938 0.320110 0.574999 0.334206
C71   C     C_R   0.873754 0.301936 0.995218 0.033398
C72   C     C_3   0.159033 0.735454 0.600906 0.338861
C73   C     C_3   0.846681 0.811350 0.540853 -0.102906
C74   C     C_3   0.752518 0.205013 0.524795 -0.111071
C75   C     C_3   0.346681 0.311349 0.540853 -0.102905
C76   C     C_3   0.252518 0.705013 0.524795 -0.111070
C77   C     C_R   0.346204 0.833283 0.223389 -0.139004
C78   C     C_R   0.406949 0.199887 0.206176 -0.140886
C79   C     C_R   0.846204 0.333282 0.223390 -0.139005
C80   C     C_R   0.906949 0.699887 0.206176 -0.140886
C81   C     C_3   0.765363 0.861653 0.478585 -0.447916
C82   C     C_R   0.645750 0.897816 0.086690 -0.161271
C83   C     C_3   0.622237 0.230007 0.537319 -0.428980
C84   C     C_3   0.265363 0.361653 0.478585 -0.447913
C85   C     C_3   0.122237 0.730007 0.537318 -0.428980
C86   C     C_2   0.292417 0.683104 0.931565 -0.231865
C87   C     C_2   0.231073 0.272939 0.029534 -0.159143
C88   C     C_2   0.792417 0.183104 0.931565 -0.231865
C89   C     C_2   0.731073 0.772939 0.029535 -0.159144
C90   C     C_2   0.797061 0.261342 0.917686 -0.209892
C91   C     C_2   0.721350 0.694645 0.039531 -0.231612
C92   C     C_2   0.297061 0.761342 0.917687 -0.209892
C93   C     C_R   0.673210 0.081569 0.040153 -0.156929
C94   C     C_2   0.221350 0.194645 0.039531 -0.231613
C95   C     C_R   0.363667 0.890098 0.900453 -0.187944
C96   C     C_R   0.329756 0.086275 0.953134 -0.172179
C97   C     C_R   0.863667 0.390098 0.900453 -0.187943
C98   C     C_R   0.829756 0.586275 0.953134 -0.172178
C99   C     C_R   0.410588 0.107848 0.301390 -0.142479
C100  C     C_R   0.358198 0.924128 0.315101 -0.131691
C101  C     C_R   0.910588 0.607848 0.301390 -0.142478
C102  C     C_R   0.858198 0.424128 0.315102 -0.131691
C103  C     C_R   0.288552 0.148675 0.023977 0.087165
C104  C     C_R   0.145751 0.397816 0.086690 -0.161271
C105  C     C_R   0.344351 0.813712 0.936035 0.095394
C106  C     C_R   0.788552 0.648675 0.023977 0.087165
C107  C     C_R   0.844351 0.313711 0.936034 0.095393
C108  C     C_R   0.305675 0.866337 0.325396 -0.015286
C109  C     C_R   0.395667 0.185702 0.300717 -0.010721
C110  C     C_R   0.805675 0.366337 0.325396 -0.015285
C111  C     C_R   0.895667 0.685702 0.300717 -0.010721
C112  C     C_R   0.663338 0.173216 0.943340 -0.115306
C113  C     C_R   0.632666 0.802854 0.995573 -0.119943
C114  C     C_R   0.163338 0.673216 0.943340 -0.115306
C115  C     C_R   0.173210 0.581569 0.040153 -0.156929
C116  C     C_R   0.132666 0.302854 0.995572 -0.119943
C117  C     C_R   0.652899 0.831897 0.779653 -0.136605
C118  C     C_R   0.601530 0.199201 0.791920 -0.128069
C119  C     C_R   0.152899 0.331897 0.779653 -0.136605
C120  C     C_R   0.101530 0.699201 0.791920 -0.128069
C121  C     C_R   0.593696 0.106912 0.696785 -0.165179
C122  C     C_R   0.643876 0.924825 0.685996 -0.138342
C123  C     C_R   0.093696 0.606912 0.696785 -0.165179
C124  C     C_R   0.143876 0.424825 0.685996 -0.138342
C125  C     C_R   0.328094 0.248472 0.107252 0.130042
C126  C     C_R   0.715337 0.143360 0.964977 0.159601
C127  C     C_R   0.388276 0.309194 0.051861 -0.234697
C128  C     C_R   0.369647 0.384667 0.096843 -0.122590
C129  C     C_R   0.290180 0.400439 0.194864 -0.099020
C130  C     C_R   0.229304 0.341087 0.248492 -0.167036
C131  C     C_R   0.248930 0.264743 0.206737 -0.130659
C132  C     C_R   0.381269 0.725734 0.034043 0.099787
C133  C     C_R   0.307787 0.682727 0.112809 -0.210892
C134  C     C_R   0.312710 0.618469 0.163844 -0.132742
C135  C     C_R   0.391029 0.595020 0.134924 -0.098992
C136  C     C_R   0.464647 0.635349 0.053864 -0.126658
H1    H     H_    0.230456 0.175931 0.457393 0.161503
H2    H     H_    0.176555 0.833116 0.680395 0.146141
H3    H     H_    0.016993 0.232223 0.943314 0.105081
H4    H     H_    0.822392 0.664204 0.635760 0.105395
H5    H     H_    0.854236 0.627134 0.758046 0.102111
H6    H     H_    0.904575 0.727378 0.823082 0.121156
H7    H     H_    0.916291 0.866641 0.771129 0.105187
H8    H     H_    0.887691 0.905308 0.645115 0.089411
H9    H     H_    0.817815 0.315741 0.590251 0.106514
H10   H     H_    0.889093 0.290545 0.670538 0.110919
H11   H     H_    0.910471 0.153951 0.703686 0.107971
H12   H     H_    0.855646 0.042110 0.661275 0.100996
H13   H     H_    0.704007 0.704771 0.657003 0.144878
H14   H     H_    0.784121 0.065038 0.580294 0.096193
H15   H     H_    0.322392 0.164203 0.635760 0.105394
H16   H     H_    0.354237 0.127134 0.758046 0.102111
H17   H     H_    0.404576 0.227377 0.823081 0.121157
H18   H     H_    0.416291 0.366641 0.771130 0.105186
H19   H     H_    0.387690 0.405307 0.645116 0.089411
H20   H     H_    0.317815 0.815742 0.590251 0.106514
H21   H     H_    0.389093 0.790546 0.670538 0.110919
H22   H     H_    0.410471 0.653952 0.703686 0.107971
H23   H     H_    0.355647 0.542111 0.661275 0.100996
H24   H     H_    0.676555 0.333116 0.680395 0.146141
H25   H     H_    0.284121 0.565039 0.580294 0.096193
H26   H     H_    0.419663 0.201122 0.456232 0.153385
H27   H     H_    0.358697 0.786261 0.417287 0.161412
H28   H     H_    0.919663 0.701122 0.456232 0.153385
H29   H     H_    0.858697 0.286261 0.417288 0.161412
H30   H     H_    0.881004 0.850081 0.313659 0.155260
H31   H     H_    0.701588 0.240672 0.362267 0.153970
H32   H     H_    0.381004 0.350081 0.313659 0.155260
H33   H     H_    0.168964 0.920053 0.529841 0.156468
H34   H     H_    0.201588 0.740672 0.362267 0.153970
H35   H     H_    0.789316 0.801082 0.342554 0.188275
H36   H     H_    0.635924 0.324810 0.433231 0.161490
H37   H     H_    0.289316 0.301082 0.342554 0.188275
H38   H     H_    0.135924 0.824810 0.433232 0.161490
H39   H     H_    0.703093 0.866729 0.494511 0.164966
H40   H     H_    0.555857 0.251132 0.588512 0.188122
H41   H     H_    0.203093 0.366730 0.494511 0.164965
H42   H     H_    0.055857 0.751132 0.588512 0.188121
H43   H     H_    0.791526 0.922115 0.466492 0.147236
H44   H     H_    0.730456 0.675931 0.457394 0.161503
H45   H     H_    0.621582 0.168321 0.514020 0.145520
H46   H     H_    0.291526 0.422115 0.466492 0.147235
H47   H     H_    0.121582 0.668321 0.514019 0.145520
H48   H     H_    0.460432 0.286919 0.374168 0.146212
H49   H     H_    0.335664 0.719476 0.350862 0.157276
H50   H     H_    0.960432 0.786919 0.374168 0.146212
H51   H     H_    0.835664 0.219476 0.350862 0.157276
H52   H     H_    0.323645 0.783287 0.208652 0.128696
H53   H     H_    0.419951 0.257285 0.171044 0.124572
H54   H     H_    0.823646 0.283287 0.208652 0.128697
H55   H     H_    0.668964 0.420053 0.529841 0.156468
H56   H     H_    0.919951 0.757285 0.171045 0.124572
H57   H     H_    0.876185 0.870827 0.512604 0.099400
H58   H     H_    0.749988 0.146281 0.494600 0.095989
H59   H     H_    0.376185 0.370827 0.512604 0.099400
H60   H     H_    0.249988 0.646281 0.494600 0.095989
H61   H     H_    0.337976 0.650751 0.933142 0.155655
H62   H     H_    0.289661 0.302319 0.998962 0.151470
H63   H     H_    0.837975 0.150751 0.933142 0.155655
H64   H     H_    0.789661 0.802319 0.998963 0.151471
H65   H     H_    0.754186 0.292143 0.909169 0.132408
H66   H     H_    0.649748 0.746488 0.611031 0.162022
H67   H     H_    0.665448 0.665319 0.058165 0.132964
H68   H     H_    0.254185 0.792143 0.909170 0.132408
H69   H     H_    0.165449 0.165319 0.058165 0.132964
H70   H     H_    0.357708 0.917373 0.843012 0.097298
H71   H     H_    0.309810 0.052761 0.913434 0.102855
H72   H     H_    0.857709 0.417373 0.843012 0.097298
H73   H     H_    0.809810 0.552761 0.913434 0.102855
H74   H     H_    0.416801 0.078181 0.357249 0.081052
H75   H     H_    0.350492 0.960332 0.377295 0.087681
H76   H     H_    0.916801 0.578181 0.357249 0.081051
H77   H     H_    0.587454 0.343863 0.681717 0.155051
H78   H     H_    0.850493 0.460332 0.377295 0.087681
H79   H     H_    0.676828 0.219274 0.887496 0.102935
H80   H     H_    0.632847 0.746705 0.962641 0.086662
H81   H     H_    0.176828 0.719274 0.887496 0.102935
H82   H     H_    0.132847 0.246705 0.962640 0.086662
H83   H     H_    0.672917 0.781408 0.799890 0.105133
H84   H     H_    0.603045 0.255282 0.823412 0.075693
H85   H     H_    0.172917 0.281408 0.799890 0.105133
H86   H     H_    0.103045 0.755282 0.823412 0.075693
H87   H     H_    0.588768 0.077569 0.639408 0.085026
H88   H     H_    0.149748 0.246488 0.611031 0.162023
H89   H     H_    0.655174 0.962058 0.622673 0.089885
H90   H     H_    0.088768 0.577569 0.639408 0.085026
H91   H     H_    0.155175 0.462058 0.622673 0.089886
H92   H     H_    0.658303 0.924618 0.138389 0.107699
H93   H     H_    0.696870 0.049148 0.075656 0.104688
H94   H     H_    0.158304 0.424618 0.138389 0.107698
H95   H     H_    0.196870 0.549148 0.075656 0.104688
H96   H     H_    0.283534 0.134041 0.506032 0.142341
H97   H     H_    0.257385 0.903039 0.529831 0.139538
H98   H     H_    0.783534 0.634040 0.506033 0.142341
H99   H     H_    0.087454 0.843863 0.681717 0.155051
H100  H     H_    0.757385 0.403039 0.529831 0.139537
H101  H     H_    0.448177 0.298461 0.973181 0.113309
H102  H     H_    0.416184 0.431157 0.054529 0.116361
H103  H     H_    0.275380 0.458351 0.230123 0.098081
H104  H     H_    0.167678 0.353783 0.323875 0.110429
H105  H     H_    0.200947 0.219258 0.248586 0.114474
H106  H     H_    0.246138 0.702499 0.140066 0.129572
H107  H     H_    0.255163 0.588863 0.228242 0.098690
H108  H     H_    0.394738 0.546108 0.175897 0.093503
H109  H     H_    0.525298 0.617017 0.031312 0.095758
H110  H     H_    0.204006 0.204771 0.657003 0.144878
H111  H     H_    0.516993 0.732223 0.943314 0.105081
H112  H     H_    0.948177 0.798461 0.973181 0.113309
H113  H     H_    0.916183 0.931157 0.054529 0.116361
H114  H     H_    0.775380 0.958352 0.230123 0.098081
H115  H     H_    0.667678 0.853783 0.323875 0.110429
H116  H     H_    0.700947 0.719258 0.248586 0.114474
H117  H     H_    0.746138 0.202499 0.140066 0.129572
H118  H     H_    0.755162 0.088863 0.228242 0.098690
H119  H     H_    0.894737 0.046109 0.175898 0.093503
H120  H     H_    0.025298 0.117017 0.031313 0.095758
N1    N     N_R   0.408680 0.130160 0.995800 -0.065647
N2    N     N_R   0.403730 0.078230 0.935950 -0.046983
N3    N     N_R   0.903730 0.421770 0.935950 -0.042780
N4    N     N_R   0.903730 0.578230 0.935950 -0.046983
N5    N     N_R   0.426630 0.075970 0.212960 -0.032224
N6    N     N_R   0.426630 0.924030 0.212960 -0.036170
N7    N     N_R   0.926630 0.575970 0.212960 -0.032224
N8    N     N_R   0.926630 0.424030 0.212960 -0.036170
N9    N     N_R   0.591320 0.134600 0.004200 -0.049723
N10   N     N_R   0.591320 0.865400 0.004200 -0.045589
N11   N     N_R   0.091320 0.634600 0.004200 -0.049723
N12   N     N_R   0.408680 0.869840 0.995800 -0.062156
N13   N     N_R   0.091320 0.365400 0.004200 -0.045589
N14   N     N_R   0.578320 0.867660 0.846880 -0.047676
N15   N     N_R   0.578320 0.132340 0.846880 -0.034153
N16   N     N_R   0.078320 0.367660 0.846880 -0.047676
N17   N     N_R   0.078320 0.632340 0.846880 -0.034153
N18   N     N_R   0.573370 0.074390 0.787040 -0.027651
N19   N     N_R   0.573370 0.925610 0.787040 -0.033809
N20   N     N_R   0.073370 0.574390 0.787040 -0.027651
N21   N     N_R   0.073370 0.425610 0.787040 -0.033809
N22   N     N_R   0.596270 0.927870 0.064040 -0.040208
N23   N     N_R   0.908680 0.630160 0.995800 -0.065647
N24   N     N_R   0.596270 0.072130 0.064040 -0.039380
N25   N     N_R   0.096270 0.427870 0.064040 -0.040208
N26   N     N_R   0.096270 0.572130 0.064040 -0.039380
N27   N     N_R   0.908680 0.369840 0.995800 -0.062156
N28   N     N_R   0.421680 0.867580 0.153120 -0.036574
N29   N     N_R   0.421680 0.132420 0.153120 -0.039646
N30   N     N_R   0.921680 0.367580 0.153120 -0.036574
N31   N     N_R   0.921680 0.632420 0.153120 -0.039646
N32   N     N_R   0.403730 0.921770 0.935950 -0.042780
Ni1   Ni    Ni4+2 0.500000 0.131190 0.000000 0.202511
Ni2   Ni    Ni4+2 0.500000 0.868810 0.000000 0.211938
Ni3   Ni    Ni4+2 0.000000 0.631190 0.000000 0.202511
Ni4   Ni    Ni4+2 0.000000 0.368810 0.000000 0.211938
Ni5   Ni    Ni4+2 0.488650 0.000000 0.862740 0.199596
Ni6   Ni    Ni4+2 0.988650 0.500000 0.862740 0.199596
Ni7   Ni    Ni4+2 0.511350 0.000000 0.137260 0.206453
Ni8   Ni    Ni4+2 0.011350 0.500000 0.137260 0.206453

loop_
_geom_bond_atom_site_label_1
_geom_bond_atom_site_label_2
_ccdc_geom_bond_type
C17   C73   S    
C74   H58   S    
C8    H115  S    
C19   C20   A    
C63   C65   S    
C42   H25   S    
N10   N22   A    
C68   C81   S    
C90   C107  S    
C73   H57   S    
N25   Ni8   S    
C5    C6    A    
C95   N32   A    
C87   C94   D    
N17   N20   A    
C112  H79   S    
C37   C42   A    
C58   H29   S    
C62   C64   S    
N7    Ni8   S    
C44   C70   S    
C70   C84   S    
C78   N29   A    
C6    H113  S    
C10   C71   S    
C79   N30   A    
N28   Ni2   S    
C19   H5    S    
C21   C22   A    
C63   C85   S    
N9    Ni1   S    
C80   H56   S    
N13   N25   A    
C59   H35   S    
C53   C68   S    
N5    N29   A    
C115  N26   A    
N7    N31   A    
C7    H114  S    
N13   Ni4   S    
C131  H105  S    
C44   C119  A    
C122  H89   S    
C82   H92   S    
C47   C52   S    
C37   C38   A    
C52   C72   S    
C104  N25   A    
N20   Ni6   S    
C69   C74   S    
C50   H55   S    
C13   C115  A    
C45   C120  A    
C116  H82   S    
C116  N13   A    
C89   H64   S    
C120  H86   S    
C35   C122  A    
C17   C22   A    
C4    C5    A    
C6    C7    A    
N27   Ni4   S    
C98   C106  A    
C30   C36   A    
N8    N30   A    
C84   H46   S    
C130  C131  A    
C59   C66   S    
C10   C16   A    
C117  H83   S    
C77   N28   A    
C24   C87   S    
C43   C118  A    
C97   C107  A    
C58   C67   S    
C20   C21   A    
C99   N5    A    
C22   H8    S    
C125  C127  A    
N17   Ni3   S    
C87   H62   S    
N15   Ni1   S    
C36   H19   S    
C47   H97   S    
C62   H32   S    
C57   C66   S    
C128  C129  A    
N24   Ni7   S    
C72   C85   S    
N1    Ni1   S    
C7    C8    A    
C45   C123  A    
C23   C29   A    
C88   H63   S    
N18   Ni5   S    
C38   C39   A    
C33   H17   S    
N29   Ni1   S    
C119  H85   S    
C83   H45   S    
N1    N2    A    
C57   C73   S    
C26   H10   S    
C61   C67   S    
C121  N18   A    
N3    Ni6   S    
C85   H42   S    
C60   N23   A    
C55   H48   S    
C89   C91   D    
C76   H60   S    
C50   C67   S    
C1    C103  A    
C55   C75   S    
C95   H70   S    
C43   C69   S    
C83   H40   S    
C129  H103  S    
C53   H13   S    
C82   N22   A    
C78   H53   S    
C47   H33   S    
C48   C53   S    
C98   H73   S    
C100  C108  A    
C39   C40   A    
N4    N23   A    
C63   H34   S    
N11   N26   A    
C25   C26   A    
C62   H37   S    
C46   C51   S    
C18   H4    S    
C133  H106  S    
C31   H15   S    
C125  C131  A    
C67   C110  S    
C31   C32   A    
C32   H16   S    
C4    C60   S    
C17   C18   A    
N10   Ni2   S    
C56   H49   S    
C50   H100  S    
C46   H1    S    
N4    Ni6   S    
C24   C116  A    
N5    Ni7   S    
C118  H84   S    
C23   C74   S    
C48   H44   S    
C124  H91   S    
C60   C106  A    
C58   C74   S    
C129  C130  A    
C49   N12   A    
C62   C84   S    
C65   C108  S    
C58   H51   S    
C46   H96   S    
N14   N19   A    
C77   C108  A    
C12   C14   A    
N9    N24   A    
C134  C135  A    
C100  H75   S    
N30   Ni4   S    
C71   N27   A    
C122  N19   A    
N2    Ni5   S    
N26   Ni8   S    
C64   C109  S    
C78   C109  A    
N31   Ni3   S    
C97   H72   S    
C84   H41   S    
C91   H67   S    
C10   C11   A    
C96   N2    A    
C70   C75   S    
C77   H52   S    
C14   C15   A    
C5    H112  S    
C113  H80   S    
C48   C66   S    
C4    C9    A    
C112  N9    A    
N12   N32   A    
N15   N18   A    
C71   C107  A    
C41   C42   A    
C135  C136  A    
C26   C27   A    
C50   C54   S    
C81   H39   S    
C40   H22   S    
C28   C29   A    
C30   C31   A    
C128  H102  S    
C99   C109  A    
C18   C19   A    
C113  N10   A    
N19   Ni5   S    
C102  H78   S    
N6    N28   A    
N21   Ni6   S    
C52   H2    S    
C66   C111  S    
C43   C121  A    
C112  C126  A    
C13   C114  A    
C92   H68   S    
C98   N4    A    
C85   H47   S    
C3    H111  S    
C1    N1    A    
C34   H18   S    
C49   C132  S    
C28   H12   S    
C3    C132  A    
C9    H116  S    
C81   H43   S    
C61   C83   S    
C96   H71   S    
C49   C105  A    
C44   C124  A    
C61   H31   S    
C135  H108  S    
C2    C89   S    
C104  H94   S    
C51   H88   S    
N32   Ni5   S    
C57   H50   S    
C37   C76   S    
C88   C90   D    
C94   C103  S    
C127  H101  S    
C133  C134  A    
C2    C82   A    
C127  C128  A    
C63   H38   S    
C79   C110  A    
C59   C81   S    
C101  H76   S    
N14   Ni2   S    
C124  N21   A    
C101  C111  A    
C53   H66   S    
C32   C33   A    
N11   Ni3   S    
C114  N11   A    
C30   C75   S    
C54   C69   S    
N22   Ni7   S    
C80   C111  A    
C11   H117  S    
C34   C36   A    
C86   H61   S    
C54   H24   S    
C92   C105  S    
C96   C103  A    
N8    Ni8   S    
C48   H98   S    
C56   C65   S    
C52   H99   S    
C75   H59   S    
C54   H77   S    
N16   N21   A    
C56   C76   S    
C38   H20   S    
C72   C76   S    
C117  N14   A    
C120  N17   A    
C123  H90   S    
C119  N16   A    
C56   H27   S    
C130  H104  S    
C1    C125  S    
C3    C136  A    
C2    C113  A    
C15   C16   A    
C93   N24   A    
C88   C126  S    
C95   C105  A    
C29   H14   S    
C93   C126  A    
C14   H119  S    
C132  C133  A    
C79   H54   S    
C13   C86   S    
C51   C70   S    
C115  H95   S    
C90   H65   S    
C41   H23   S    
C39   H21   S    
C45   C72   S    
C91   C106  S    
C94   H69   S    
C15   H120  S    
C12   H118  S    
C20   H6    S    
C51   H110  S    
C21   H7    S    
C8    C9    A    
C68   C73   S    
C46   C64   S    
C24   C104  A    
C69   C83   S    
C55   C64   S    
C33   C34   A    
C121  H87   S    
C61   H36   S    
C59   H30   S    
C40   C41   A    
C100  N6    A    
N23   Ni3   S    
C101  N7    A    
C102  N8    A    
C35   C117  A    
C16   H3    S    
C114  H81   S    
N12   Ni2   S    
C123  N20   A    
C97   N3    A    
C118  N15   A    
C93   H93   S    
C80   N31   A    
C55   H26   S    
C11   C12   A    
N3    N27   A    
C86   C92   D    
N16   Ni4   S    
C57   H28   S    
C35   C68   S    
C136  H109  S    
C23   C25   A    
C134  H107  S    
C102  C110  A    
C27   H11   S    
C27   C28   A    
N6    Ni7   S    
C25   H9    S    
C47   C65   S    
C99   H74   S    
