data_str_m2_o16_o24_f0_pcu.sym.116
_audit_creation_date              2012-12-10T17:36:47-0500
_audit_creation_method            fapswitch 2.2
_symmetry_space_group_name_H-M    P1
_symmetry_Int_Tables_number       1
_space_group_crystal_system       triclinic
_cell_length_a                    10.637101
_cell_length_b                    12.373448
_cell_length_c                    13.228649
_cell_angle_alpha                 116.626845
_cell_angle_beta                  77.160385
_cell_angle_gamma                 101.864325
_cell_volume                      1506.28485237

loop_
_atom_site_label
_atom_site_type_symbol
_atom_type_description
_atom_site_fract_x
_atom_site_fract_y
_atom_site_fract_z
_atom_type_partial_charge
C1    C     C_R   0.505163 0.854820 0.287413 0.800118
C2    C     C_3   0.017591 0.012756 0.603491 -0.187398
C3    C     C_3   0.929959 0.907233 0.522473 -0.159529
C4    C     C_3   0.876749 0.001488 0.502177 -0.094636
C5    C     C_R   0.405713 0.263747 0.035062 -0.021506
C6    C     C_R   0.468834 0.227866 0.835541 -0.068373
C7    C     C_R   0.533363 0.818966 0.084213 -0.152178
C8    C     C_R   0.542689 0.742145 0.968608 -0.114350
C9    C     C_R   0.518938 0.616634 0.932619 -0.169898
C10   C     C_R   0.477458 0.564712 0.012732 0.090964
C11   C     C_R   0.452478 0.644596 0.130123 0.066664
C12   C     C_R   0.740188 0.000602 0.500838 0.876185
C13   C     C_R   0.459391 0.436510 0.980671 0.070124
C14   C     C_R   0.412249 0.390334 0.065223 0.073756
C15   C     C_R   0.365869 0.470889 0.175833 -0.177056
C16   C     C_R   0.382452 0.594900 0.206623 -0.190846
C17   C     C_R   0.487528 0.352974 0.866892 -0.236302
C18   C     C_R   0.433044 0.184027 0.919777 -0.188695
C19   C     C_R   0.494260 0.771796 0.166336 -0.082331
C20   C     C_R   0.695062 0.346218 0.320415 -0.255438
C21   C     C_R   0.325187 0.756607 0.648492 0.098988
C22   C     C_R   0.302417 0.667034 0.691564 -0.127100
C23   C     C_R   0.483989 0.145110 0.713456 0.861704
C24   C     C_R   0.373727 0.568503 0.637155 -0.254623
C25   C     C_R   0.467969 0.557095 0.541864 -0.013381
C26   C     C_R   0.496898 0.655807 0.507772 0.263273
C27   C     C_R   0.535537 0.451229 0.480002 0.004953
C28   C     C_R   0.632007 0.448654 0.386968 0.166448
C29   C     C_R   0.664410 0.547476 0.358656 -0.226120
C30   C     C_R   0.599023 0.648900 0.418107 -0.174829
C31   C     C_R   0.509967 0.346056 0.504012 0.017916
C32   C     C_R   0.665180 0.244931 0.344971 0.192933
C33   C     C_R   0.259735 0.999825 0.499756 0.816225
C34   C     C_3   0.982410 0.988992 0.398559 -0.201623
C35   C     C_3   0.037212 0.896332 0.419850 0.024311
C36   C     C_3   0.123091 0.000175 0.499764 -0.052306
C37   C     C_3   0.069978 0.094394 0.479547 -0.165555
C38   C     C_3   0.962745 0.105542 0.582255 0.000909
Cu1   Cu    Cu3+1 0.529830 0.098270 0.475420 1.003930
Cu2   Cu    Cu3+1 0.470170 0.901730 0.524580 0.961400
H1    H     H_    0.523247 0.382926 0.799994 0.157990
H2    H     H_    0.572517 0.780021 0.906129 0.157446
H3    H     H_    0.334546 0.649879 0.290232 0.205403
H4    H     H_    0.767251 0.344335 0.247431 0.166482
H5    H     H_    0.354421 0.501773 0.671711 0.182184
H6    H     H_    0.631860 0.719326 0.389776 0.206900
H7    H     H_    0.033695 0.024078 0.687886 0.165582
H8    H     H_    0.871197 0.830248 0.539469 0.189505
H9    H     H_    0.427680 0.087456 0.895774 0.227002
H10   H     H_    0.312981 0.439104 0.239201 0.189231
N1    N     N_R   0.575030 0.246270 0.438190 -0.218744
N2    N     N_R   0.425760 0.754330 0.561190 -0.255687
O1    O     O_R   0.537510 0.972500 0.318130 -0.575447
O2    O     O_R   0.487140 0.806530 0.359650 -0.623098
O3    O     O_R   0.708330 0.082950 0.479220 -0.507394
O4    O     O_R   0.657960 0.916980 0.520740 -0.624843
O5    O     O_R   0.512860 0.193470 0.640350 -0.586220
O6    O     O_R   0.462490 0.027500 0.681870 -0.571528
O7    O     O_R   0.342040 0.083020 0.479260 -0.588333
O8    O     O_R   0.291670 0.917050 0.520780 -0.578944
C39   C     C_2   0.080420 0.780243 0.325791 0.822951
O9    O     O_2   0.036498 0.683030 0.330589 -0.592560
O10   O     O_R   0.168952 0.784029 0.231752 -0.771505
H11   H     H_    0.185788 0.699830 0.170850 0.340635
H12   H     H_    0.557444 0.915716 0.109263 0.193897
H13   H     H_    0.531704 0.563916 0.841422 0.127689
C40   C     C_2   0.730163 0.137843 0.261301 0.855961
O11   O     O_2   0.795671 0.090471 0.291120 -0.595256
O12   O     O_R   0.728312 0.099678 0.144805 -0.784155
H14   H     H_    0.781439 0.029763 0.094494 0.335188
H15   H     H_    0.740542 0.545892 0.288328 0.175027
H16   H     H_    0.436965 0.340245 0.572778 0.132688
C41   C     C_2   0.228392 0.842619 0.690053 0.941393
O13   O     O_2   0.129156 0.810951 0.646644 -0.603762
O14   O     O_R   0.242746 0.953316 0.785668 -0.733887
H17   H     H_    0.167260 0.001930 0.808190 0.324967
H18   H     H_    0.967012 0.977465 0.313879 0.206490
C42   C     C_2   0.203472 0.672083 0.792861 0.862124
O15   O     O_2   0.171519 0.769556 0.867275 -0.548959
O16   O     O_R   0.149539 0.564604 0.804844 -0.723810
H19   H     H_    0.085017 0.579568 0.877473 0.351979
H20   H     H_    0.128728 0.171324 0.462456 0.178668
C43   C     C_2   0.924843 0.224521 0.675447 0.847663
O17   O     O_2   0.006636 0.298547 0.731278 -0.563607
O18   O     O_R   0.797026 0.250280 0.698652 -0.769078
H21   H     H_    0.784014 0.333367 0.763563 0.333221
C44   C     C_2   0.374832 0.210850 0.120306 0.837279
O19   O     O_2   0.410802 0.267599 0.213975 -0.607841
O20   O     O_R   0.309665 0.092891 0.090979 -0.718039
H22   H     H_    0.296420 0.065813 0.154894 0.350422

loop_
_geom_bond_atom_site_label_1
_geom_bond_atom_site_label_2
_ccdc_geom_bond_type
C23   O6    A    
Cu1   N1    S    
C44   O19   D    
Cu2   O8    S    
C38   C43   S    
C34   C37   S    
C41   O13   D    
C35   C36   S    
C1    O2    A    
C7    C8    A    
O18   H21   S    
C11   C19   A    
C29   C30   A    
C24   H5    S    
C28   C29   A    
C8    H2    S    
C34   H18   S    
C42   O16   S    
C15   C16   A    
Cu1   O5    S    
C21   C41   S    
C3    H8    S    
C33   C36   S    
C34   C35   S    
C15   H10   S    
C39   O10   S    
C1    O1    A    
C9    H13   S    
Cu1   O3    S    
C8    C9    A    
Cu2   O4    S    
C4    C12   S    
C9    C10   A    
C33   O7    A    
C21   C22   A    
C41   O14   S    
C39   O9    D    
C20   H4    S    
C6    C18   A    
C4    C34   S    
C1    C19   S    
Cu2   O6    S    
C27   C31   A    
C40   O11   D    
C24   C25   A    
C22   C42   S    
Cu1   Cu2   S    
C42   O15   D    
C5    C18   A    
C20   C28   A    
C25   C26   A    
Cu2   N2    S    
C40   O12   S    
O14   H17   S    
C32   N1    A    
C37   C38   S    
C26   N2    A    
C7    H12   S    
C11   C16   A    
C2    C38   S    
C43   O17   D    
C3    C35   S    
Cu1   O7    S    
C35   C39   S    
C16   H3    S    
C5    C14   A    
C12   O4    A    
C32   C40   S    
C31   H16   S    
C43   O18   S    
C4    C38   S    
C26   C30   A    
C33   O8    A    
C7    C19   A    
C44   O20   S    
C22   C24   A    
C37   H20   S    
C3    C4    S    
C20   C32   A    
C2    C36   S    
C23   O5    A    
C6    C17   A    
C36   C37   S    
C30   H6    S    
C31   N1    A    
O16   H19   S    
C10   C13   A    
C2    H7    S    
C25   C27   A    
Cu2   O2    S    
C13   C17   A    
C2    C3    S    
Cu1   O1    S    
C6    C23   S    
O12   H14   S    
C17   H1    S    
C12   O3    A    
C10   C11   A    
O10   H11   S    
C5    C44   S    
C27   C28   A    
C14   C15   A    
O20   H22   S    
C13   C14   A    
C21   N2    A    
C18   H9    S    
C29   H15   S    
