data_str_m9_o11_o16_f0_sra.sym.19
_audit_creation_date              2012-12-11T14:17:38-0500
_audit_creation_method            fapswitch 2.2
_symmetry_space_group_name_H-M    P1
_symmetry_Int_Tables_number       1
_space_group_crystal_system       triclinic
_cell_length_a                    6.939981
_cell_length_b                    13.669668
_cell_length_c                    20.358148
_cell_angle_alpha                 102.046351
_cell_angle_beta                  89.819535
_cell_angle_gamma                 91.006036
_cell_volume                      1888.5003568

loop_
_atom_site_label
_atom_site_type_symbol
_atom_type_description
_atom_site_fract_x
_atom_site_fract_y
_atom_site_fract_z
_atom_type_partial_charge
O1    O     O_R   0.506860 0.599390 0.449240 -0.545395
O2    O     O_R   0.180220 0.594600 0.586780 -0.523714
O3    O     O_R   0.004500 0.400610 0.550760 -0.529692
C1    C     C_R   0.347558 0.610954 0.615299 0.783063
O4    O     O_R   0.177490 0.611290 0.451970 -0.547751
O5    O     O_R   0.001750 0.417420 0.414990 -0.545150
C2    C     C_R   0.347966 0.638174 0.435481 0.675885
O6    O     O_R   0.509610 0.582580 0.585010 -0.537336
O7    O     O_3   0.337420 0.436370 0.488020 -0.377169
V1    V     V_3+5 0.064680 0.511800 0.502220 1.480878
O8    O     O_R   0.671710 0.405400 0.413220 -0.550078
C3    C     C_R   0.839316 0.383320 0.386761 0.746540
O9    O     O_R   0.674440 0.388710 0.548030 -0.534108
C4    C     C_R   0.841845 0.361983 0.564885 0.777974
V2    V     V_3+5 0.564010 0.488200 0.497780 1.474461
O10   O     O_3   0.841140 0.563630 0.511980 -0.372628
C5    C     C_R   0.786170 0.110289 0.612004 -0.190600
H1    H     H_    0.774128 0.985879 0.696160 0.115814
H2    H     H_    0.762293 0.032453 0.587812 0.113735
C6    C     C_R   0.843260 0.282444 0.603458 -0.112410
C7    C     C_R   0.881539 0.314133 0.926914 -0.169216
C8    C     C_R   0.851509 0.390178 0.892470 -0.179817
C9    C     C_R   0.809073 0.368257 0.823679 -0.011477
C10   C     C_R   0.823185 0.267435 0.786418 0.070711
C11   C     C_R   0.834509 0.189700 0.823429 0.051832
C12   C     C_R   0.825095 0.239968 0.714488 0.080795
C13   C     C_R   0.799248 0.137970 0.682302 0.127035
C14   C     C_R   0.791488 0.064070 0.720328 -0.196116
C15   C     C_R   0.815808 0.089054 0.789497 -0.191481
C16   C     C_R   0.863162 0.309329 0.673320 -0.135754
C17   C     C_R   0.802390 0.182403 0.572632 -0.048115
C18   C     C_R   0.863456 0.214224 0.893859 -0.071105
H3    H     H_    0.909023 0.384917 0.694635 0.169171
H4    H     H_    0.906502 0.333316 0.980635 0.105986
H5    H     H_    0.848153 0.466621 0.920871 0.126827
H6    H     H_    0.818394 0.028448 0.816244 0.118112
C19   C     C_2   0.001248 0.270534 0.291884 -0.211172
C20   C     C_2   0.839585 0.311391 0.321352 -0.280721
H7    H     H_    0.138315 0.290924 0.317167 0.132764
H8    H     H_    0.700236 0.286940 0.299248 0.128214
C21   C     C_2   0.002202 0.189762 0.229830 0.028697
C22   C     C_2   0.865457 0.182812 0.181073 -0.335482
H9    H     H_    0.745636 0.233846 0.188555 0.107456
C23   C     C_2   0.216496 0.748364 0.798769 -0.078925
C24   C     C_2   0.355807 0.818675 0.818748 -0.346101
H10   H     H_    0.467478 0.831335 0.783908 0.120759
C25   C     C_2   0.198651 0.690489 0.727678 -0.021085
C26   C     C_2   0.354871 0.668299 0.686273 -0.315877
H11   H     H_    0.497796 0.689902 0.706131 0.129627
C27   C     C_R   0.488881 0.876516 0.383707 -0.143718
H12   H     H_    0.480438 0.827389 0.477009 0.103427
H13   H     H_    0.568371 0.992205 0.297473 0.143348
H14   H     H_    0.551825 0.948497 0.406782 0.147358
C28   C     C_R   0.365577 0.714912 0.395479 -0.029286
C29   C     C_R   0.269447 0.691884 0.073521 -0.159162
C30   C     C_R   0.230729 0.619162 0.110441 -0.116190
C31   C     C_R   0.265447 0.638685 0.179334 -0.157642
C32   C     C_R   0.343225 0.732165 0.213168 0.074267
C33   C     C_R   0.390706 0.804853 0.174353 0.076558
C34   C     C_R   0.373531 0.756341 0.284176 0.071949
C35   C     C_R   0.455149 0.851282 0.314256 0.130423
C36   C     C_R   0.505088 0.919976 0.274874 -0.177341
C37   C     C_R   0.473862 0.897229 0.206086 -0.123245
C38   C     C_R   0.327056 0.689470 0.326588 -0.212125
C39   C     C_R   0.446736 0.808209 0.423885 -0.174192
C40   C     C_R   0.349308 0.784452 0.104653 -0.077574
H15   H     H_    0.267277 0.615750 0.307635 0.094744
H16   H     H_    0.235138 0.676338 0.020405 0.121850
H17   H     H_    0.229032 0.578956 0.204460 0.105743
H18   H     H_    0.169756 0.547535 0.085681 0.118837
H19   H     H_    0.514125 0.953565 0.178083 0.133364
O11   O     O_R   0.203230 0.917310 0.915020 -0.536819
O12   O     O_R   0.535500 0.888690 0.048040 -0.548129
O13   O     O_R   0.711080 0.082610 0.085000 -0.553788
C41   C     C_R   0.365373 0.862250 0.064996 0.719825
O14   O     O_R   0.532630 0.905370 0.913230 -0.541936
O15   O     O_R   0.708190 0.099410 0.949230 -0.543391
C42   C     C_R   0.363660 0.883648 0.886781 0.751553
O16   O     O_R   0.206120 0.900510 0.050790 -0.517648
O17   O     O_3   0.375360 0.063570 0.011990 -0.379904
V3    V     V_3+5 0.648170 0.988200 0.997780 1.457047
O18   O     O_R   0.038240 0.111390 0.951940 -0.546820
C43   C     C_R   0.870577 0.137057 0.934296 0.673679
O19   O     O_R   0.041120 0.094710 0.086750 -0.525056
C44   C     C_R   0.873381 0.113418 0.114433 0.791128
V4    V     V_3+5 0.148810 0.011930 0.002180 1.487929
O20   O     O_3   0.871750 0.936430 0.988010 -0.361097
C45   C     C_1   0.782060 0.152202 0.500607 0.269125
N1    N     N_1   0.766152 0.128389 0.442876 -0.383179
C46   C     C_2   0.159303 0.116469 0.225881 0.399936
H20   H     H_    0.294728 0.138894 0.251661 0.014050
O21   O     O_2   0.134880 0.029158 0.197745 -0.534240
C47   C     C_1   0.075584 0.726993 0.847157 0.315311
N2    N     N_1   0.963501 0.709920 0.885645 -0.382010
C48   C     C_2   0.999612 0.656025 0.706535 0.415392
H21   H     H_    0.883234 0.709215 0.714759 0.005346
O22   O     O_2   0.961967 0.567612 0.685248 -0.535021
C49   C     C_2   0.720570 0.450360 0.797420 0.363128
H22   H     H_    0.763878 0.527416 0.817631 0.084782
O23   O     O_2   0.590154 0.433433 0.756249 -0.518444

loop_
_geom_bond_atom_site_label_1
_geom_bond_atom_site_label_2
_ccdc_geom_bond_type
C29   C30   A    
C47   N2    T    
C21   C22   D    
C48   H21   S    
C1    O6    A    
C29   H16   S    
C31   C32   A    
C28   C39   A    
C6    C16   A    
C24   H10   S    
C8    H5    S    
C15   H6    S    
C12   C13   A    
C19   C20   D    
C14   C15   A    
O14   C42   A    
C33   C40   A    
O5    C3    A    
O15   C43   A    
C32   C34   A    
V2    O10   S    
C49   H22   S    
C30   C31   A    
H12   C39   S    
O11   C42   A    
C23   C47   S    
O8    V2    S    
O17   V4    S    
C9    C10   A    
C24   C42   S    
O1    V2    S    
O7    V1    S    
C23   C25   S    
C11   C18   A    
C21   C46   S    
O9    C4    A    
C3    C20   S    
O12   C41   A    
O12   V3    S    
C11   C15   A    
C7    C18   A    
C27   H14   S    
C5    C13   A    
C38   H15   S    
C4    C6    S    
H1    C14   S    
C10   C11   A    
O4    C2    A    
V4    O20   S    
C7    H4    S    
C32   C33   A    
O18   V4    S    
C34   C35   A    
O2    C1    A    
C36   C37   A    
C46   O21   D    
C25   C26   D    
O15   V3    S    
C22   C44   S    
O19   C44   A    
V3    O20   S    
O3    C4    A    
C26   H11   S    
C37   H19   S    
C12   C16   A    
O6    V2    S    
C30   H18   S    
O9    V2    S    
C5    C17   A    
C22   H9    S    
O13   V3    S    
O2    V1    S    
C29   C40   A    
C23   C24   D    
C1    C26   S    
C18   C43   S    
C17   C45   S    
C16   H3    S    
O1    C2    A    
C33   C37   A    
C10   C12   A    
O17   V3    S    
O14   V3    S    
O5    V1    S    
O11   V4    S    
O8    C3    A    
C48   O22   D    
C49   O23   D    
C34   C38   A    
O7    V2    S    
O4    V1    S    
C19   H7    S    
O3    V1    S    
V1    O10   S    
C20   H8    S    
C46   H20   S    
C28   C38   A    
C40   C41   S    
C5    H2    S    
O13   C44   A    
C19   C21   S    
C35   C36   A    
C27   C39   A    
C9    C49   S    
C45   N1    T    
O18   C43   A    
C13   C14   A    
C27   C35   A    
C25   C48   S    
C8    C9    A    
O19   V4    S    
H13   C36   S    
C2    C28   S    
C31   H17   S    
C7    C8    A    
C41   O16   A    
O16   V4    S    
C6    C17   A    
