data_str_m2_o14_o17_f0_pcu.sym.102
_audit_creation_date              2012-12-10T17:19:21-0500
_audit_creation_method            fapswitch 2.2
_symmetry_space_group_name_H-M    P1
_symmetry_Int_Tables_number       1
_space_group_crystal_system       triclinic
_cell_length_a                    15.01489
_cell_length_b                    10.7833
_cell_length_c                    9.635552
_cell_angle_alpha                 90.2582
_cell_angle_beta                  90.846993
_cell_angle_gamma                 93.322735
_cell_volume                      1557.27750437

loop_
_atom_site_label
_atom_site_type_symbol
_atom_type_description
_atom_site_fract_x
_atom_site_fract_y
_atom_site_fract_z
_atom_type_partial_charge
C1    C     C_R   0.495112 0.262559 0.499844 0.803055
C2    C     C_R   0.912854 0.609214 0.527705 0.099249
C3    C     C_R   0.940413 0.280728 0.421659 -0.217085
C4    C     C_R   0.032687 0.278698 0.411950 0.426172
C5    C     C_R   0.087780 0.384223 0.453637 -0.028507
C6    C     C_R   0.046745 0.494967 0.490526 -0.014434
C7    C     C_R   0.099392 0.604077 0.523984 0.137961
C8    C     C_R   0.059282 0.714115 0.556411 -0.230810
C9    C     C_R   0.966988 0.716942 0.557606 -0.130459
C10   C     C_R   0.181839 0.381810 0.462423 0.336617
C11   C     C_R   0.232696 0.492932 0.495920 -0.137345
C12   C     C_R   0.329255 0.498363 0.499011 0.772041
C13   C     C_R   0.191672 0.602337 0.524487 -0.294750
C14   C     C_R   0.367487 0.118556 0.674781 -0.194560
C15   C     C_R   0.311470 0.049698 0.763360 -0.147390
C16   C     C_R   0.312481 0.920338 0.766038 0.201120
C17   C     C_R   0.369343 0.860675 0.677076 -0.203838
C18   C     C_R   0.429313 0.928954 0.590221 0.067839
C19   C     C_R   0.428589 0.060020 0.589365 0.089725
C20   C     C_R   0.487187 0.128041 0.499556 -0.099002
C21   C     C_R   0.540968 0.067004 0.407713 -0.168762
C22   C     C_R   0.541342 0.939347 0.408133 -0.213863
C23   C     C_R   0.496116 0.736860 0.500282 0.753581
C24   C     C_R   0.488254 0.870114 0.500718 -0.072900
C25   C     C_R   0.621858 0.662381 0.147034 -0.162194
C26   C     C_R   0.684621 0.738450 0.077205 0.135513
C27   C     C_R   0.683762 0.737923 0.933299 -0.206162
C28   C     C_R   0.621744 0.661763 0.859991 -0.152820
C29   C     C_R   0.559953 0.579437 0.927240 0.182635
C30   C     C_R   0.560051 0.579474 0.076413 0.149481
C31   C     C_R   0.440601 0.425874 0.069366 0.234392
C32   C     C_R   0.442538 0.425815 0.922194 -0.060300
C33   C     C_R   0.670656 0.501425 0.500721 0.876744
C34   C     C_R   0.819678 0.612906 0.528122 0.251199
C35   C     C_R   0.767123 0.502194 0.501337 -0.187920
C36   C     C_R   0.805957 0.389757 0.473806 0.341691
C37   C     C_R   0.899507 0.387762 0.465105 -0.076849
C38   C     C_R   0.952917 0.497146 0.494525 -0.051371
Cu1   Cu    Cu3+1 0.499990 0.499990 0.640660 0.929570
Cu2   Cu    Cu3+1 0.500010 0.500010 0.359340 0.938438
H1    H     H_    0.360640 0.217549 0.672789 0.147798
H2    H     H_    0.266428 0.097756 0.828775 0.135459
H3    H     H_    0.364257 0.760556 0.675828 0.167856
H4    H     H_    0.585339 0.894475 0.338171 0.141344
H5    H     H_    0.624317 0.671699 0.256517 0.188499
H6    H     H_    0.730953 0.797888 0.877113 0.175935
H7    H     H_    0.624958 0.671247 0.750588 0.208487
H8    H     H_    0.395925 0.365370 0.863152 0.140251
H9    H     H_    0.901270 0.198444 0.387776 0.180099
H10   H     H_    0.232117 0.686583 0.547821 0.141496
H11   H     H_    0.099446 0.798361 0.581029 0.157025
H12   H     H_    0.938358 0.804003 0.582830 0.199450
H13   H     H_    0.585053 0.118713 0.337883 0.184668
N1    N     N_R   0.500860 0.501210 0.147910 -0.208803
N2    N     N_R   0.500890 0.501290 0.852040 -0.214532
O1    O     O_R   0.499990 0.319640 0.618810 -0.573220
O2    O     O_R   0.500000 0.319660 0.381240 -0.592668
O3    O     O_R   0.370250 0.499960 0.618800 -0.591201
O4    O     O_R   0.370260 0.499980 0.381230 -0.581791
O5    O     O_R   0.500000 0.680340 0.618760 -0.609753
O6    O     O_R   0.500010 0.680360 0.381190 -0.596734
O7    O     O_R   0.629740 0.500020 0.618770 -0.587936
O8    O     O_R   0.629750 0.500040 0.381200 -0.577336
O9    O     O_3   0.782915 0.725595 0.554198 -0.758999
H14   H     H_    0.717818 0.719489 0.536399 0.298420
C39   C     C_3   0.251448 0.845032 0.860826 -0.432693
C40   C     C_3   0.304402 0.779040 0.972157 -0.779710
H15   H     H_    0.347882 0.711221 0.924359 0.252364
H16   H     H_    0.346302 0.847774 0.034296 0.256193
H17   H     H_    0.257617 0.727844 0.042720 0.241428
H18   H     H_    0.204552 0.905495 0.913183 0.207546
H19   H     H_    0.210692 0.775030 0.798668 0.203497
C41   C     C_3   0.368168 0.340817 0.131224 -0.355724
C42   C     C_3   0.275938 0.390397 0.105767 -0.838608
H20   H     H_    0.272929 0.485325 0.149941 0.270779
H21   H     H_    0.259991 0.393300 0.992977 0.236785
H22   H     H_    0.224507 0.328431 0.155909 0.251422
H23   H     H_    0.369783 0.247248 0.082584 0.170171
H24   H     H_    0.376759 0.325191 0.242208 0.256637
C43   C     C_3   0.752724 0.820498 0.156638 -0.416111
C44   C     C_3   0.843980 0.765090 0.156280 -0.749992
H25   H     H_    0.839818 0.671493 0.204406 0.253669
H26   H     H_    0.868460 0.757463 0.048521 0.246082
H27   H     H_    0.892515 0.825839 0.217212 0.250863
H28   H     H_    0.757636 0.914618 0.109793 0.209150
H29   H     H_    0.732580 0.831920 0.266272 0.204089
O10   O     O_3   0.750144 0.284301 0.454640 -0.737478
H30   H     H_    0.778664 0.213338 0.498106 0.321371
O11   O     O_3   0.065769 0.172827 0.357342 -0.690578
H31   H     H_    0.109013 0.199695 0.285227 0.346985
O12   O     O_3   0.221131 0.269710 0.445307 -0.728716
H32   H     H_    0.286583 0.280164 0.456761 0.301066

loop_
_geom_bond_atom_site_label_1
_geom_bond_atom_site_label_2
_ccdc_geom_bond_type
C8    C9    A    
O10   H30   S    
C28   H7    S    
C41   C42   S    
C19   C20   A    
C43   H28   S    
C44   H25   S    
C3    H9    S    
C7    C8    A    
C30   N1    A    
C26   C27   A    
C29   C30   A    
Cu2   O8    S    
C42   H21   S    
C18   C24   A    
C28   C29   A    
C1    O1    A    
C34   C35   A    
C5    C6    A    
C31   C41   S    
C15   C16   A    
C18   C19   A    
C43   H29   S    
C12   O4    A    
Cu1   N2    S    
Cu1   O1    S    
C39   H19   S    
C16   C17   A    
C42   H22   S    
C41   H23   S    
C6    C38   A    
C32   N2    A    
C12   O3    A    
C2    C34   A    
C39   C40   S    
Cu2   O4    S    
C21   C22   A    
C32   H8    S    
C9    H12   S    
C44   H26   S    
C36   O10   S    
C23   O5    A    
C22   H4    S    
C42   H20   S    
C40   H15   S    
O12   H32   S    
C43   C44   S    
C29   N2    A    
C25   C26   A    
Cu1   O3    S    
C33   O7    A    
C26   C43   S    
Cu2   O6    S    
C40   H16   S    
C35   C36   A    
C17   H3    S    
C37   C38   A    
C1    O2    A    
C2    C38   A    
C39   H18   S    
C23   O6    A    
C33   O8    A    
C34   O9    S    
C17   C18   A    
C41   H24   S    
C8    H11   S    
C14   H1    S    
C27   H6    S    
C10   O12   S    
Cu2   N1    S    
C22   C24   A    
C16   C39   S    
C3    C4    A    
C25   H5    S    
Cu1   Cu2   S    
C44   H27   S    
C4    O11   S    
C25   C30   A    
Cu1   O7    S    
C36   C37   A    
C1    C20   S    
Cu2   O2    S    
C14   C19   A    
C31   C32   A    
C15   H2    S    
C4    C5    A    
C11   C12   S    
C6    C7    A    
C40   H17   S    
O9    H14   S    
C5    C10   A    
C21   H13   S    
C11   C13   A    
Cu1   O5    S    
C33   C35   S    
C31   N1    A    
C10   C11   A    
C23   C24   S    
C13   H10   S    
C7    C13   A    
C20   C21   A    
C3    C37   A    
C27   C28   A    
C14   C15   A    
O11   H31   S    
C2    C9    A    
