data_str_m2_o16_o16_f0_pcu.sym.117
_audit_creation_date              2012-12-10T17:31:18-0500
_audit_creation_method            fapswitch 2.2
_symmetry_space_group_name_H-M    P1
_symmetry_Int_Tables_number       1
_space_group_crystal_system       triclinic
_cell_length_a                    18.819538
_cell_length_b                    18.831041
_cell_length_c                    12.537278
_cell_angle_alpha                 89.049763
_cell_angle_beta                  131.173197
_cell_angle_gamma                 91.196064
_cell_volume                      3343.67436519

loop_
_atom_site_label
_atom_site_type_symbol
_atom_type_description
_atom_site_fract_x
_atom_site_fract_y
_atom_site_fract_z
_atom_type_partial_charge
C1    C     C_R   0.612697 0.898827 0.653735 0.782052
C2    C     C_R   0.613743 0.101407 0.654413 0.786255
C3    C     C_R   0.112697 0.398827 0.653735 0.782053
C4    C     C_R   0.113743 0.601407 0.654413 0.786261
C5    C     C_R   0.241351 0.777140 0.034982 0.083899
C6    C     C_R   0.244633 0.226649 0.041775 0.096150
C7    C     C_R   0.741351 0.277140 0.034982 0.083898
C8    C     C_R   0.744633 0.726649 0.041775 0.096145
C9    C     C_R   0.653549 0.277471 0.002510 0.152726
C10   C     C_R   0.656501 0.722322 0.008733 0.171799
C11   C     C_R   0.153549 0.777472 0.002508 0.152725
C12   C     C_R   0.156501 0.222322 0.008732 0.171802
C13   C     C_R   0.574621 0.244842 0.879135 -0.204261
C14   C     C_R   0.577243 0.753940 0.885808 -0.191573
C15   C     C_R   0.074621 0.744843 0.879133 -0.204259
C16   C     C_R   0.077243 0.253940 0.885808 -0.191574
C17   C     C_R   0.582501 0.209041 0.791333 -0.167705
C18   C     C_R   0.584216 0.791020 0.796695 -0.177988
C19   C     C_R   0.082501 0.709042 0.791332 -0.167705
C20   C     C_R   0.084216 0.291020 0.796694 -0.177989
C21   C     C_R   0.318993 0.810837 0.159705 -0.177351
C22   C     C_R   0.322241 0.193155 0.165837 -0.168327
C23   C     C_R   0.818993 0.310837 0.159705 -0.177352
C24   C     C_R   0.822241 0.693155 0.165837 -0.168336
C25   C     C_R   0.222437 0.848744 0.211214 -0.173929
C26   C     C_R   0.224335 0.146812 0.212889 -0.187046
C27   C     C_R   0.722438 0.348743 0.211216 -0.173929
C28   C     C_R   0.724335 0.646813 0.212890 -0.187034
C29   C     C_R   0.682443 0.158819 0.747939 -0.114043
C30   C     C_R   0.680581 0.842437 0.745433 -0.119641
C31   C     C_R   0.182443 0.658818 0.747940 -0.114047
C32   C     C_R   0.180581 0.342437 0.745433 -0.119635
C33   C     C_R   0.679377 0.956920 0.289658 0.268543
C34   C     C_R   0.179378 0.456921 0.289658 0.268545
C35   C     C_R   0.350211 0.032321 0.628760 0.077742
C36   C     C_R   0.850211 0.532320 0.628760 0.077742
C37   C     C_R   0.336080 0.073041 0.704598 -0.224806
C38   C     C_R   0.836080 0.573040 0.704598 -0.224804
C39   C     C_R   0.384746 0.099060 0.343377 0.810824
C40   C     C_R   0.384420 0.900280 0.344032 0.813663
C41   C     C_R   0.884746 0.599060 0.343377 0.810822
C42   C     C_R   0.884420 0.400280 0.344032 0.813664
C43   C     C_R   0.402386 0.070891 0.851911 -0.056715
C44   C     C_R   0.902386 0.570890 0.851911 -0.056714
C45   C     C_R   0.472811 0.019112 0.923458 0.084876
C46   C     C_R   0.972810 0.519112 0.923458 0.084875
C47   C     C_R   0.497375 0.994032 0.845023 0.262261
C48   C     C_R   0.997376 0.494032 0.845023 0.262261
C49   C     C_R   0.529146 0.001272 0.072847 -0.182838
C50   C     C_R   0.029146 0.501272 0.072847 -0.182838
C51   C     C_R   0.618547 0.970723 0.143260 -0.076308
C52   C     C_R   0.118548 0.470723 0.143261 -0.076308
C53   C     C_R   0.649138 0.959971 0.068643 -0.110530
C54   C     C_R   0.149138 0.459972 0.068643 -0.110529
C55   C     C_R   0.591039 0.973406 0.924504 -0.206333
C56   C     C_R   0.091039 0.473406 0.924504 -0.206334
C57   C     C_R   0.498544 0.005948 0.152852 0.450026
C58   C     C_R   0.998544 0.505947 0.152852 0.450026
C59   C     C_R   0.658077 0.985723 0.367793 0.442223
C60   C     C_R   0.158077 0.485723 0.367793 0.442213
C61   C     C_R   0.645312 0.312032 0.092401 -0.167946
C62   C     C_R   0.647799 0.684056 0.096656 -0.124373
C63   C     C_R   0.145311 0.812034 0.092399 -0.167945
C64   C     C_R   0.147799 0.184056 0.096655 -0.124379
C65   C     C_R   0.308936 0.849636 0.242804 -0.039679
C66   C     C_R   0.310760 0.149508 0.244321 -0.066373
C67   C     C_R   0.808936 0.349636 0.242805 -0.039680
C68   C     C_R   0.810760 0.649508 0.244321 -0.066368
C69   C     C_R   0.768083 0.162298 0.776851 -0.129428
C70   C     C_R   0.761692 0.837675 0.762220 -0.136154
C71   C     C_R   0.268085 0.662296 0.776854 -0.129413
C72   C     C_R   0.261692 0.337676 0.762221 -0.136165
C73   C     C_R   0.340319 0.707785 0.878553 -0.160382
C74   C     C_R   0.336998 0.296738 0.870118 -0.173560
C75   C     C_R   0.840317 0.207787 0.878549 -0.160381
C76   C     C_R   0.836998 0.796737 0.870117 -0.173559
C77   C     C_R   0.331769 0.747309 0.961600 -0.143610
C78   C     C_R   0.333704 0.261432 0.965018 -0.144422
C79   C     C_R   0.831768 0.247310 0.961598 -0.143607
C80   C     C_R   0.833703 0.761431 0.965016 -0.144426
C81   C     C_R   0.748864 0.242905 0.942542 0.090639
C82   C     C_R   0.751396 0.762581 0.948027 0.104145
C83   C     C_R   0.248865 0.742904 0.942543 0.090640
C84   C     C_R   0.251397 0.262582 0.948028 0.104144
C85   C     C_R   0.670408 0.203165 0.826084 0.074764
C86   C     C_R   0.671552 0.799350 0.829759 0.062802
C87   C     C_R   0.170409 0.703165 0.826084 0.074762
C88   C     C_R   0.171552 0.299351 0.829759 0.062803
Cu1   Cu    Cu3+1 0.526340 0.000000 0.421010 1.082630
Cu2   Cu    Cu3+1 0.026340 0.500000 0.421010 1.082630
Cu3   Cu    Cu3+1 0.473640 0.000000 0.578990 0.930168
Cu4   Cu    Cu3+1 0.973640 0.500000 0.578990 0.930169
H1    H     H_    0.300590 0.036355 0.514572 0.129732
H2    H     H_    0.800590 0.536355 0.514572 0.129732
H3    H     H_    0.625761 0.974415 0.883643 0.198453
H4    H     H_    0.125761 0.474415 0.883643 0.198454
H5    H     H_    0.506306 0.246845 0.850219 0.143991
H6    H     H_    0.509040 0.749191 0.857051 0.144856
H7    H     H_    0.006305 0.746846 0.850216 0.143992
H8    H     H_    0.009040 0.249190 0.857050 0.144855
H9    H     H_    0.578385 0.312761 0.068023 0.130972
H10   H     H_    0.580785 0.680386 0.071944 0.126109
H11   H     H_    0.078384 0.812763 0.068020 0.130973
H12   H     H_    0.080784 0.180386 0.071943 0.126110
H13   H     H_    0.388510 0.809470 0.193844 0.135591
H14   H     H_    0.392086 0.197258 0.201137 0.151766
H15   H     H_    0.888509 0.309470 0.193843 0.135592
H16   H     H_    0.892087 0.697258 0.201137 0.151767
H17   H     H_    0.405200 0.710199 0.897254 0.136426
H18   H     H_    0.399694 0.294193 0.883120 0.139032
H19   H     H_    0.905198 0.210202 0.897248 0.136424
H20   H     H_    0.899693 0.794192 0.883118 0.139033
N1    N     N_R   0.566260 1.000000 0.302220 -0.305702
N2    N     N_R   0.066260 0.500000 0.302220 -0.305701
N3    N     N_R   0.434410 0.000000 0.697680 -0.212610
N4    N     N_R   0.934410 0.500000 0.697680 -0.212610
O1    O     O_R   0.608610 0.924520 0.551740 -0.539318
O2    O     O_R   0.608610 0.075480 0.551740 -0.484340
O3    O     O_R   0.108610 0.424520 0.551740 -0.539317
O4    O     O_R   0.108610 0.575480 0.551740 -0.484336
O5    O     O_R   0.564110 0.924510 0.685150 -0.609997
O6    O     O_R   0.564110 0.075490 0.685150 -0.602889
O7    O     O_R   0.064110 0.424510 0.685150 -0.609997
O8    O     O_R   0.064110 0.575490 0.685150 -0.602890
O9    O     O_R   0.435880 0.075470 0.314850 -0.499885
O10   O     O_R   0.435880 0.924530 0.314850 -0.520083
O11   O     O_R   0.935880 0.575470 0.314850 -0.499886
O12   O     O_R   0.935880 0.424530 0.314850 -0.520083
O13   O     O_R   0.391380 0.075460 0.448260 -0.618714
O14   O     O_R   0.391380 0.924540 0.448260 -0.596788
O15   O     O_R   0.891380 0.575460 0.448260 -0.618713
O16   O     O_R   0.891380 0.424540 0.448260 -0.596788
H21   H     H_    0.213270 0.879035 0.274018 0.154200
H22   H     H_    0.214700 0.113321 0.273693 0.144853
H23   H     H_    0.713271 0.379033 0.274020 0.154201
H24   H     H_    0.714700 0.613322 0.273694 0.144851
H25   H     H_    0.720542 0.944129 0.122113 0.213312
H26   H     H_    0.220542 0.444129 0.122113 0.213314
S1    S     S_3+6 0.778670 0.900598 0.375041 0.021074
O17   O     O_2   0.857003 0.939748 0.394661 -0.252351
O18   O     O_2   0.812817 0.876595 0.516896 -0.280880
O19   O     O_3   0.747192 0.828941 0.273555 -0.561334
H27   H     H_    0.805966 0.801508 0.324612 0.370322
S2    S     S_3+6 0.278670 0.400599 0.375041 0.021072
O20   O     O_2   0.357003 0.439748 0.394659 -0.252344
O21   O     O_2   0.312818 0.376596 0.516897 -0.280894
O22   O     O_3   0.247192 0.328941 0.273557 -0.561331
H28   H     H_    0.305962 0.301501 0.324625 0.370322
S3    S     S_3+6 0.371367 0.015720 0.049714 0.020456
O23   O     O_2   0.349528 0.093303 0.022923 -0.364026
O24   O     O_2   0.319526 0.978506 0.910417 -0.293033
O25   O     O_3   0.316818 0.986784 0.106642 -0.505409
H29   H     H_    0.250078 0.001031 0.032542 0.368803
S4    S     S_3+6 0.871367 0.515720 0.049714 0.020455
O26   O     O_2   0.849528 0.593303 0.022922 -0.364025
O27   O     O_2   0.819526 0.478505 0.910417 -0.293034
O28   O     O_3   0.816818 0.486784 0.106642 -0.505409
H30   H     H_    0.750078 0.501030 0.032541 0.368803
H31   H     H_    0.401061 0.111983 0.908411 0.187123
H32   H     H_    0.901060 0.611983 0.908411 0.187123
H33   H     H_    0.277380 0.109166 0.649933 0.162385
H34   H     H_    0.777380 0.609166 0.649932 0.162385
H35   H     H_    0.782093 0.127745 0.726222 0.235048
H36   H     H_    0.768531 0.867527 0.694950 0.221274
H37   H     H_    0.282095 0.627742 0.726227 0.235064
H38   H     H_    0.268531 0.367527 0.694950 0.221261
H39   H     H_    0.391122 0.781281 0.038614 0.143221
H40   H     H_    0.395796 0.232032 0.047550 0.150550
H41   H     H_    0.891120 0.281282 0.038611 0.143221
H42   H     H_    0.895796 0.732031 0.047548 0.150551
H43   H     H_    0.518149 0.187377 0.694441 0.174546
H44   H     H_    0.519269 0.810863 0.698860 0.176487
H45   H     H_    0.018149 0.687378 0.694439 0.174546
H46   H     H_    0.019268 0.310862 0.698860 0.176486
S5    S     S_3+6 0.749496 0.033354 0.521798 0.037600
O29   O     O_2   0.840702 0.030529 0.550975 -0.237903
O30   O     O_2   0.719738 0.109596 0.494186 -0.319215
O31   O     O_3   0.767198 0.001685 0.663736 -0.567212
H47   H     H_    0.836447 0.003105 0.743050 0.350633
S6    S     S_3+6 0.249496 0.533354 0.521800 0.037599
O32   O     O_2   0.340704 0.530527 0.550980 -0.237908
O33   O     O_2   0.219740 0.609596 0.494188 -0.319207
O34   O     O_3   0.267195 0.501685 0.663736 -0.567217
H48   H     H_    0.336446 0.503079 0.743040 0.350638

loop_
_geom_bond_atom_site_label_1
_geom_bond_atom_site_label_2
_ccdc_geom_bond_type
C83   C87   A    
O28   H30   S    
C39   O9    A    
C14   C18   A    
C59   S5    S    
C60   N2    A    
O22   H28   S    
C80   H42   S    
C78   H40   S    
O31   H47   S    
C2    O2    A    
C32   C72   A    
Cu3   O14   S    
Cu1   O9    S    
C1    C30   S    
C47   N3    A    
C4    O8    A    
C18   C86   A    
C2    C29   S    
C9    C61   A    
C37   H33   S    
C42   O12   A    
C28   C68   A    
C5    C11   A    
C19   C87   A    
S3    O24   D    
C6    C12   A    
C12   C64   A    
S1    O19   S    
C77   C83   A    
C6    C22   A    
C49   C57   A    
S5    O30   D    
C7    C9    A    
C25   C63   A    
C45   C47   A    
C23   C67   A    
C29   C69   A    
C26   C64   A    
C22   C66   A    
C9    C13   A    
C34   C52   A    
C27   C61   A    
C11   C15   A    
C20   H46   S    
C12   C16   A    
C44   C46   A    
C49   C51   A    
Cu3   O6    S    
C57   S3    S    
C50   C52   A    
Cu2   O11   S    
C35   N3    A    
C24   H16   S    
C30   C86   A    
C25   H21   S    
C29   C85   A    
S6    O34   S    
C76   H20   S    
C48   N4    A    
C21   C65   A    
C52   C54   A    
C35   H1    S    
C23   H15   S    
S4    O27   D    
C33   C59   A    
C34   C60   A    
C75   H19   S    
C10   C62   A    
S2    O22   S    
C17   C85   A    
C30   C70   A    
C3    O7    A    
C14   H6    S    
S5    O31   S    
C46   C48   A    
Cu1   O10   S    
C2    O6    A    
C54   C56   A    
C31   C87   A    
C28   C62   A    
C26   C66   A    
C69   H35   S    
Cu4   O15   S    
C6    C84   A    
S4    O28   S    
C72   C74   A    
C10   C14   A    
S3    O25   S    
C41   O15   A    
C16   H8    S    
C57   N1    A    
C39   O13   A    
C22   H14   S    
C38   H34   S    
C61   H9    S    
C51   C53   A    
C50   C58   A    
C37   C43   A    
C15   C19   A    
O34   H48   S    
C19   H45   S    
C38   C44   A    
C26   H22   S    
C78   C84   A    
S2    O21   D    
C43   C45   A    
Cu2   Cu4   S    
S5    O29   D    
Cu1   N1    S    
C45   C49   A    
C16   C20   A    
C40   O10   A    
C17   H43   S    
C25   C65   A    
C13   H5    S    
C1    O1    A    
O25   H29   S    
C33   C51   A    
Cu4   N4    S    
S4    O26   D    
C3    O3    A    
C63   H11   S    
C7    C81   A    
Cu1   O1    S    
C40   C65   S    
C70   C76   A    
C42   C67   S    
C44   H32   S    
C39   C66   S    
C53   H25   S    
Cu4   O7    S    
Cu1   Cu3   S    
C53   C55   A    
C41   O11   A    
C36   N4    A    
S6    O32   D    
C47   C55   A    
C48   C56   A    
C40   O14   A    
C41   C68   S    
C71   H37   S    
C73   C77   A    
S6    O33   D    
C35   C37   A    
C28   H24   S    
C72   H38   S    
C64   H12   S    
C60   S6    S    
C76   C80   A    
C15   H7    S    
C59   N1    A    
C70   H36   S    
C74   H18   S    
S1    O17   D    
C79   C81   A    
C5    C83   A    
C73   H17   S    
Cu3   O13   S    
C18   H44   S    
C77   H39   S    
Cu4   O16   S    
C46   C50   A    
C43   H31   S    
C13   C17   A    
S2    O20   D    
C27   H23   S    
Cu2   O3    S    
C79   H41   S    
Cu4   O8    S    
C82   C86   A    
S3    O23   D    
C34   S2    S    
S1    O18   D    
C54   H26   S    
C84   C88   A    
C33   S1    S    
C7    C23   A    
C20   C88   A    
C36   C38   A    
C55   H3    S    
C8    C24   A    
C80   C82   A    
Cu3   N3    S    
C69   C75   A    
Cu3   O5    S    
Cu2   N2    S    
C56   H4    S    
C3    C32   S    
C1    O5    A    
C4    C31   S    
C27   C67   A    
C24   C68   A    
C36   H2    S    
C8    C82   A    
C5    C21   A    
Cu1   O2    S    
C8    C10   A    
C74   C78   A    
C71   C73   A    
C58   N2    A    
Cu2   O12   S    
O19   H27   S    
C4    O4    A    
C42   O16   A    
C58   S4    S    
C11   C63   A    
C75   C79   A    
C81   C85   A    
C21   H13   S    
Cu2   O4    S    
C31   C71   A    
C62   H10   S    
C32   C88   A    
