data_str_m12_o9_o13_f0_bcu.sym.17
_audit_creation_date              2013-03-05T15:57:56-0500
_audit_creation_method            fapswitch 2.2
_symmetry_space_group_name_H-M    P1
_symmetry_Int_Tables_number       1
_space_group_crystal_system       triclinic
_cell_length_a                    15.029226
_cell_length_b                    15.117224
_cell_length_c                    17.110374
_cell_angle_alpha                 108.827929
_cell_angle_beta                  106.20023
_cell_angle_gamma                 109.493107
_cell_volume                      3125.89822022

loop_
_atom_site_label
_atom_site_type_symbol
_atom_site_description
_atom_site_fract_x
_atom_site_fract_y
_atom_site_fract_z
_atom_type_partial_charge
C1    C     C_R   0.084853 0.292778 0.083348 -0.120201
C2    C     C_R   0.910204 0.724136 0.969424 -0.076009
H1    H     H_    0.162052 0.325121 0.137221 0.092372
H2    H     H_    0.829839 0.707881 0.936834 0.089052
N1    N     N_R   0.055660 0.348550 0.045620 -0.045475
N2    N     N_R   0.944340 0.651450 0.954380 -0.041277
C3    C     C_R   0.934729 0.527946 0.753193 0.020216
C4    C     C_R   0.059928 0.536886 0.265552 0.061899
N3    N     N_R   0.960830 0.507850 0.823700 -0.052092
N4    N     N_R   0.039170 0.492150 0.176300 -0.061410
C5    C     C_R   0.777200 0.202935 0.812671 -0.063479
C6    C     C_R   0.280586 0.785334 0.176941 -0.130056
H3    H     H_    0.767544 0.139622 0.830933 0.089148
H4    H     H_    0.311148 0.837996 0.150032 0.112673
N5    N     N_R   0.811290 0.303410 0.871650 -0.044581
N6    N     N_R   0.188710 0.696590 0.128350 -0.046752
C7    C     C_R   0.260413 0.534034 0.950825 -0.069868
C8    C     C_R   0.697976 0.400879 0.992319 -0.122256
H5    H     H_    0.283323 0.573417 0.911776 0.097295
H6    H     H_    0.668990 0.337938 0.010103 0.102343
N7    N     N_R   0.205200 0.552990 0.997670 -0.042375
N8    N     N_R   0.794800 0.447010 0.002330 -0.049407
C9    C     C_R   0.783433 0.298130 0.735835 -0.089186
C10   C     C_R   0.275321 0.689477 0.251340 -0.136768
H7    H     H_    0.780075 0.323692 0.683686 0.088109
H8    H     H_    0.302167 0.651471 0.289040 0.085647
N9    N     N_R   0.814800 0.361830 0.823700 -0.042567
N10   N     N_R   0.185200 0.638170 0.176300 -0.046752
C11   C     C_R   0.242598 0.431746 0.021235 -0.129880
C12   C     C_R   0.704230 0.500234 0.920540 -0.124005
H9    H     H_    0.242483 0.372313 0.042842 0.122232
H10   H     H_    0.682869 0.534152 0.876294 0.098620
N11   N     N_R   0.201680 0.494570 0.045620 -0.042795
N12   N     N_R   0.798320 0.505430 0.954380 -0.043663
C13   C     C_R   0.108699 0.604019 0.824656 -0.133080
C14   C     C_R   0.886870 0.459560 0.183618 -0.101195
H11   H     H_    0.190823 0.656101 0.850250 0.115894
H12   H     H_    0.804527 0.435156 0.159999 0.111546
N13   N     N_R   0.068420 0.560530 0.871650 -0.056132
N14   N     N_R   0.931580 0.439470 0.128350 -0.051972
C15   C     C_R   0.912738 0.204682 0.001946 -0.135468
C16   C     C_R   0.083531 0.804858 0.053547 -0.117743
H13   H     H_    0.830786 0.152041 0.975458 0.108906
H14   H     H_    0.162386 0.859487 0.103995 0.117607
N15   N     N_R   0.948070 0.295860 0.997670 -0.045672
N16   N     N_R   0.051930 0.704140 0.002330 -0.040244
C17   C     C_R   0.996968 0.201061 0.057074 0.083826
C18   C     C_R   0.997943 0.822529 0.031614 0.062835
C19   C     C_R   0.026414 0.585430 0.749307 0.085511
C20   C     C_R   0.964636 0.518923 0.271678 0.087767
C21   C     C_R   0.761090 0.197416 0.726736 0.073459
C22   C     C_R   0.336691 0.783359 0.255111 0.090100
C23   C     C_R   0.286041 0.458943 0.966597 0.050056
C24   C     C_R   0.639595 0.433490 0.942621 0.081485
C25   C     C_R   0.911571 0.935336 0.053712 -0.197113
C26   C     C_R   0.093486 0.112849 0.103617 -0.161679
H15   H     H_    0.841584 0.867302 0.037703 0.132725
H16   H     H_    0.165009 0.179449 0.120621 0.105648
H17   H     H_    0.721333 0.896348 0.915150 0.132653
H18   H     H_    0.280661 0.111132 0.236660 0.148285
C27   C     C_R   0.003334 0.927324 0.060297 0.076316
C28   C     C_R   0.998279 0.115728 0.079816 0.104016
C29   C     C_R   0.096765 0.019277 0.088644 0.095249
C30   C     C_R   0.907257 0.028764 0.062336 0.102615
C31   C     C_R   0.717261 0.956772 0.967197 -0.206004
C32   C     C_R   0.284887 0.072735 0.173292 -0.214650
Ni1   Ni    Ni4+2 0.119340 0.493420 0.109960 0.212898
Ni2   Ni    Ni4+2 0.880660 0.506580 0.890040 0.230019
Ni3   Ni    Ni4+2 0.872590 0.372590 0.000000 0.229523
Ni4   Ni    Ni4+2 0.127410 0.627410 0.000000 0.235361
C33   C     C_R   0.617134 0.041628 0.013459 -0.144138
C34   C     C_R   0.384991 0.022019 0.095704 -0.176716
C35   C     C_R   0.474769 0.573524 0.262072 -0.287083
C36   C     C_R   0.512771 0.332737 0.648110 -0.276226
H19   H     H_    0.501194 0.653513 0.311559 0.163214
H20   H     H_    0.521462 0.268609 0.605280 0.163130
C37   C     C_R   0.477225 0.554272 0.176926 0.359411
C38   C     C_R   0.487701 0.327577 0.720237 0.352270
C39   C     C_R   0.442168 0.449108 0.112302 -0.091367
C40   C     C_R   0.477220 0.412230 0.776757 -0.095061
C41   C     C_R   0.411914 0.366634 0.136472 -0.024385
C42   C     C_R   0.489152 0.498967 0.757790 -0.003324
C43   C     C_R   0.410784 0.387984 0.222097 -0.204195
C44   C     C_R   0.511702 0.500560 0.683778 -0.163899
H21   H     H_    0.385608 0.324090 0.239694 0.133478
H22   H     H_    0.521261 0.566816 0.669082 0.120557
C45   C     C_R   0.440625 0.490772 0.284597 0.071288
C46   C     C_R   0.524676 0.418708 0.629556 0.072076
C47   C     C_R   0.515433 0.407800 0.005137 -0.151864
C48   C     C_R   0.376166 0.423473 0.869959 -0.178253
H23   H     H_    0.571383 0.407273 0.060795 0.113606
H24   H     H_    0.320146 0.427492 0.817082 0.135661
C49   C     C_R   0.534695 0.412454 0.931159 0.086351
C50   C     C_R   0.365342 0.432730 0.950521 0.064423
C51   C     C_R   0.462429 0.415060 0.859884 0.114740
C52   C     C_R   0.435839 0.424015 0.018742 0.121427
C53   C     C_R   0.623288 0.962153 0.949102 -0.075895
C54   C     C_R   0.378793 0.073157 0.176456 -0.133754
C55   C     C_R   0.946543 0.546261 0.354031 0.115430
C56   C     C_R   0.030372 0.615626 0.676430 0.138276
C57   C     C_R   0.117973 0.702835 0.602484 -0.262218
C58   C     C_R   0.847079 0.497726 0.435935 -0.261211
C59   C     C_R   0.120386 0.692697 0.681679 0.099856
C60   C     C_R   0.851213 0.484319 0.353544 0.090274
C61   C     C_R   0.939958 0.554971 0.593986 -0.324504
C62   C     C_R   0.029922 0.629416 0.437091 -0.279031
C63   C     C_R   0.937175 0.565926 0.517215 0.195641
C64   C     C_R   0.027873 0.636120 0.519388 0.176908
H25   H     H_    0.099959 0.682518 0.438110 0.138165
H26   H     H_    0.873219 0.489808 0.585342 0.126693
H27   H     H_    0.188108 0.758129 0.604972 0.140817
H28   H     H_    0.776073 0.446525 0.435517 0.122037
C65   C     C_R   0.719408 0.102059 0.640719 0.128784
C66   C     C_R   0.444863 0.858699 0.323776 0.188166
C67   C     C_R   0.592947 0.032955 0.396568 -0.212247
C68   C     C_R   0.611693 0.912715 0.554642 -0.206928
C69   C     C_R   0.500823 0.951954 0.320935 -0.119611
C70   C     C_R   0.680998 0.002042 0.637724 -0.126922
C71   C     C_R   0.488902 0.842380 0.398368 -0.264433
C72   C     C_R   0.702130 0.109630 0.558659 -0.254807
C73   C     C_R   0.578601 0.923804 0.475070 0.185319
C74   C     C_R   0.627987 0.021677 0.475909 0.187994
H29   H     H_    0.555491 0.905419 0.884512 0.111938
H30   H     H_    0.446657 0.112609 0.241698 0.118949
H31   H     H_    0.735981 0.185242 0.559133 0.114796
H32   H     H_    0.448831 0.770854 0.402017 0.100008
H33   H     H_    0.696918 0.992841 0.699440 0.116232
H34   H     H_    0.470859 0.965253 0.263012 0.113887
H35   H     H_    0.631320 0.107181 0.395735 0.126757
H36   H     H_    0.576221 0.837126 0.554188 0.122671
H37   H     H_    0.544526 0.046441 0.998647 0.126527
H38   H     H_    0.457555 0.021273 0.098675 0.139022
C75   C     C_R   0.704213 0.114572 0.097067 -0.235074
C76   C     C_R   0.298182 0.973002 0.011182 -0.229034
H39   H     H_    0.696822 0.174110 0.146614 0.144849
H40   H     H_    0.305166 0.935699 0.949190 0.146924
C77   C     C_R   0.799329 0.109687 0.117271 0.377024
C78   C     C_R   0.203797 0.974221 0.006581 0.378114
C79   C     C_R   0.806578 0.031177 0.050194 -0.054864
C80   C     C_R   0.196174 0.021357 0.088975 -0.082538
N17   N     N_3   0.437517 0.510048 0.371347 -0.204590
H41   H     H_    0.464089 0.590593 0.411063 0.094619
H42   H     H_    0.359004 0.471519 0.358445 0.109010
N18   N     N_3   0.548574 0.423541 0.554987 -0.204057
H43   H     H_    0.555145 0.356645 0.520591 0.096680
H44   H     H_    0.622213 0.488420 0.582928 0.101315
N19   N     N_R   0.515539 0.641725 0.157369 0.235952
O1    O     O_R   0.568737 0.642532 0.109020 -0.412587
O2    O     O_R   0.507102 0.726122 0.195919 -0.414916
N20   N     N_R   0.472652 0.235930 0.734652 0.232305
O3    O     O_R   0.401281 0.197916 0.760488 -0.396035
O4    O     O_R   0.522011 0.183075 0.712092 -0.418231
N21   N     N_3   0.378850 0.260493 0.072428 -0.197457
H45   H     H_    0.302192 0.213680 0.059748 0.129524
H46   H     H_    0.426888 0.233341 0.103232 0.127937
N22   N     N_3   0.482370 0.587038 0.816140 -0.207501
H47   H     H_    0.547243 0.625539 0.879718 0.131842
H48   H     H_    0.488210 0.641871 0.790555 0.097172
N23   N     N_3   0.760858 0.401816 0.271356 -0.220969
H49   H     H_    0.741404 0.331151 0.276031 0.135233
H50   H     H_    0.698417 0.419127 0.267516 0.097353
N24   N     N_3   0.214759 0.757929 0.764926 -0.206917
H51   H     H_    0.273882 0.742182 0.753431 0.080534
H52   H     H_    0.235949 0.836762 0.779679 0.155852
N25   N     N_3   0.840696 0.537896 0.724475 -0.211114
H53   H     H_    0.854846 0.603944 0.712802 0.143252
H54   H     H_    0.783097 0.470043 0.664363 0.068175
N26   N     N_3   0.154351 0.563135 0.338412 -0.201626
H55   H     H_    0.202895 0.644239 0.367936 0.086974
H56   H     H_    0.191723 0.523018 0.311096 0.107049
N27   N     N_R   0.886510 0.183542 0.205424 0.226614
O5    O     O_R   0.950653 0.154821 0.245630 -0.392840
O6    O     O_R   0.895547 0.276186 0.250471 -0.429978
N28   N     N_R   0.116483 0.926514 0.918903 0.228967
O7    O     O_R   0.058149 0.971622 0.903041 -0.408904
O8    O     O_R   0.097573 0.839865 0.852966 -0.434846

loop_
_geom_bond_atom_site_label_1
_geom_bond_atom_site_label_2
_geom_bond_distance
_ccdc_geom_bond_type
C10   C22   1.379551 A    
C43   C45   1.397858 A    
C61   H26   1.078014 S    
C46   N18   1.435482 S    
C75   C77   1.407004 A    
N25   H53   1.045346 S    
C4    C20   1.406559 A    
C15   H13   1.075777 S    
C29   C80   1.482213 S    
C58   H28   1.085771 S    
N19   O1    1.301084 A    
N1    Ni1   1.838815 S    
C17   C28   1.467176 S    
C48   C51   1.395460 A    
C34   C54   1.394929 A    
N4    Ni1   1.871462 S    
C54   H30   1.082185 S    
N27   O6    1.300722 A    
C38   N20   1.440155 S    
C56   C61   1.393258 A    
C21   C65   1.466299 S    
C36   H20   1.083187 S    
C1    N1    1.326720 A    
N22   H47   1.045732 S    
N19   O2    1.300151 A    
C10   H8    1.075967 S    
N17   H42   1.045616 S    
C58   C60   1.380268 A    
C38   C40   1.420716 A    
N7    N11   1.384409 A    
C11   N11   1.315832 A    
N3    N13   1.378626 A    
C41   N21   1.432287 S    
N4    N14   1.378627 A    
C16   N16   1.317455 A    
C27   C29   1.421760 A    
N28   O7    1.301126 A    
C35   C45   1.403554 A    
C24   C49   1.441451 S    
C28   C30   1.416618 A    
N9    Ni2   1.838704 S    
C4    N26   1.429400 S    
C41   C43   1.401153 A    
C5    N5    1.338182 A    
N22   H48   1.045730 S    
C9    C21   1.389847 A    
C6    N6    1.341967 A    
C68   C70   1.387564 A    
C67   C69   1.391775 A    
C13   C19   1.383871 A    
C63   C64   1.402289 A    
N23   H50   1.045983 S    
C48   C50   1.400715 A    
C20   C55   1.463975 S    
C9    N9    1.332999 A    
C47   H23   1.084717 S    
C37   N19   1.440959 S    
N8    Ni3   1.873228 S    
C8    H6    1.082548 S    
C66   C71   1.403102 A    
C42   N22   1.438454 S    
C61   C63   1.367118 A    
C57   C64   1.400374 A    
N26   H56   1.045270 S    
C55   C60   1.422179 A    
C3    N25   1.436460 S    
H18   C32   1.083215 S    
N25   H54   1.043567 S    
C67   C74   1.399918 A    
C35   H19   1.080688 S    
C2    N2    1.343207 A    
C16   H14   1.071221 S    
N8    N12   1.384411 A    
C6    C22   1.383521 A    
C72   C74   1.389242 A    
C34   H38   1.081528 S    
N24   H52   1.045492 S    
C37   C39   1.417374 A    
N5    N9    1.384412 A    
N5    Ni3   1.873769 S    
C77   N27   1.439565 S    
C68   C73   1.397957 A    
C12   N12   1.334441 A    
N15   Ni3   1.872833 S    
C44   C46   1.396738 A    
C14   N14   1.320391 A    
N10   Ni1   1.838705 S    
N6    Ni4   1.873768 S    
C3    C19   1.395564 A    
C40   C42   1.416685 A    
N14   Ni3   1.874395 S    
N12   Ni2   1.871321 S    
C39   C41   1.411241 A    
C72   H31   1.081222 S    
C1    C17   1.383199 A    
C76   H40   1.081508 S    
C2    C18   1.403575 A    
N1    N15   1.378625 A    
C56   C59   1.417185 A    
C7    N7    1.339669 A    
C1    H1    1.081034 S    
C13   N13   1.338820 A    
C78   N28   1.436777 S    
C65   C72   1.404314 A    
C12   C24   1.378820 A    
C48   H24   1.084292 S    
N23   H49   1.045384 S    
C25   C30   1.397380 A    
C15   C17   1.381503 A    
C26   C29   1.374286 A    
C68   H36   1.084155 S    
C58   C63   1.386592 A    
C16   C18   1.375328 A    
C45   N17   1.434884 S    
C34   C76   1.397502 A    
C50   C52   1.415903 A    
C22   C66   1.468103 S    
C77   C79   1.419365 A    
N27   O5    1.301221 A    
C73   C74   1.409844 A    
C71   C73   1.384748 A    
C78   C80   1.415830 A    
C53   H29   1.082503 S    
N18   H44   1.045494 S    
N26   H55   1.043213 S    
C43   H21   1.083596 S    
C6    H4    1.080418 S    
C62   H25   1.081438 S    
C42   C44   1.404588 A    
C25   H15   1.083794 S    
N20   O4    1.301537 A    
N21   H46   1.045282 S    
C70   H33   1.080613 S    
C60   N23   1.431507 S    
C7    C23   1.393313 A    
C14   C20   1.373395 A    
N11   Ni1   1.871319 S    
N24   H51   1.045652 S    
C67   H35   1.083936 S    
C3    N3    1.324229 A    
C55   C62   1.404324 A    
C59   N24   1.430269 S    
C15   N15   1.336224 A    
N2    N16   1.378626 A    
C13   H11   1.078128 S    
C23   C50   1.442540 S    
C8    N8    1.319002 A    
C4    N4    1.346689 A    
C10   N10   1.330561 A    
C44   H22   1.083399 S    
N18   H43   1.045823 S    
C33   C75   1.396153 A    
C40   C51   1.489224 S    
C76   C78   1.405303 A    
C57   H27   1.084233 S    
N20   O3    1.301309 A    
N7    Ni4   1.873228 S    
C32   C54   1.394985 A    
C47   C52   1.363636 A    
C14   H12   1.072814 S    
N3    Ni2   1.871460 S    
C31   C53   1.395040 A    
C39   C52   1.488184 S    
C11   H9    1.075934 S    
N17   H41   1.045874 S    
H17   C31   1.083445 S    
C19   C56   1.468840 S    
C12   H10   1.078855 S    
C5    H3    1.077216 S    
C18   C27   1.465427 S    
C49   C51   1.410280 A    
C62   C64   1.388602 A    
C2    H2    1.080663 S    
C25   C27   1.401059 A    
N2    Ni2   1.838814 S    
C7    H5    1.080630 S    
N13   Ni4   1.874397 S    
C26   H16   1.080713 S    
C26   C28   1.393931 A    
C9    H7    1.076341 S    
C47   C49   1.392606 A    
C69   H34   1.079569 S    
N28   O8    1.299311 A    
N16   Ni4   1.872835 S    
C66   C69   1.404593 A    
C5    C21   1.391512 A    
C8    C24   1.370752 A    
C33   H37   1.082091 S    
C65   C70   1.404613 A    
C31   C79   1.407638 A    
C71   H32   1.079683 S    
C32   C80   1.405212 A    
C57   C59   1.404035 A    
C36   C38   1.404663 A    
C75   H39   1.080703 S    
C35   C37   1.404303 A    
N6    N10   1.384412 A    
C36   C46   1.401674 A    
N21   H45   1.045245 S    
C33   C53   1.393421 A    
C11   C23   1.370720 A    
C30   C79   1.483364 S    
