data_str_m4_o1_o1_f0_acs.sym.2
_audit_creation_date              2012-12-11T14:49:44-0500
_audit_creation_method            fapswitch 2.2
_symmetry_space_group_name_H-M    P1
_symmetry_Int_Tables_number       1
_space_group_crystal_system       triclinic
_cell_length_a                    10.922665
_cell_length_b                    10.916761
_cell_length_c                    18.910155
_cell_angle_alpha                 89.964508
_cell_angle_beta                  90.048807
_cell_angle_gamma                 119.992583
_cell_volume                      1952.90187329

loop_
_atom_site_label
_atom_site_type_symbol
_atom_type_description
_atom_site_fract_x
_atom_site_fract_y
_atom_site_fract_z
_atom_type_partial_charge
C1    C     C_R   0.530579 0.463913 0.644698 0.573019
C2    C     C_R   0.468997 0.528964 0.353376 0.565765
C3    C     C_R   0.469072 0.932617 0.144509 0.573901
C4    C     C_R   0.059888 0.530646 0.353417 0.550007
C5    C     C_R   0.379886 0.988787 0.538298 0.081986
C6    C     C_R   0.632201 0.608292 0.964461 0.092629
C7    C     C_R   0.008319 0.389196 0.538505 0.120854
C8    C     C_R   0.391485 0.023529 0.964291 0.092695
C9    C     C_R   0.608610 0.620343 0.538484 0.081155
C10   C     C_R   0.976340 0.367802 0.964421 0.092752
C11   C     C_R   0.988038 0.379766 0.038475 0.081655
C12   C     C_R   0.940285 0.471031 0.853316 0.566147
C13   C     C_R   0.608667 0.631757 0.464399 0.091563
C14   C     C_R   0.391643 0.011765 0.038345 0.081313
C15   C     C_R   0.018931 0.387690 0.464853 0.088166
C16   C     C_R   0.620176 0.608123 0.038508 0.081215
C17   C     C_R   0.368162 0.977182 0.464218 0.093002
C18   C     C_R   0.487567 0.001883 0.423534 0.046674
C19   C     C_R   0.487692 0.521452 0.069770 0.051794
C20   C     C_R   0.997571 0.484779 0.423579 0.019118
C21   C     C_R   0.478398 0.966078 0.069731 0.052238
C22   C     C_R   0.513041 0.512467 0.423846 0.045951
C23   C     C_R   0.536354 0.067220 0.644545 0.573598
C24   C     C_R   0.033716 0.512279 0.069761 0.051603
C25   C     C_R   0.002023 0.487442 0.923538 0.048316
C26   C     C_R   0.520272 0.488514 0.570095 0.051629
C27   C     C_R   0.485541 0.997990 0.923515 0.048373
C28   C     C_R   0.966332 0.478668 0.569901 0.043226
C29   C     C_R   0.512636 0.514427 0.923558 0.048454
C30   C     C_R   0.512026 0.033478 0.569787 0.050360
C31   C     C_R   0.619718 0.057726 0.455470 -0.187741
C32   C     C_R   0.368094 0.441370 0.027455 -0.189382
C33   C     C_R   0.943341 0.562715 0.455434 -0.180421
C34   C     C_R   0.529020 0.469188 0.853332 0.565927
C35   C     C_R   0.558589 0.926592 0.027536 -0.189270
C36   C     C_R   0.434497 0.380743 0.456030 -0.185045
C37   C     C_R   0.073292 0.631974 0.027474 -0.189648
C38   C     C_R   0.059037 0.619944 0.955258 -0.190157
C39   C     C_R   0.437143 0.369171 0.528162 -0.178805
C40   C     C_R   0.561002 0.941010 0.955325 -0.190343
C41   C     C_R   0.929411 0.560920 0.527660 -0.188831
C42   C     C_R   0.380182 0.439036 0.955250 -0.190208
C43   C     C_R   0.631501 0.071902 0.527666 -0.185287
C44   C     C_R   0.932719 0.469196 0.644576 0.569686
C45   C     C_R   0.530832 0.059757 0.853312 0.566120
C46   C     C_R   0.463500 0.530874 0.144520 0.576981
C47   C     C_R   0.471053 0.940224 0.353312 0.565196
C48   C     C_R   0.067283 0.536439 0.144525 0.576484
Cr1   Cr    Cr6+3 0.776430 0.541680 0.750000 1.057945
Cr2   Cr    Cr6+3 0.765250 0.223570 0.750000 1.056631
Cr3   Cr    Cr6+3 0.458320 0.234750 0.750000 1.057697
Cr4   Cr    Cr6+3 0.541680 0.776430 0.250000 1.054894
Cr5   Cr    Cr6+3 0.223570 0.765250 0.250000 1.058565
Cr6   Cr    Cr6+3 0.234750 0.458320 0.250000 1.028288
H1    H     H_    0.713318 0.082504 0.425017 0.145087
H2    H     H_    0.889034 0.624617 0.550391 0.149886
H3    H     H_    0.286532 0.370965 0.924579 0.144928
H4    H     H_    0.735621 0.113719 0.550513 0.155529
H5    H     H_    0.213368 0.012344 0.567053 0.220377
H6    H     H_    0.184250 0.844678 0.573227 0.231522
H7    H     H_    0.841300 0.679433 0.951069 0.236061
H8    H     H_    0.794380 0.805390 0.943440 0.207093
H9    H     H_    0.982086 0.198121 0.566897 0.240434
H10   H     H_    0.150486 0.333901 0.571373 0.243986
H11   H     H_    0.319919 0.161235 0.950657 0.236107
H12   H     H_    0.263682 0.379802 0.050145 0.151246
H13   H     H_    0.194329 0.988252 0.943138 0.207041
H14   H     H_    0.799510 0.785981 0.567126 0.219078
H15   H     H_    0.662122 0.816745 0.573180 0.232471
H16   H     H_    0.838562 0.158566 0.950882 0.236096
H17   H     H_    0.011416 0.205680 0.943477 0.207040
H18   H     H_    0.010649 0.212739 0.067640 0.217317
H19   H     H_    0.843274 0.184335 0.073547 0.231716
H20   H     H_    0.683448 0.841529 0.450288 0.238568
H21   H     H_    0.806906 0.791296 0.443018 0.210052
H22   H     H_    0.202090 0.989204 0.067297 0.216972
H23   H     H_    0.919696 0.632385 0.424895 0.145678
H24   H     H_    0.341078 0.156622 0.073346 0.231998
H25   H     H_    0.984603 0.236696 0.391771 0.243782
H26   H     H_    0.157304 0.340652 0.418010 0.276954
H27   H     H_    0.787193 0.797690 0.067601 0.217002
H28   H     H_    0.815420 0.658533 0.073728 0.231972
H29   H     H_    0.158800 0.840785 0.450456 0.235810
H30   H     H_    0.207377 0.014067 0.442890 0.212333
H31   H     H_    0.620238 0.883831 0.050325 0.151154
H32   H     H_    0.364307 0.287262 0.425773 0.146051
H33   H     H_    0.116050 0.736411 0.050195 0.150899
H34   H     H_    0.084608 0.713647 0.924596 0.144994
H35   H     H_    0.373597 0.265142 0.551042 0.152789
H36   H     H_    0.629196 0.915534 0.924749 0.144877
N1    N     N_3   0.258325 0.951195 0.581747 -0.611051
N2    N     N_3   0.052283 0.287722 0.434347 -0.658061
N3    N     N_3   0.741721 0.691458 0.082164 -0.611823
N4    N     N_3   0.235847 0.938320 0.430576 -0.592699
N5    N     N_3   0.764991 0.700934 0.931075 -0.592298
N6    N     N_3   0.045124 0.304021 0.581612 -0.597350
N7    N     N_3   0.298671 0.063438 0.930772 -0.592206
N8    N     N_3   0.693588 0.741933 0.581820 -0.610456
N9    N     N_3   0.936355 0.235006 0.931006 -0.592420
N10   N     N_3   0.949827 0.258136 0.082108 -0.613026
N11   N     N_3   0.702962 0.763665 0.430623 -0.591612
N12   N     N_3   0.308252 0.049992 0.081880 -0.611855
O1    O     O_R   0.916700 0.566820 0.669930 -0.529586
O2    O     O_R   0.566820 0.916700 0.330070 -0.521276
O3    O     O_R   0.083300 0.650120 0.169930 -0.529984
O4    O     O_R   0.349880 0.433180 0.330070 -0.544113
O5    O     O_R   0.649840 0.534790 0.674920 -0.473467
O6    O     O_R   0.884950 0.350160 0.825080 -0.460301
O7    O     O_R   0.465210 0.115050 0.674920 -0.473315
O8    O     O_R   0.649840 0.534790 0.825080 -0.460441
O9    O     O_R   0.884950 0.350160 0.674920 -0.476308
O10   O     O_R   0.465210 0.115050 0.825080 -0.460310
O11   O     O_R   0.534790 0.649840 0.174920 -0.472900
O12   O     O_R   0.650120 0.083300 0.830070 -0.517534
O13   O     O_R   0.350160 0.884950 0.325080 -0.459358
O14   O     O_R   0.115050 0.465210 0.174920 -0.472071
O15   O     O_R   0.534790 0.649840 0.325080 -0.456398
O16   O     O_R   0.350160 0.884950 0.174920 -0.473861
O17   O     O_R   0.115050 0.465210 0.325080 -0.513451
O18   O     O_3   0.666667 0.333333 0.750000 -0.282342
O19   O     O_3   0.333333 0.666667 0.250000 -0.276225
O20   O     O_R   0.433180 0.349880 0.669930 -0.531377
O21   O     O_R   0.916700 0.566820 0.830070 -0.517520
O22   O     O_R   0.650120 0.083300 0.669930 -0.531610
O23   O     O_R   0.433180 0.349880 0.830070 -0.517787
O24   O     O_R   0.566820 0.916700 0.169930 -0.532380
O25   O     O_R   0.083300 0.650120 0.330070 -0.505566
O26   O     O_R   0.349880 0.433180 0.169930 -0.528998

loop_
_geom_bond_atom_site_label_1
_geom_bond_atom_site_label_2
_ccdc_geom_bond_type
H19   N10   S    
C9    N8    S    
C29   C42   A    
H24   N12   S    
C11   C24   A    
C18   C47   S    
C19   C46   S    
Cr1   O5    S    
Cr4   O11   S    
C47   O13   A    
C7    N6    S    
C16   N3    S    
Cr3   O10   S    
C45   O10   A    
Cr2   O18   S    
C14   C21   A    
C46   O26   A    
C16   C19   A    
C26   C39   A    
C14   N12   S    
Cr1   O18   S    
C5    C17   A    
Cr1   O21   S    
C28   C41   A    
C9    C13   A    
C1    O20   A    
Cr5   O25   S    
C43   H4    S    
C15   N2    S    
C45   O12   A    
C44   O1    A    
Cr6   O14   S    
C2    C22   S    
C4    O17   A    
C46   O11   A    
C48   O14   A    
Cr4   O15   S    
C27   C45   S    
C7    C15   A    
Cr3   O7    S    
H28   N3    S    
H8    N5    S    
Cr2   O6    S    
C19   C32   A    
C42   H3    S    
C2    O15   A    
C9    C26   A    
Cr3   O18   S    
H22   N12   S    
C15   C20   A    
C23   O7    A    
C3    O24   A    
Cr6   O4    S    
C24   C48   S    
C23   C30   S    
Cr2   O22   S    
H10   N6    S    
C24   C37   A    
C12   O6    A    
Cr4   O24   S    
Cr5   O16   S    
H5    N1    S    
C17   N4    S    
C36   H32   S    
H29   N4    S    
Cr6   O26   S    
H9    N6    S    
C28   C44   S    
C7    C28   A    
C38   H34   S    
C11   N10   S    
Cr2   O12   S    
Cr3   O23   S    
H26   N2    S    
C8    N7    S    
C41   H2    S    
C37   C38   A    
C3    O16   A    
C25   C38   A    
H27   N3    S    
Cr4   O19   S    
C48   O3    A    
C27   C40   A    
C17   C18   A    
H30   N4    S    
H25   N2    S    
C5    N1    S    
C31   C43   A    
C1    O5    A    
H20   N11   S    
C31   H1    S    
C20   C33   A    
C10   C25   A    
Cr6   O19   S    
C1    C26   S    
C34   O8    A    
C30   C43   A    
C3    C21   S    
C13   N11   S    
H16   N9    S    
C32   H12   S    
C5    C30   A    
H18   N10   S    
H6    N1    S    
C8    C27   A    
Cr4   O2    S    
C8    C14   A    
C47   O2    A    
C4    O25   A    
C37   H33   S    
C36   C39   A    
Cr1   O1    S    
H7    N5    S    
C23   O22   A    
C21   C35   A    
C22   C36   A    
C12   C25   S    
C33   C41   A    
C35   C40   A    
H11   N7    S    
Cr5   O19   S    
H15   N8    S    
C35   H31   S    
C33   H23   S    
C12   O21   A    
H17   N9    S    
C34   O23   A    
C29   C34   S    
Cr2   O9    S    
C2    O4    A    
C13   C22   A    
C10   N9    S    
H14   N8    S    
C10   C11   A    
H13   N7    S    
C6    C16   A    
C4    C20   S    
C44   O9    A    
Cr5   O3    S    
C6    C29   A    
C6    N5    S    
H21   N11   S    
Cr3   O20   S    
C32   C42   A    
C18   C31   A    
C40   H36   S    
Cr6   O17   S    
C39   H35   S    
Cr5   O13   S    
Cr1   O8    S    
