data_str_m3_o12_o13_f0_pcu.sym.129
_audit_creation_date              2012-12-10T17:15:08-0500
_audit_creation_method            fapswitch 2.2
_symmetry_space_group_name_H-M    P1
_symmetry_Int_Tables_number       1
_space_group_crystal_system       triclinic
_cell_length_a                    10.195475
_cell_length_b                    10.496252
_cell_length_c                    12.843454
_cell_angle_alpha                 91.346616
_cell_angle_beta                  90.898115
_cell_angle_gamma                 94.177326
_cell_volume                      1370.19463014

loop_
_atom_site_label
_atom_site_type_symbol
_atom_type_description
_atom_site_fract_x
_atom_site_fract_y
_atom_site_fract_z
_atom_type_partial_charge
C1    C     C_R   0.446962 0.264920 0.491581 0.947355
C2    C     C_R   0.689176 0.502030 0.034977 0.178332
C3    C     C_R   0.391568 0.642373 0.852537 0.109177
C4    C     C_R   0.667847 0.466878 0.138626 0.129213
C5    C     C_R   0.577570 0.514742 0.870569 -0.291430
C6    C     C_R   0.460209 0.571426 0.131056 -0.311839
C7    C     C_R   0.581273 0.537693 0.976350 0.041519
C8    C     C_R   0.470355 0.583866 0.023929 0.070896
C9    C     C_2   0.425331 0.126220 0.474396 -0.057569
C10   C     C_2   0.580668 0.871159 0.495273 -0.048947
C11   C     C_2   0.515287 0.067331 0.416246 0.141379
C12   C     C_R   0.553640 0.734197 0.504366 0.940205
C13   C     C_2   0.520000 0.928775 0.415677 0.156427
C14   C     C_3   0.759607 0.373313 0.184036 -0.390027
C15   C     C_3   0.736011 0.241925 0.129403 -0.892778
C16   C     C_3   0.345183 0.750724 0.787886 -0.407590
C17   C     C_3   0.407291 0.881276 0.825591 -0.871370
C18   C     C_3   0.255124 0.697788 0.009538 -0.389552
C19   C     C_3   0.289264 0.819314 0.075940 -0.891169
C20   C     C_3   0.828203 0.534522 0.995176 -0.408904
C21   C     C_3   0.895749 0.423143 0.945698 -0.906395
C22   C     C_3   0.457279 0.856887 0.321992 -0.912581
C23   C     C_2   0.073187 0.545568 0.530861 0.220363
C24   C     C_3   0.612217 0.137629 0.346925 -0.901758
C25   C     C_3   0.664897 0.947814 0.577178 -0.476083
C26   C     C_3   0.712373 0.871766 0.669086 -0.866253
C27   C     C_3   0.313544 0.048294 0.526802 -0.451145
C28   C     C_3   0.225018 0.125496 0.595177 -0.872267
C29   C     C_3   0.889409 0.644267 0.437707 -0.801825
C30   C     C_3   0.110405 0.597780 0.636887 -0.911284
C31   C     C_3   0.881235 0.373265 0.628215 -0.256544
C32   C     C_3   0.790153 0.254757 0.642961 -0.825836
C33   C     C_3   0.123965 0.478220 0.360882 -0.158006
C34   C     C_2   0.926307 0.536120 0.505407 0.225539
C35   C     C_3   0.129273 0.562901 0.266262 -0.927586
C36   C     C_R   0.478204 0.518437 0.698325 0.871680
C37   C     C_R   0.527101 0.494706 0.300146 0.862678
C38   C     C_R   0.551913 0.506179 0.188215 -0.154232
C39   C     C_R   0.475768 0.554971 0.808882 -0.155353
C40   C     C_R   0.375116 0.642233 0.961983 0.176474
H1    H     H_    0.378630 0.609245 0.170325 0.206855
H2    H     H_    0.510966 0.874982 0.851571 0.263678
H3    H     H_    0.375308 0.740054 0.705928 0.216154
H4    H     H_    0.236824 0.752160 0.788711 0.203454
H5    H     H_    0.259660 0.803719 0.157551 0.247923
H6    H     H_    0.396165 0.848982 0.074870 0.269805
H7    H     H_    0.233979 0.899095 0.046916 0.247097
H8    H     H_    0.181401 0.718783 0.949300 0.202337
H9    H     H_    0.202594 0.624005 0.056538 0.191339
H10   H     H_    0.826365 0.359759 0.897218 0.256162
H11   H     H_    0.975952 0.461441 0.895064 0.242781
H12   H     H_    0.653052 0.460396 0.836826 0.195645
H13   H     H_    0.942115 0.366835 0.006264 0.267170
H14   H     H_    0.824659 0.610323 0.936283 0.204922
H15   H     H_    0.891813 0.578494 0.059392 0.193404
H16   H     H_    0.439396 0.923635 0.258416 0.243001
H17   H     H_    0.523324 0.785631 0.291690 0.233905
H18   H     H_    0.360731 0.809632 0.342380 0.253972
H19   H     H_    0.651434 0.070829 0.288905 0.245059
H20   H     H_    0.561827 0.211483 0.304646 0.236015
H21   H     H_    0.697433 0.181637 0.392685 0.251701
H22   H     H_    0.629777 0.812452 0.702532 0.263107
H23   H     H_    0.631997 0.204950 0.136791 0.259247
H24   H     H_    0.790206 0.809493 0.644743 0.268267
H25   H     H_    0.754969 0.938933 0.730841 0.244176
H26   H     H_    0.752716 0.991536 0.538007 0.224873
H27   H     H_    0.607635 0.024772 0.610144 0.228396
H28   H     H_    0.284381 0.183102 0.655091 0.253508
H29   H     H_    0.167592 0.188718 0.546880 0.269481
H30   H     H_    0.154190 0.059070 0.635677 0.249159
H31   H     H_    0.251192 0.996111 0.465604 0.228766
H32   H     H_    0.355638 0.976077 0.576759 0.219408
H33   H     H_    0.860255 0.724888 0.486616 0.242864
H34   H     H_    0.755000 0.245361 0.045161 0.274863
H35   H     H_    0.975798 0.689442 0.398249 0.205465
H36   H     H_    0.817860 0.613387 0.375605 0.258491
H37   H     H_    0.184105 0.678765 0.627286 0.255077
H38   H     H_    0.024960 0.636143 0.676489 0.206286
H39   H     H_    0.147089 0.522185 0.686029 0.251646
H40   H     H_    0.836400 0.190538 0.697945 0.217945
H41   H     H_    0.695340 0.279184 0.676110 0.279772
H42   H     H_    0.774157 0.203920 0.567091 0.254489
H43   H     H_    0.980063 0.339113 0.612861 0.166723
H44   H     H_    0.885837 0.431703 0.701604 0.190814
H45   H     H_    0.801585 0.173904 0.164282 0.247182
H46   H     H_    0.031754 0.598250 0.248599 0.234496
H47   H     H_    0.202219 0.645330 0.278984 0.270228
H48   H     H_    0.156578 0.505106 0.197625 0.235860
H49   H     H_    0.192447 0.402395 0.348986 0.221373
H50   H     H_    0.026292 0.423833 0.362091 0.130336
H51   H     H_    0.863721 0.409495 0.175840 0.207916
H52   H     H_    0.748998 0.357442 0.267563 0.237869
H53   H     H_    0.405505 0.950323 0.761549 0.246972
H54   H     H_    0.351055 0.920070 0.890383 0.273604
N1    N     N_2   0.162330 0.550370 0.457540 -0.066540
N2    N     N_2   0.837670 0.449630 0.542460 -0.060214
O1    O     O_R   0.567930 0.307680 0.508550 -0.607938
O2    O     O_R   0.432070 0.692320 0.491450 -0.619714
O3    O     O_R   0.351090 0.340020 0.481290 -0.617747
O4    O     O_R   0.648910 0.659980 0.518710 -0.601521
O5    O     O_R   0.590490 0.486480 0.665020 -0.607702
O6    O     O_R   0.409510 0.513520 0.334980 -0.607475
O7    O     O_R   0.373660 0.518820 0.637760 -0.617166
O8    O     O_R   0.626340 0.481180 0.362240 -0.638316
Zn1   Zn    Zn3+2 0.644780 0.478400 0.518200 0.912371
Zn2   Zn    Zn3+2 0.355220 0.521600 0.481800 0.908016

loop_
_geom_bond_atom_site_label_1
_geom_bond_atom_site_label_2
_ccdc_geom_bond_type
N2    Zn1   S    
C24   H21   S    
C28   H29   S    
C25   H27   S    
C1    O3    A    
C22   H17   S    
C19   H6    S    
C7    C8    A    
C29   H36   S    
C32   H41   S    
O4    Zn1   S    
C36   O7    A    
C28   H28   S    
C34   N2    D    
C37   O6    A    
C35   H46   S    
C19   H7    S    
C29   H33   S    
C31   N2    S    
C11   C24   S    
C31   H43   S    
C18   C19   S    
C26   H24   S    
C17   H2    S    
O8    Zn1   S    
C18   C40   S    
C30   H37   S    
C35   H47   S    
C2    C7    A    
C16   C17   S    
C6    H1    S    
C6    C38   A    
C5    H12   S    
C16   H4    S    
C12   O2    A    
C15   H45   S    
O1    Zn1   S    
C3    C39   A    
C20   H15   S    
C33   N1    S    
C21   H10   S    
O5    Zn1   S    
C2    C20   S    
C23   C30   S    
C1    C9    S    
C20   H14   S    
C1    O1    A    
C5    C7    A    
C6    C8    A    
C25   C26   S    
C29   C34   S    
C31   H44   S    
C36   O5    A    
C2    C4    A    
C37   C38   S    
N1    Zn2   S    
C33   H49   S    
C32   H40   S    
C35   H48   S    
C31   C32   S    
C24   H20   S    
C23   C34   S    
C9    C11   D    
C16   H3    S    
C14   H52   S    
C10   C12   S    
C30   H39   S    
C10   C25   S    
C4    C38   A    
C3    C40   A    
C5    C39   A    
C17   H53   S    
C21   H11   S    
C27   H31   S    
C9    C27   S    
O3    Zn2   S    
C26   H25   S    
C36   C39   S    
C28   H30   S    
C25   H26   S    
C10   C13   D    
C18   H8    S    
C22   H18   S    
C37   O8    A    
C22   H16   S    
C19   H5    S    
C29   H35   S    
C32   H42   S    
O2    Zn2   S    
C26   H22   S    
C33   H50   S    
C21   H13   S    
C11   C13   S    
C24   H19   S    
C33   C35   S    
C23   N1    D    
C13   C22   S    
O6    Zn2   S    
O7    Zn2   S    
C4    C14   S    
C14   H51   S    
C12   O4    A    
C27   H32   S    
C30   H38   S    
C15   H34   S    
C20   C21   S    
C27   C28   S    
C15   H23   S    
C14   C15   S    
C17   H54   S    
C8    C40   A    
C3    C16   S    
C18   H9    S    
