data_str_m9_o11_o16_f0_sra.sym.60
_audit_creation_date              2013-03-05T15:41:44-0500
_audit_creation_method            fapswitch 2.2
_symmetry_space_group_name_H-M    P1
_symmetry_Int_Tables_number       1
_space_group_crystal_system       triclinic
_cell_length_a                    6.944239
_cell_length_b                    13.708893
_cell_length_c                    20.42169
_cell_angle_alpha                 102.210928
_cell_angle_beta                  90.719886
_cell_angle_gamma                 90.186484
_cell_volume                      1899.93165086

loop_
_atom_site_label
_atom_site_type_symbol
_atom_site_description
_atom_site_fract_x
_atom_site_fract_y
_atom_site_fract_z
_atom_type_partial_charge
O1    O     O_R   0.506860 0.599390 0.449240 -0.546669
O2    O     O_R   0.180220 0.594600 0.586780 -0.567559
O3    O     O_R   0.004500 0.400610 0.550760 -0.567499
C1    C     C_R   0.349471 0.615278 0.613734 0.836047
O4    O     O_R   0.177490 0.611290 0.451970 -0.551779
O5    O     O_R   0.001750 0.417420 0.414990 -0.566244
C2    C     C_R   0.345374 0.637373 0.434666 0.862655
O6    O     O_R   0.509610 0.582580 0.585010 -0.562853
O7    O     O_3   0.337420 0.436370 0.488020 -0.272160
V1    V     V_3+5 0.064680 0.511800 0.502220 1.183296
O8    O     O_R   0.671710 0.405400 0.413220 -0.526223
C3    C     C_R   0.838514 0.387574 0.385534 0.797321
O9    O     O_R   0.674440 0.388710 0.548030 -0.569203
C4    C     C_R   0.844046 0.362376 0.564409 0.829579
V2    V     V_3+5 0.564010 0.488200 0.497780 1.197856
O10   O     O_3   0.841140 0.563630 0.511980 -0.270824
C5    C     C_R   0.844453 0.109888 0.606196 0.386050
H1    H     H_    0.839467 0.165739 0.515467 0.090806
H2    H     H_    0.813291 0.984921 0.690192 0.166491
C6    C     C_R   0.855208 0.284638 0.602657 -0.124160
C7    C     C_R   0.892313 0.309619 0.924701 -0.085884
C8    C     C_R   0.915258 0.384216 0.888969 -0.055065
C9    C     C_R   0.910010 0.361460 0.819288 -0.054496
C10   C     C_R   0.875947 0.262615 0.783007 0.039928
C11   C     C_R   0.849193 0.186017 0.819794 -0.058368
C12   C     C_R   0.866996 0.237748 0.711338 0.009757
C13   C     C_R   0.851041 0.135914 0.677282 -0.080094
C14   C     C_R   0.832904 0.062410 0.714625 -0.070224
C15   C     C_R   0.814988 0.087195 0.783759 0.311791
C16   C     C_R   0.866895 0.311157 0.672290 -0.103829
C17   C     C_R   0.848678 0.184991 0.569719 -0.128599
C18   C     C_R   0.861307 0.210715 0.891352 -0.090495
H3    H     H_    0.867694 0.389891 0.694279 0.051626
H4    H     H_    0.904053 0.328736 0.978902 0.089103
H5    H     H_    0.937619 0.422927 0.795431 0.053644
H6    H     H_    0.942205 0.460252 0.915521 0.071852
C19   C     C_2   0.991828 0.277146 0.290132 -0.174556
C20   C     C_2   0.839926 0.335142 0.314095 0.155510
H7    H     H_    0.110634 0.271266 0.324205 0.121682
C21   C     C_2   0.015602 0.222238 0.219406 0.365847
C22   C     C_2   0.863918 0.176881 0.182507 -0.231524
H8    H     H_    0.723053 0.181325 0.205210 0.143008
C23   C     C_2   0.203280 0.779622 0.785503 -0.106382
C24   C     C_2   0.363122 0.812870 0.821004 -0.160240
H9    H     H_    0.064070 0.801096 0.807148 0.150238
H10   H     H_    0.503362 0.789869 0.801082 0.115921
C25   C     C_2   0.203140 0.713212 0.717339 -0.078789
C26   C     C_2   0.361696 0.681843 0.681080 -0.190885
H11   H     H_    0.062019 0.689644 0.696190 0.110435
H12   H     H_    0.504745 0.703744 0.700477 0.084150
C27   C     C_R   0.297413 0.886491 0.387390 -0.022930
H13   H     H_    0.290407 0.835031 0.479541 0.121826
H14   H     H_    0.294758 0.011894 0.304612 0.103384
H15   H     H_    0.275012 0.963522 0.412378 0.102241
C28   C     C_R   0.348892 0.715118 0.395215 -0.106974
C29   C     C_R   0.361912 0.686267 0.071875 -0.136238
C30   C     C_R   0.330855 0.610412 0.106123 -0.034037
C31   C     C_R   0.305544 0.631654 0.175467 0.175035
C32   C     C_R   0.329771 0.731478 0.213049 0.017759
C33   C     C_R   0.341332 0.809551 0.176525 -0.014114
C34   C     C_R   0.334124 0.758088 0.284758 0.054036
C35   C     C_R   0.312017 0.859744 0.317351 0.040505
C36   C     C_R   0.308451 0.934038 0.280037 -0.087289
C37   C     C_R   0.330231 0.909751 0.211034 -0.085948
C38   C     C_R   0.369945 0.688585 0.325574 -0.090072
C39   C     C_R   0.309123 0.813925 0.425814 -0.030629
C40   C     C_R   0.358994 0.785808 0.105827 -0.081568
H16   H     H_    0.417747 0.614050 0.304431 0.133767
H17   H     H_    0.375814 0.667490 0.017868 0.058436
H18   H     H_    0.315272 0.534565 0.077669 0.115618
H19   H     H_    0.334024 0.970404 0.184687 0.113495
O11   O     O_R   0.203230 0.917310 0.915020 -0.562264
O12   O     O_R   0.535500 0.888690 0.048040 -0.578474
O13   O     O_R   0.711080 0.082610 0.085000 -0.545353
C41   C     C_R   0.367520 0.863308 0.065906 0.796712
O14   O     O_R   0.532630 0.905370 0.913230 -0.513860
O15   O     O_R   0.708190 0.099410 0.949230 -0.517304
C42   C     C_R   0.363506 0.881621 0.887508 0.904961
O16   O     O_R   0.206120 0.900510 0.050790 -0.576812
O17   O     O_3   0.375360 0.063570 0.011990 -0.243673
V3    V     V_3+5 0.648170 0.988200 0.997780 1.232879
O18   O     O_R   0.038240 0.111390 0.951940 -0.557204
C43   C     C_R   0.869278 0.134709 0.932558 0.879437
O19   O     O_R   0.041120 0.094710 0.086750 -0.530451
C44   C     C_R   0.873835 0.114785 0.113808 0.846010
V4    V     V_3+5 0.148810 0.011930 0.002180 1.229806
O20   O     O_3   0.871750 0.936430 0.988010 -0.288684
N1    N     N_R   0.689237 0.357623 0.270308 0.097420
O21   O     O_R   0.513274 0.370391 0.291431 -0.295525
O22   O     O_R   0.732648 0.382493 0.214189 -0.316014
N2    N     N_R   0.207746 0.211987 0.193925 0.119248
O23   O     O_R   0.255543 0.254432 0.145160 -0.283625
O24   O     O_R   0.342040 0.176693 0.227196 -0.387165
I1    I     I_    0.170451 0.512207 0.210152 -0.286316
N3    N     N_R   0.824723 0.008326 0.570150 0.076399
O25   O     O_R   0.671558 0.957225 0.577912 -0.373100
O26   O     O_R   0.935533 0.975218 0.519466 -0.379522
N4    N     N_R   0.719965 0.016061 0.813646 0.068098
O27   O     O_R   0.536199 0.027680 0.823731 -0.380169
O28   O     O_R   0.795191 0.928295 0.809540 -0.411750

loop_
_geom_bond_atom_site_label_1
_geom_bond_atom_site_label_2
_geom_bond_distance
_ccdc_geom_bond_type
C22   H8    1.084145 S    
N3    O25   1.301351 A    
C2    C28   1.466011 S    
C1    O6    1.300022 A    
C25   H11   1.086070 S    
C6    C16   1.392537 A    
C12   C13   1.425204 A    
C35   C36   1.395220 A    
C15   N4    1.420058 S    
C14   C15   1.387792 A    
O14   C42   1.292630 A    
C19   C21   1.492265 S    
O5    C3    1.299969 A    
O15   C43   1.295057 A    
V2    O10   2.168660 S    
N4    O27   1.300121 A    
C29   C30   1.388177 A    
C37   H19   1.082131 S    
O11   C42   1.302602 A    
O8    V2    2.009634 S    
C33   C40   1.418224 A    
O17   V4    1.714976 S    
C9    C10   1.417701 A    
C5    N3    1.435902 S    
C30   H18   1.082867 S    
O7    V1    2.154115 S    
C11   C18   1.429906 A    
C26   H12   1.082441 S    
C32   C33   1.430731 A    
O13   C44   1.299346 A    
O9    C4    1.293580 A    
O12   C41   1.294858 A    
C27   C35   1.404478 A    
O12   V3    2.032769 S    
C28   C38   1.401090 A    
C24   H10   1.082142 S    
C11   C15   1.416002 A    
C7    C18   1.397267 A    
C32   C34   1.432247 A    
C5    C13   1.419832 A    
C4    C6    1.450150 S    
C10   C11   1.427403 A    
N2    O23   1.301025 A    
C29   H17   1.083862 S    
V4    O20   2.168645 S    
C7    H4    1.084156 S    
C31   C32   1.428650 A    
O18   V4    2.019922 S    
C20   N1    1.443855 S    
C27   C39   1.393236 A    
O2    C1    1.296263 A    
C23   C24   1.342433 D    
C19   C20   1.355785 D    
N2    O24   1.300586 A    
C25   C26   1.354407 D    
O15   V3    2.031431 S    
C38   H16   1.076962 S    
O19   C44   1.297852 A    
H2    C14   1.081257 S    
C23   H9    1.083558 S    
V3    O20   1.705607 S    
O3    C4    1.288311 A    
O1    V2    2.024058 S    
C21   C22   1.357034 D    
N1    O22   1.301477 A    
C12   C16   1.409987 A    
O6    V2    2.008772 S    
C9    H5    1.076625 S    
O9    V2    2.020012 S    
C5    C17   1.393051 A    
C40   C41   1.471106 S    
O13   V3    2.010007 S    
O2    V1    2.011042 S    
C28   C39   1.396497 A    
H13   C39   1.083515 S    
O4    C2    1.293431 A    
C1    C26   1.482259 S    
C18   C43   1.472064 S    
C16   H3    1.077756 S    
O1    C2    1.295462 A    
C8    H6    1.082893 S    
C10   C12   1.431349 A    
O17   V3    2.154179 S    
O14   V3    2.011049 S    
O5    V1    2.010000 S    
O11   V4    2.009233 S    
O8    C3    1.296514 A    
N3    O26   1.301155 A    
C29   C40   1.394116 A    
C22   C44   1.481652 S    
N4    O28   1.300020 A    
C33   C37   1.407841 A    
C27   H15   1.083905 S    
C24   C42   1.480274 S    
C31   I1    2.135535 S    
O4    V1    2.032803 S    
C19   H7    1.086771 S    
O3    V1    2.031296 S    
V1    O10   1.705669 S    
H14   C36   1.084131 S    
C30   C31   1.397576 A    
C41   O16   1.293523 A    
C21   N2    1.434786 S    
C3    C20   1.483914 S    
C34   C35   1.421358 A    
C36   C37   1.388039 A    
C34   C38   1.413075 A    
N1    O21   1.300971 A    
O18   C43   1.296080 A    
C13   C14   1.392656 A    
C8    C9    1.390843 A    
O19   V4    2.009652 S    
H1    C17   1.084285 S    
C7    C8    1.386068 A    
C23   C25   1.493464 S    
O16   V4    2.027900 S    
O7    V2    1.716218 S    
C6    C17   1.389498 A    
