data_str_m2_o1_o16_f0_pcu.sym.209
_audit_creation_date              2012-12-10T17:57:26-0500
_audit_creation_method            fapswitch 2.2
_symmetry_space_group_name_H-M    P1
_symmetry_Int_Tables_number       1
_space_group_crystal_system       triclinic
_cell_length_a                    9.507014
_cell_length_b                    10.808533
_cell_length_c                    13.487395
_cell_angle_alpha                 90.035225
_cell_angle_beta                  72.865503
_cell_angle_gamma                 89.868103
_cell_volume                      1324.40477595

loop_
_atom_site_label
_atom_site_type_symbol
_atom_type_description
_atom_site_fract_x
_atom_site_fract_y
_atom_site_fract_z
_atom_type_partial_charge
C1    C     C_R   0.501601 0.737764 0.495046 0.906742
C2    C     C_R   0.442335 0.492339 0.976615 0.107156
C3    C     C_R   0.473014 0.461398 0.870801 -0.088656
C4    C     C_R   0.546212 0.461296 0.029380 0.008202
C5    C     C_R   0.689850 0.422259 0.973037 -0.047103
C6    C     C_R   0.714649 0.380413 0.870209 0.419365
C7    C     C_R   0.601761 0.391994 0.823796 -0.235609
C8    C     C_R   0.508186 0.461476 0.137633 0.338170
C9    C     C_R   0.766281 0.450959 0.128864 -0.252033
C10   C     C_R   0.376242 0.502879 0.814510 -0.097425
C11   C     C_R   0.573654 0.935512 0.550711 -0.221040
C12   C     C_R   0.421733 0.497446 0.700141 0.824585
C13   C     C_R   0.574613 0.063124 0.551583 -0.183585
C14   C     C_R   0.504964 0.128818 0.490438 -0.177798
C15   C     C_R   0.439059 0.066722 0.423316 0.331325
C16   C     C_R   0.436896 0.936915 0.422519 0.409927
C17   C     C_R   0.503153 0.871856 0.488679 -0.220612
C18   C     C_R   0.899854 0.580758 0.561119 0.027850
C19   C     C_R   0.048796 0.580768 0.561041 0.114917
C20   C     C_R   0.099572 0.418203 0.439963 0.032830
C21   C     C_R   0.950894 0.418613 0.439578 0.016541
C22   C     C_R   0.500992 0.262315 0.498131 0.783572
C23   C     C_R   0.577674 0.490080 0.300417 0.846358
C24   C     C_R   0.800460 0.421031 0.023540 -0.106180
C25   C     C_R   0.619179 0.468484 0.187552 -0.140145
C26   C     C_R   0.244983 0.566691 0.866607 0.448799
C27   C     C_R   0.214947 0.593666 0.972152 -0.277241
C28   C     C_R   0.314229 0.561534 0.025072 -0.124837
Cu1   Cu    Cu3+1 0.359340 0.499980 0.500000 1.055291
Cu2   Cu    Cu3+1 0.640660 0.500020 0.500000 0.980444
H1    H     H_    0.853580 0.453263 0.165390 0.183198
H2    H     H_    0.626482 0.110825 0.602259 0.199474
H3    H     H_    0.823090 0.645369 0.610128 0.121305
H4    H     H_    0.084461 0.645454 0.609880 0.150717
H5    H     H_    0.175333 0.351844 0.392718 0.149173
H6    H     H_    0.915058 0.353446 0.391170 0.133323
H7    H     H_    0.913591 0.398996 0.982418 0.216679
H8    H     H_    0.291981 0.597473 0.102938 0.211571
H9    H     H_    0.117815 0.646281 0.012528 0.160572
H10   H     H_    0.617072 0.347514 0.749790 0.217132
H11   H     H_    0.625325 0.886083 0.600685 0.178208
N1    N     N_R   0.147940 0.499970 0.499970 -0.169854
N2    N     N_R   0.852060 0.500060 0.499990 -0.170857
O1    O     O_R   0.381250 0.680340 0.500010 -0.534619
O2    O     O_R   0.618820 0.680370 0.500010 -0.589132
O3    O     O_R   0.323240 0.499950 0.650980 -0.504355
O4    O     O_R   0.560810 0.499980 0.650980 -0.609807
O5    O     O_R   0.381180 0.319630 0.499990 -0.580080
O6    O     O_R   0.618750 0.319660 0.499990 -0.585524
O7    O     O_R   0.439190 0.500020 0.349020 -0.540106
O8    O     O_R   0.676760 0.500050 0.349020 -0.585433
O9    O     O_3   0.378743 0.130678 0.357104 -0.672224
H12   H     H_    0.436593 0.206957 0.334292 0.298568
S1    S     S_3+6 0.364422 0.857947 0.331983 0.050782
O10   O     O_2   0.222303 0.795965 0.389001 -0.282090
O11   O     O_2   0.336088 0.944156 0.252500 -0.218726
O12   O     O_3   0.486537 0.750683 0.269563 -0.556957
H13   H     H_    0.447496 0.719483 0.213839 0.369107
S2    S     S_3+6 0.879811 0.305285 0.799490 -0.012686
O13   O     O_2   0.004118 0.396428 0.777223 -0.290184
O14   O     O_2   0.911996 0.200575 0.862870 -0.270754
O15   O     O_3   0.865366 0.249145 0.686485 -0.555743
H14   H     H_    0.967060 0.226193 0.646105 0.380155
O16   O     O_3   0.363874 0.437666 0.192302 -0.731386
H15   H     H_    0.365188 0.362056 0.233500 0.331810
O17   O     O_3   0.153188 0.610247 0.811679 -0.698535
H16   H     H_    0.066693 0.651874 0.859858 0.327466

loop_
_geom_bond_atom_site_label_1
_geom_bond_atom_site_label_2
_ccdc_geom_bond_type
C20   N1    A    
C22   O5    A    
C7    H10   S    
C9    C24   A    
O15   H14   S    
Cu1   N1    S    
C24   H7    S    
S1    O10   D    
Cu2   O2    S    
C23   O8    A    
C19   N1    A    
C28   H8    S    
Cu1   O3    S    
C4    C8    A    
C1    O1    A    
C1    O2    A    
O16   H15   S    
C10   C26   A    
C15   O9    S    
C2    C3    A    
O12   H13   S    
C9    C25   A    
S2    O13   D    
C21   H6    S    
C13   C14   A    
C20   C21   A    
C18   N2    A    
C8    C25   A    
C11   C13   A    
C14   C22   S    
C26   C27   A    
Cu1   Cu2   S    
C5    C24   A    
C10   C12   S    
C8    O16   S    
C12   O4    A    
C2    C4    A    
Cu2   O6    S    
C11   H11   S    
C6    C7    A    
S1    O11   D    
Cu1   O7    S    
C23   C25   S    
Cu1   O1    S    
C5    C6    A    
C18   H3    S    
C16   S1    S    
Cu2   N2    S    
S2    O14   D    
C9    H1    S    
Cu1   O5    S    
C15   C16   A    
Cu2   O8    S    
Cu2   O4    S    
C4    C5    A    
O17   H16   S    
O9    H12   S    
C12   O3    A    
C18   C19   A    
C22   O6    A    
C27   C28   A    
C3    C10   A    
C14   C15   A    
C11   C17   A    
S2    O15   S    
C2    C28   A    
C13   H2    S    
C3    C7    A    
C21   N2    A    
C20   H5    S    
C1    C17   S    
C6    S2    S    
C19   H4    S    
C27   H9    S    
C16   C17   A    
C23   O7    A    
S1    O12   S    
C26   O17   S    
