data_str_m3_o10_o16_f0_pcu.sym.125
_audit_creation_date              2012-12-10T16:51:28-0500
_audit_creation_method            fapswitch 2.2
_symmetry_space_group_name_H-M    P1
_symmetry_Int_Tables_number       1
_space_group_crystal_system       triclinic
_cell_length_a                    7.84194
_cell_length_b                    8.565429
_cell_length_c                    12.101804
_cell_angle_alpha                 92.558563
_cell_angle_beta                  101.176521
_cell_angle_gamma                 94.056738
_cell_volume                      794.04314102

loop_
_atom_site_label
_atom_site_type_symbol
_atom_type_description
_atom_site_fract_x
_atom_site_fract_y
_atom_site_fract_z
_atom_type_partial_charge
C1    C     C_R   0.044591 0.794664 0.497505 0.964959
C2    C     C_R   0.159117 0.503978 0.832137 -0.118886
C3    C     C_2   0.067941 0.958379 0.496345 -0.386747
C4    C     C_R   0.105938 0.503687 0.710292 0.848673
C5    C     C_2   0.932693 0.041752 0.505049 -0.387816
C6    C     C_R   0.955632 0.205373 0.502986 0.944842
C7    C     C_R   0.892463 0.488342 0.289671 0.855360
C8    C     C_R   0.810490 0.288473 0.002118 -0.187143
C9    C     C_R   0.830008 0.457246 0.169844 -0.064126
C10   C     C_R   0.073336 0.594820 0.900173 -0.175694
C11   C     C_R   0.144815 0.625232 0.013841 -0.128510
C12   C     C_R   0.396464 0.484221 0.989934 0.081069
C13   C     C_R   0.306666 0.573549 0.058470 -0.200690
C14   C     C_R   0.310695 0.433527 0.879893 0.081634
C15   C     C_R   0.568824 0.444047 0.026644 0.081046
C16   C     C_R   0.641875 0.333377 0.962228 0.163571
C17   C     C_R   0.544158 0.267220 0.860423 -0.234963
C18   C     C_R   0.380371 0.316778 0.819433 -0.182648
C19   C     C_R   0.671720 0.513550 0.125215 -0.267634
C20   C     C_R   0.902991 0.347454 0.107577 -0.183737
H1    H     H_    0.026574 0.302553 0.142335 0.156107
H2    H     H_    0.308018 0.261660 0.740399 0.163015
H3    H     H_    0.195447 0.009689 0.488104 0.182932
H4    H     H_    0.634499 0.707265 0.637584 0.335179
H5    H     H_    0.805249 0.990455 0.513435 0.185043
H6    H     H_    0.469544 0.374240 0.416582 0.140405
H7    H     H_    0.595418 0.179220 0.811538 0.149665
H8    H     H_    0.867090 0.203149 0.954249 0.136526
H9    H     H_    0.627820 0.607312 0.172507 0.149042
H10   H     H_    0.954291 0.646729 0.864717 0.157731
H11   H     H_    0.356281 0.601787 0.147177 0.139550
H12   H     H_    0.077765 0.693991 0.066657 0.144728
N1    N     N_2   0.434800 0.456690 0.470850 -0.075570
N2    N     N_2   0.565200 0.543310 0.529150 0.102619
O1    O     O_R   0.893060 0.738880 0.507150 -0.625472
O2    O     O_R   0.172250 0.711130 0.488470 -0.567095
O3    O     O_R   0.944700 0.520730 0.667600 -0.627227
O4    O     O_R   0.223890 0.492980 0.648920 -0.553904
O5    O     O_R   0.827750 0.288870 0.511530 -0.634486
O6    O     O_R   0.106940 0.261120 0.492850 -0.627523
O7    O     O_R   0.776110 0.507020 0.351080 -0.629326
O8    O     O_R   0.055300 0.479270 0.332400 -0.628274
O9    O     O_3   0.521943 0.651705 0.599636 -0.630797
Zn1   Zn    Zn3+2 0.813580 0.518530 0.512470 0.960426
Zn2   Zn    Zn3+2 0.186420 0.481470 0.487530 0.994146

loop_
_geom_bond_atom_site_label_1
_geom_bond_atom_site_label_2
_ccdc_geom_bond_type
C2    C4    S    
O5    Zn1   S    
N1    Zn2   S    
C10   H10   S    
C9    C20   A    
C3    H3    S    
C12   C15   A    
O3    Zn1   S    
N1    N2    D    
O2    Zn2   S    
C8    C16   A    
C20   H1    S    
C15   C19   A    
O1    Zn1   S    
C11   C13   A    
C8    C20   A    
C5    H5    S    
C5    C6    S    
C12   C14   A    
C11   H12   S    
C17   C18   A    
C7    O7    A    
O6    Zn2   S    
C2    C14   A    
O7    Zn1   S    
C6    O6    A    
C10   C11   A    
C15   C16   A    
C17   H7    S    
C3    C5    D    
N2    Zn1   S    
C4    O3    A    
C1    O1    A    
C8    H8    S    
C7    O8    A    
C7    C9    S    
H4    O9    S    
C14   C18   A    
C6    O5    A    
O4    Zn2   S    
H6    N1    S    
C12   C13   A    
C18   H2    S    
C13   H11   S    
C9    C19   A    
C2    C10   A    
N2    O9    S    
C1    O2    A    
C4    O4    A    
C16   C17   A    
C1    C3    S    
O8    Zn2   S    
C19   H9    S    
