data_str_m2_o10_o18_f0_pcu.sym.88
_audit_creation_date              2012-12-10T16:45:24-0500
_audit_creation_method            fapswitch 2.2
_symmetry_space_group_name_H-M    P1
_symmetry_Int_Tables_number       1
_space_group_crystal_system       triclinic
_cell_length_a                    7.482834
_cell_length_b                    8.686806
_cell_length_c                    15.691208
_cell_angle_alpha                 94.248217
_cell_angle_beta                  75.474112
_cell_angle_gamma                 103.187364
_cell_volume                      961.164107286

loop_
_atom_site_label
_atom_site_type_symbol
_atom_type_description
_atom_site_fract_x
_atom_site_fract_y
_atom_site_fract_z
_atom_type_partial_charge
C1    C     C_R   0.544990 0.800000 0.502659 0.885626
C2    C     C_R   0.615559 0.522257 0.334083 0.802009
C3    C     C_R   0.319086 0.470836 0.762141 -0.143908
C4    C     C_R   0.685404 0.555174 0.239149 -0.121714
C5    C     C_R   0.102144 0.332173 0.888161 -0.195871
C6    C     C_R   0.944171 0.611732 0.109384 -0.183154
C7    C     C_R   0.148067 0.367899 0.799085 -0.289490
C8    C     C_R   0.877553 0.571339 0.198006 -0.262609
C9    C     C_R   0.441635 0.542877 0.815579 0.421395
C10   C     C_R   0.563169 0.584381 0.189566 0.392674
C11   C     C_R   0.409017 0.490951 0.902602 -0.029648
C12   C     C_R   0.455015 0.199990 0.497316 0.884129
C13   C     C_R   0.619563 0.561257 0.098045 0.039217
C14   C     C_R   0.230989 0.392475 0.940162 0.085429
C15   C     C_R   0.814259 0.599094 0.057519 0.116112
C16   C     C_R   0.546279 0.533692 0.953665 0.074563
C17   C     C_R   0.487560 0.511225 0.045941 0.058004
C18   C     C_3   0.308664 0.684783 0.271432 -0.254323
C19   C     C_3   0.525693 0.809737 0.805476 -0.330676
C20   C     C_R   0.305609 0.421679 0.082583 -0.231316
C21   C     C_R   0.742113 0.584933 0.915164 -0.162050
C22   C     C_R   0.183117 0.356094 0.029383 -0.199019
C23   C     C_R   0.874104 0.615277 0.966473 -0.234026
C24   C     C_2   0.570097 0.968032 0.503950 -0.363079
C25   C     C_2   0.429957 0.031916 0.495898 -0.370472
C26   C     C_R   0.385332 0.489035 0.666369 0.837123
Cu1   Cu    Cu3+1 0.322120 0.483240 0.490330 0.930560
Cu2   Cu    Cu3+1 0.677880 0.516760 0.509670 0.963127
H1    H     H_    0.047199 0.281740 0.058968 0.158009
H2    H     H_    0.295046 0.960426 0.488232 0.174220
H3    H     H_    0.003673 0.616029 0.569094 0.235930
H4    H     H_    0.996455 0.384193 0.430791 0.221597
H5    H     H_    0.218615 0.752373 0.250466 0.172297
H6    H     H_    0.321047 0.730959 0.337909 0.209772
H7    H     H_    0.237726 0.557392 0.274867 0.137473
H8    H     H_    0.406117 0.813754 0.775979 0.153022
H9    H     H_    0.484189 0.826601 0.878246 0.167551
H10   H     H_    0.643521 0.910176 0.778990 0.193840
H11   H     H_    0.023446 0.646921 0.934567 0.155358
H12   H     H_    0.974278 0.555618 0.234976 0.156136
H13   H     H_    0.051899 0.312865 0.758771 0.178138
H14   H     H_    0.967291 0.254798 0.916095 0.157928
H15   H     H_    0.094672 0.640714 0.080341 0.171115
H16   H     H_    0.261716 0.392421 0.151573 0.138260
H17   H     H_    0.798788 0.588111 0.844838 0.205746
H18   H     H_    0.705031 0.039506 0.511581 0.178822
N1    N     N_2   0.945180 0.542040 0.524240 -0.217608
N2    N     N_2   0.054820 0.457960 0.475760 -0.235173
O1    O     O_R   0.384450 0.714270 0.493720 -0.599451
O2    O     O_3   0.589052 0.667871 0.782439 -0.590508
O3    O     O_R   0.615550 0.285730 0.506280 -0.583626
O4    O     O_R   0.684880 0.742590 0.510050 -0.577890
O5    O     O_R   0.315120 0.257410 0.489950 -0.582258
O6    O     O_R   0.265540 0.477900 0.617090 -0.594836
O7    O     O_R   0.734460 0.522100 0.382910 -0.593091
O8    O     O_R   0.565970 0.506210 0.633420 -0.532525
O9    O     O_R   0.434030 0.493790 0.366580 -0.597521
O10   O     O_3   0.487922 0.717823 0.212856 -0.579339

loop_
_geom_bond_atom_site_label_1
_geom_bond_atom_site_label_2
_ccdc_geom_bond_type
Cu1   N2    S    
C2    C4    S    
C5    H14   S    
Cu1   O5    S    
Cu2   N1    S    
C16   C21   A    
C3    C9    A    
C19   H10   S    
C6    C8    A    
C18   H6    S    
C11   C16   A    
C3    C7    A    
N1    N2    D    
C13   C17   A    
C12   C25   S    
C4    C8    A    
C24   H18   S    
C14   C22   A    
C15   C23   A    
Cu2   O8    S    
Cu1   O6    S    
H3    N1    S    
C9    C11   A    
C19   O2    S    
C5    C14   A    
H4    N2    S    
C22   H1    S    
C1    O1    A    
C23   H11   S    
C26   O6    A    
C11   C14   A    
Cu2   O7    S    
C20   C22   A    
C20   H16   S    
C21   H17   S    
C2    O7    A    
C13   C15   A    
C21   C23   A    
Cu1   O9    S    
Cu2   O3    S    
C1    O4    A    
C2    O9    A    
C18   H5    S    
C4    C10   A    
Cu1   O1    S    
Cu1   Cu2   S    
C12   O3    A    
C8    H12   S    
C24   C25   D    
C1    C24   S    
C18   H7    S    
C25   H2    S    
C5    C7    A    
C6    H15   S    
Cu2   O4    S    
C19   H9    S    
C10   O10   S    
C6    C15   A    
C19   H8    S    
C17   C20   A    
C18   O10   S    
C3    C26   S    
C9    O2    S    
C12   O5    A    
C7    H13   S    
C16   C17   A    
C10   C13   A    
C26   O8    A    
