data_str_m3_o40_o41_f0_fof.sym.33
_audit_creation_date              2012-12-10T16:38:03-0500
_audit_creation_method            fapswitch 2.2
_symmetry_space_group_name_H-M    P1
_symmetry_Int_Tables_number       1
_space_group_crystal_system       triclinic
_cell_length_a                    28.176683
_cell_length_b                    18.357919
_cell_length_c                    16.760642
_cell_angle_alpha                 89.820855
_cell_angle_beta                  61.167497
_cell_angle_gamma                 89.273338
_cell_volume                      7594.28858229

loop_
_atom_site_label
_atom_site_type_symbol
_atom_type_description
_atom_site_fract_x
_atom_site_fract_y
_atom_site_fract_z
_atom_type_partial_charge
C1    C     C_R   0.699680 0.263327 0.678029 0.871502
C2    C     C_R   0.091768 0.496243 0.526500 0.066825
C3    C     C_R   0.200119 0.201470 0.898037 0.074603
C4    C     C_R   0.610742 0.324628 0.055005 -0.244885
C5    C     C_R   0.334547 0.593685 0.020423 -0.263943
C6    C     C_R   0.387050 0.324865 0.947327 -0.241469
C7    C     C_R   0.660686 0.597089 0.991871 -0.169305
C8    C     C_R   0.110742 0.824628 0.055005 -0.244885
C9    C     C_R   0.834547 0.093685 0.020423 -0.263943
C10   C     C_R   0.887050 0.824865 0.947327 -0.241469
C11   C     C_R   0.160686 0.097089 0.991871 -0.169305
C12   C     C_R   0.639901 0.313849 0.101705 0.015233
C13   C     C_R   0.405946 0.003157 0.480901 0.069197
C14   C     C_R   0.301956 0.602880 0.978862 -0.024644
C15   C     C_R   0.359631 0.306585 0.899594 -0.050458
C16   C     C_R   0.682389 0.615445 0.048578 -0.004971
C17   C     C_R   0.139901 0.813849 0.101705 0.015233
C18   C     C_R   0.801956 0.102879 0.978862 -0.024644
C19   C     C_R   0.859631 0.806585 0.899594 -0.050458
C20   C     C_R   0.182389 0.115445 0.048578 -0.004971
C21   C     C_R   0.741357 0.187290 0.797292 -0.181043
C22   C     C_R   0.258872 0.810660 0.200379 -0.160005
C23   C     C_R   0.269832 0.177863 0.198305 -0.135242
C24   C     C_R   0.591768 0.996243 0.526500 0.066825
C25   C     C_R   0.743590 0.802851 0.798315 -0.120600
C26   C     C_R   0.241357 0.687290 0.797292 -0.181043
C27   C     C_R   0.758872 0.310660 0.200379 -0.160005
C28   C     C_R   0.769832 0.677863 0.198305 -0.135242
C29   C     C_R   0.243590 0.302851 0.798315 -0.120600
C30   C     C_R   0.766308 0.165521 0.848256 -0.141145
C31   C     C_R   0.227460 0.822784 0.157570 -0.107518
C32   C     C_R   0.246999 0.151751 0.146604 -0.236426
C33   C     C_R   0.775078 0.813635 0.840588 -0.112172
C34   C     C_R   0.266308 0.665521 0.848256 -0.141145
C35   C     C_R   0.069067 0.374369 0.589556 -0.191552
C36   C     C_R   0.727460 0.322784 0.157570 -0.107518
C37   C     C_R   0.746999 0.651751 0.146604 -0.236426
C38   C     C_R   0.275078 0.313635 0.840588 -0.112172
C39   C     C_R   0.077667 0.095343 0.930262 0.896951
C40   C     C_R   0.928994 0.895928 0.062940 0.916164
C41   C     C_R   0.922709 0.096179 0.069461 0.906923
C42   C     C_R   0.069608 0.894379 0.938696 0.896149
C43   C     C_R   0.577667 0.595343 0.930262 0.896951
C44   C     C_R   0.428994 0.395928 0.062940 0.916164
C45   C     C_R   0.422708 0.596179 0.069461 0.906923
C46   C     C_R   0.928963 0.625073 0.417706 -0.199757
C47   C     C_R   0.569608 0.394379 0.938696 0.896148
C48   C     C_R   0.570631 0.116298 0.443383 0.075519
C49   C     C_R   0.425323 0.884023 0.568307 0.108658
C50   C     C_R   0.475883 0.122840 0.426830 0.097065
C51   C     C_R   0.520923 0.877336 0.583591 0.099339
C52   C     C_R   0.070631 0.616298 0.443383 0.075519
C53   C     C_R   0.925323 0.384023 0.568307 0.108658
C54   C     C_R   0.975883 0.622840 0.426830 0.097065
C55   C     C_R   0.020923 0.377336 0.583591 0.099339
C56   C     C_R   0.558754 0.177897 0.406546 -0.141896
C57   C     C_R   0.879116 0.386610 0.557053 -0.215607
C58   C     C_R   0.435697 0.824268 0.610561 -0.197379
C59   C     C_R   0.511876 0.181296 0.397893 -0.164668
C60   C     C_R   0.483421 0.820525 0.617082 -0.189897
C61   C     C_R   0.058754 0.677897 0.406546 -0.141896
C62   C     C_R   0.935697 0.324268 0.610561 -0.197379
C63   C     C_R   0.011876 0.681296 0.397893 -0.164668
C64   C     C_R   0.983421 0.320525 0.617082 -0.189897
C65   C     C_R   0.487106 0.061200 0.465745 0.037049
C66   C     C_R   0.509716 0.938552 0.544123 0.031482
C67   C     C_R   0.534195 0.058457 0.475133 0.038706
C68   C     C_R   0.117814 0.612880 0.450975 -0.207659
C69   C     C_R   0.462437 0.941285 0.534987 0.033378
C70   C     C_R   0.987106 0.561200 0.465745 0.037049
C71   C     C_R   0.009716 0.438553 0.544123 0.031482
C72   C     C_R   0.034195 0.558457 0.475133 0.038706
C73   C     C_R   0.962437 0.441285 0.534987 0.033378
C74   C     C_R   0.951654 0.502052 0.494378 -0.034323
C75   C     C_R   0.045461 0.497425 0.514542 -0.032961
C76   C     C_R   0.451654 0.002052 0.494378 -0.034323
C77   C     C_R   0.545461 0.997425 0.514542 -0.032961
C78   C     C_R   0.871839 0.442451 0.504760 0.049885
C79   C     C_R   0.569067 0.874369 0.589556 -0.191552
C80   C     C_R   0.126066 0.556898 0.501549 0.051511
C81   C     C_R   0.105046 0.433659 0.560641 0.019131
C82   C     C_R   0.893331 0.565616 0.445405 0.028159
C83   C     C_R   0.371839 0.942451 0.504760 0.049885
C84   C     C_R   0.626066 0.056898 0.501549 0.051511
C85   C     C_R   0.605046 0.933659 0.560641 0.019131
C86   C     C_R   0.393331 0.065616 0.445405 0.028159
C87   C     C_R   0.833909 0.439042 0.470720 -0.194515
C88   C     C_R   0.165163 0.560485 0.532892 -0.197139
C89   C     C_R   0.153728 0.433723 0.566493 -0.097090
C90   C     C_R   0.428963 0.125073 0.417706 -0.199757
C91   C     C_R   0.845545 0.565568 0.437138 -0.116287
C92   C     C_R   0.333909 0.939042 0.470720 -0.194515
C93   C     C_R   0.665163 0.060485 0.532892 -0.197139
C94   C     C_R   0.653728 0.933723 0.566493 -0.097090
C95   C     C_R   0.345545 0.065568 0.437138 -0.116287
C96   C     C_R   0.826185 0.499496 0.426499 -0.102284
C97   C     C_R   0.173633 0.499881 0.576161 -0.115812
C98   C     C_R   0.326185 0.999497 0.426499 -0.102284
C99   C     C_R   0.673633 0.999881 0.576161 -0.115812
C100  C     C_2   0.805393 0.493388 0.359748 0.447688
C101  C     C_R   0.379116 0.886610 0.557053 -0.215607
C102  C     C_2   0.196387 0.505731 0.640286 0.464290
C103  C     C_2   0.305393 0.993388 0.359748 0.447688
C104  C     C_2   0.696387 0.005731 0.640286 0.464290
C105  C     C_2   0.584832 0.304072 0.786659 0.464604
C106  C     C_2   0.420365 0.715303 0.189049 0.441364
C107  C     C_2   0.414714 0.304021 0.215262 0.444934
C108  C     C_2   0.581389 0.715363 0.810333 0.427319
C109  C     C_2   0.084832 0.804072 0.786659 0.464604
C110  C     C_2   0.920365 0.215303 0.189049 0.441364
C111  C     C_2   0.914714 0.804021 0.215262 0.444934
C112  C     C_R   0.300265 0.737229 0.322286 0.951739
C113  C     C_R   0.617814 0.112880 0.450975 -0.207659
C114  C     C_2   0.081390 0.215363 0.810333 0.427319
C115  C     C_2   0.610382 0.331736 0.200105 0.384548
C116  C     C_2   0.294081 0.537241 0.935229 0.365202
C117  C     C_2   0.391237 0.312057 0.798773 0.396023
C118  C     C_2   0.654274 0.582554 0.140444 0.357082
C119  C     C_2   0.110382 0.831735 0.200105 0.384548
C120  C     C_2   0.794081 0.037241 0.935229 0.365202
C121  C     C_2   0.891237 0.812057 0.798773 0.396023
C122  C     C_2   0.154274 0.082554 0.140444 0.357082
C123  C     C_R   0.706578 0.244877 0.971546 -0.012292
C124  C     C_R   0.266839 0.715935 0.063032 -0.011582
C125  C     C_R   0.292707 0.243345 0.033075 0.023865
C126  C     C_R   0.732093 0.712385 0.942504 0.019612
C127  C     C_R   0.206578 0.744877 0.971546 -0.012292
C128  C     C_R   0.766839 0.215935 0.063032 -0.011582
C129  C     C_R   0.792707 0.743345 0.033075 0.023865
C130  C     C_R   0.232093 0.212385 0.942504 0.019612
C131  C     C_R   0.748630 0.191971 0.936966 0.086421
C132  C     C_R   0.300576 0.262966 0.322448 0.894721
C133  C     C_R   0.227522 0.772546 0.093902 0.070440
C134  C     C_R   0.252023 0.189210 0.069045 0.053467
C135  C     C_R   0.772970 0.765686 0.908120 0.080044
C136  C     C_R   0.248630 0.691971 0.936966 0.086421
C137  C     C_R   0.727522 0.272546 0.093902 0.070440
C138  C     C_R   0.752023 0.689210 0.069045 0.053467
C139  C     C_R   0.272970 0.265686 0.908120 0.080044
C140  C     C_R   0.772701 0.169459 0.991318 0.032057
C141  C     C_R   0.191371 0.778492 0.056926 0.021812
C142  C     C_R   0.222064 0.171453 0.021829 -0.045472
C143  C     C_R   0.700538 0.735332 0.677583 0.950635
C144  C     C_R   0.808044 0.773398 0.946317 0.031777
C145  C     C_R   0.272701 0.669459 0.991318 0.032057
C146  C     C_R   0.691371 0.278492 0.056926 0.021812
C147  C     C_R   0.722064 0.671453 0.021829 -0.045472
C148  C     C_R   0.308044 0.273398 0.946317 0.031777
C149  C     C_R   0.632747 0.308733 0.961506 0.048855
C150  C     C_R   0.338009 0.647941 0.076911 0.064264
C151  C     C_R   0.365431 0.311145 0.041351 0.055561
C152  C     C_R   0.661804 0.645879 0.926120 0.013987
C153  C     C_R   0.132747 0.808733 0.961506 0.048855
C154  C     C_R   0.199680 0.763327 0.678029 0.871502
C155  C     C_R   0.838009 0.147941 0.076911 0.064264
C156  C     C_R   0.865431 0.811145 0.041351 0.055561
C157  C     C_R   0.161804 0.145879 0.926120 0.013987
C158  C     C_R   0.607332 0.331913 0.909578 -0.160151
C159  C     C_R   0.377358 0.646764 0.108140 -0.214075
C160  C     C_R   0.390872 0.335072 0.093156 -0.189746
C161  C     C_R   0.623621 0.644325 0.891856 -0.216798
C162  C     C_R   0.107332 0.831914 0.909578 -0.160151
C163  C     C_R   0.877358 0.146764 0.108140 -0.214075
C164  C     C_R   0.890872 0.835072 0.093156 -0.189746
C165  C     C_R   0.800265 0.237230 0.322286 0.951739
C166  C     C_R   0.123621 0.144325 0.891856 -0.216798
C167  C     C_R   0.622832 0.301475 0.824612 -0.102973
C168  C     C_R   0.373454 0.696285 0.174641 -0.124940
C169  C     C_R   0.376224 0.304661 0.178083 -0.088268
C170  C     C_R   0.628246 0.693547 0.824546 -0.110871
C171  C     C_R   0.122832 0.801475 0.824612 -0.102973
C172  C     C_R   0.873454 0.196285 0.174641 -0.124940
C173  C     C_R   0.876224 0.804661 0.178083 -0.088268
C174  C     C_R   0.128246 0.193547 0.824546 -0.110871
C175  C     C_R   0.672791 0.265489 0.779025 -0.187361
C176  C     C_R   0.800576 0.762966 0.322448 0.894721
C177  C     C_R   0.324878 0.733466 0.222295 -0.129195
C178  C     C_R   0.328419 0.265622 0.221777 -0.196723
C179  C     C_R   0.676922 0.729098 0.777339 -0.099029
C180  C     C_R   0.172791 0.765489 0.779025 -0.187361
C181  C     C_R   0.824878 0.233466 0.222295 -0.129195
C182  C     C_R   0.828418 0.765623 0.221777 -0.196723
C183  C     C_R   0.176922 0.229098 0.777339 -0.099029
C184  C     C_R   0.698575 0.239353 0.830591 0.070736
C185  C     C_R   0.294038 0.750054 0.177192 0.033750
C186  C     C_R   0.304491 0.237794 0.169795 0.058880
C187  C     C_R   0.200538 0.235332 0.677583 0.950635
C188  C     C_R   0.707667 0.744329 0.822841 0.027085
C189  C     C_R   0.198575 0.739353 0.830591 0.070736
C190  C     C_R   0.794038 0.250054 0.177192 0.033750
C191  C     C_R   0.804491 0.737794 0.169795 0.058880
C192  C     C_R   0.207667 0.244329 0.822841 0.027086
C193  C     C_R   0.694603 0.127276 0.524477 0.882627
C194  C     C_R   0.304981 0.872610 0.476981 0.898424
C195  C     C_R   0.309512 0.129820 0.461866 0.918255
C196  C     C_R   0.690235 0.869814 0.539371 0.953984
C197  C     C_R   0.194603 0.627276 0.524477 0.882627
C198  C     C_R   0.905946 0.503157 0.480901 0.069197
C199  C     C_R   0.804981 0.372610 0.476981 0.898424
C200  C     C_R   0.809512 0.629820 0.461866 0.918255
C201  C     C_R   0.190235 0.369814 0.539371 0.953984
C202  C     C_R   0.679313 0.264209 0.921063 0.076415
C203  C     C_R   0.300046 0.705279 0.104775 0.072546
C204  C     C_R   0.320624 0.264594 0.081670 0.078152
C205  C     C_R   0.700119 0.701470 0.898037 0.074603
C206  C     C_R   0.179313 0.764209 0.921063 0.076415
C207  C     C_R   0.800045 0.205279 0.104775 0.072546
C208  C     C_R   0.820624 0.764594 0.081670 0.078152
H1    H     H_    0.990912 0.273290 0.648525 0.151585
H2    H     H_    0.354513 0.541432 0.012321 0.174249
H3    H     H_    0.428151 0.343078 0.906845 0.190344
H4    H     H_    0.639264 0.546427 0.005802 0.216122
H5    H     H_    0.068867 0.841507 0.095225 0.163766
H6    H     H_    0.854513 0.041432 0.012321 0.174249
H7    H     H_    0.928151 0.843078 0.906845 0.190344
H8    H     H_    0.139264 0.046427 0.005802 0.216122
H9    H     H_    0.754841 0.158744 0.733831 0.175500
H10   H     H_    0.257060 0.850678 0.249114 0.159596
H11   H     H_    0.263506 0.146284 0.256943 0.217646
H12   H     H_    0.003649 0.729690 0.369178 0.162627
H13   H     H_    0.746051 0.842860 0.749010 0.204477
H14   H     H_    0.254841 0.658744 0.733831 0.175500
H15   H     H_    0.757060 0.350678 0.249114 0.159596
H16   H     H_    0.763506 0.646284 0.256943 0.217646
H17   H     H_    0.246051 0.342860 0.749010 0.204477
H18   H     H_    0.795725 0.441249 0.341670 0.081720
H19   H     H_    0.206526 0.557864 0.657592 0.078165
H20   H     H_    0.295725 0.941249 0.341670 0.081720
H21   H     H_    0.706526 0.057864 0.657592 0.078165
H22   H     H_    0.076931 0.327404 0.620805 0.208491
H23   H     H_    0.907471 0.279630 0.636772 0.140849
H24   H     H_    0.921886 0.671698 0.384863 0.160396
H25   H     H_    0.849523 0.344542 0.589775 0.173154
H26   H     H_    0.147540 0.654329 0.416019 0.184407
H27   H     H_    0.576931 0.827404 0.620805 0.208491
H28   H     H_    0.421886 0.171698 0.384863 0.160396
H29   H     H_    0.349523 0.844542 0.589775 0.173154
H30   H     H_    0.647540 0.154329 0.416019 0.184407
H31   H     H_    0.591442 0.340906 0.731654 0.086873
H32   H     H_    0.460298 0.691996 0.147191 0.084652
H33   H     H_    0.441781 0.257602 0.201644 0.029803
H34   H     H_    0.085055 0.724226 0.387771 0.210498
H35   H     H_    0.541823 0.691628 0.849334 0.086029
H36   H     H_    0.091442 0.840906 0.731654 0.086873
H37   H     H_    0.960298 0.191996 0.147191 0.084652
H38   H     H_    0.941781 0.757602 0.201644 0.029803
H39   H     H_    0.041823 0.191628 0.849334 0.086030
H40   H     H_    0.579782 0.374764 0.224945 0.102552
H41   H     H_    0.325820 0.495849 0.906046 0.042257
H42   H     H_    0.421689 0.353842 0.767771 0.048119
H43   H     H_    0.642687 0.616235 0.200294 0.076832
H44   H     H_    0.079782 0.874764 0.224945 0.102552
H45   H     H_    0.490912 0.773290 0.648525 0.151585
H46   H     H_    0.825820 0.995849 0.906046 0.042257
H47   H     H_    0.921689 0.853842 0.767771 0.048119
H48   H     H_    0.142687 0.116235 0.200294 0.076832
H49   H     H_    0.800722 0.128786 0.815868 0.141700
H50   H     H_    0.203578 0.872512 0.174096 0.177702
H51   H     H_    0.228244 0.099733 0.167570 0.160553
H52   H     H_    0.800189 0.861479 0.821445 0.145850
H53   H     H_    0.300722 0.628786 0.815868 0.141700
H54   H     H_    0.703578 0.372512 0.174096 0.177702
H55   H     H_    0.728244 0.599733 0.167570 0.160553
H56   H     H_    0.503649 0.229690 0.369178 0.162627
H57   H     H_    0.300189 0.361480 0.821445 0.145850
H58   H     H_    0.407471 0.779630 0.636772 0.140849
H59   H     H_    0.585055 0.224226 0.387771 0.210498
H60   H     H_    0.568867 0.341507 0.095225 0.163766
O1    O     O_R   0.746490 0.236330 0.638080 -0.651986
O2    O     O_R   0.325830 0.813840 0.483730 -0.606523
O3    O     O_R   0.325830 0.186160 0.483730 -0.642779
O4    O     O_R   0.674170 0.813840 0.516270 -0.641287
O5    O     O_R   0.174170 0.686160 0.516270 -0.622474
O6    O     O_R   0.825830 0.313840 0.483730 -0.606523
O7    O     O_R   0.825830 0.686160 0.483730 -0.642779
O8    O     O_R   0.174170 0.313840 0.516270 -0.641287
O9    O     O_R   0.739960 0.127620 0.525000 -0.646672
O10   O     O_R   0.260040 0.872380 0.475000 -0.651990
O11   O     O_R   0.260040 0.127620 0.475000 -0.592497
O12   O     O_R   0.253510 0.763670 0.361920 -0.655384
O13   O     O_R   0.739960 0.872380 0.525000 -0.583029
O14   O     O_R   0.239960 0.627620 0.525000 -0.646672
O15   O     O_R   0.760040 0.372380 0.475000 -0.651990
O16   O     O_R   0.760040 0.627620 0.475000 -0.592497
O17   O     O_R   0.239960 0.372380 0.525000 -0.583029
O18   O     O_R   0.680700 0.294870 0.629350 -0.634305
O19   O     O_R   0.319300 0.705130 0.370650 -0.568534
O20   O     O_R   0.319300 0.294870 0.370650 -0.580686
O21   O     O_R   0.680700 0.705130 0.629350 -0.597494
O22   O     O_R   0.180700 0.794870 0.629350 -0.634305
O23   O     O_R   0.253510 0.236330 0.361920 -0.631842
O24   O     O_R   0.819300 0.205130 0.370650 -0.568534
O25   O     O_R   0.819300 0.794870 0.370650 -0.580686
O26   O     O_R   0.180700 0.205130 0.629350 -0.597494
O27   O     O_R   0.062020 0.072840 0.007170 -0.619452
O28   O     O_R   0.937980 0.927160 0.992830 -0.651312
O29   O     O_R   0.937980 0.072840 0.992830 -0.625159
O30   O     O_R   0.062020 0.927160 0.007170 -0.629522
O31   O     O_R   0.562020 0.572840 0.007170 -0.619452
O32   O     O_R   0.437980 0.427160 0.992830 -0.651312
O33   O     O_R   0.437980 0.572840 0.992830 -0.625159
O34   O     O_R   0.746490 0.763670 0.638080 -0.636453
O35   O     O_R   0.562020 0.427160 0.007170 -0.629522
O36   O     O_R   0.947860 0.073950 0.109290 -0.618714
O37   O     O_R   0.052140 0.926050 0.890710 -0.625907
O38   O     O_R   0.052140 0.073950 0.890710 -0.630803
O39   O     O_R   0.947860 0.926050 0.109290 -0.566772
O40   O     O_R   0.447860 0.573950 0.109290 -0.618714
O41   O     O_R   0.552140 0.426050 0.890710 -0.625907
O42   O     O_R   0.552140 0.573950 0.890710 -0.630803
O43   O     O_R   0.447860 0.426050 0.109290 -0.566772
O44   O     O_2   0.802614 0.546563 0.318246 -0.614556
O45   O     O_R   0.246490 0.736330 0.638080 -0.651987
O46   O     O_2   0.200434 0.452393 0.680442 -0.581152
O47   O     O_2   0.302614 0.046563 0.318246 -0.614556
O48   O     O_2   0.700434 0.952393 0.680442 -0.581152
O49   O     O_2   0.544373 0.266545 0.820023 -0.576322
O50   O     O_2   0.415952 0.761776 0.244305 -0.565160
O51   O     O_2   0.415622 0.354167 0.262220 -0.538345
O52   O     O_2   0.585299 0.764926 0.758827 -0.594293
O53   O     O_2   0.044373 0.766545 0.820023 -0.576322
O54   O     O_2   0.915952 0.261776 0.244305 -0.565160
O55   O     O_2   0.915621 0.854167 0.262220 -0.538345
O56   O     O_R   0.753510 0.263670 0.361920 -0.655384
O57   O     O_2   0.085299 0.264926 0.758827 -0.594293
O58   O     O_2   0.617534 0.296339 0.254953 -0.617236
O59   O     O_2   0.251110 0.526528 0.936238 -0.543563
O60   O     O_2   0.385934 0.267651 0.749623 -0.541893
O61   O     O_2   0.642306 0.518183 0.150437 -0.607114
O62   O     O_2   0.117534 0.796339 0.254953 -0.617236
O63   O     O_2   0.751110 0.026528 0.936238 -0.543563
O64   O     O_2   0.885934 0.767651 0.749623 -0.541893
O65   O     O_2   0.142306 0.018183 0.150437 -0.607114
O66   O     O_R   0.753510 0.736330 0.361920 -0.631842
O67   O     O_R   0.246490 0.263670 0.638080 -0.636453
O68   O     O_R   0.674170 0.186160 0.516270 -0.622474
Zn1   Zn    Zn3+2 0.792340 0.208750 0.507670 0.977766
Zn2   Zn    Zn3+2 0.494040 0.500000 0.919480 0.919414
Zn3   Zn    Zn3+2 0.005960 0.000000 0.080520 1.002913
Zn4   Zn    Zn3+2 0.994040 0.000000 0.919480 0.919415
Zn5   Zn    Zn3+2 0.207660 0.791250 0.492330 0.956569
Zn6   Zn    Zn3+2 0.207660 0.208750 0.492330 0.994849
Zn7   Zn    Zn3+2 0.792340 0.791250 0.507670 1.038717
Zn8   Zn    Zn3+2 0.292340 0.708750 0.507670 0.977766
Zn9   Zn    Zn3+2 0.707660 0.291250 0.492330 0.956569
Zn10  Zn    Zn3+2 0.707660 0.708750 0.492330 0.994849
Zn11  Zn    Zn3+2 0.292340 0.291250 0.507670 1.038717
Zn12  Zn    Zn3+2 0.505960 0.500000 0.080520 1.002913

loop_
_geom_bond_atom_site_label_1
_geom_bond_atom_site_label_2
_ccdc_geom_bond_type
O4    Zn10  S    
C30   H49   S    
C7    H4    S    
O38   Zn4   S    
O66   Zn10  S    
C176  C182  S    
C5    H2    S    
C124  C133  A    
C94   C196  S    
C50   C59   A    
C82   C198  A    
C155  C207  A    
C52   C61   A    
O18   Zn9   S    
C10   H7    S    
O20   Zn11  S    
C54   C63   A    
C58   C60   A    
C30   C131  A    
O13   Zn7   S    
C73   C74   A    
C61   C63   A    
C56   H59   S    
C62   C64   A    
C131  C140  A    
C91   C96   A    
C50   C90   A    
C162  C171  A    
C70   C74   A    
C4    C12   A    
C40   O39   A    
C24   C85   A    
C88   C97   A    
C11   H8    S    
C12   C115  S    
C49   C69   A    
C150  C203  A    
C1    O18   A    
C158  C167  A    
C193  O9    A    
C23   H11   S    
C188  C205  A    
C166  C174  A    
C150  C159  A    
C195  O11   A    
C137  C146  A    
C127  C136  A    
C86   C90   A    
C71   C73   A    
C179  C188  A    
C124  C203  A    
C82   C91   A    
C51   C66   A    
C88   C197  S    
C52   C72   A    
C16   C118  S    
C181  C190  A    
C33   C135  A    
C114  H39   S    
C54   C70   A    
C34   C136  A    
C189  C206  A    
C117  H42   S    
O56   Zn9   S    
C164  C173  A    
C163  C172  A    
C119  O62   D    
C187  O26   A    
C6    C151  A    
O9    Zn1   S    
C173  C182  A    
C104  O48   D    
O40   Zn12  S    
C176  O66   A    
C201  O17   A    
C79   C85   A    
C11   C157  A    
C115  H40   S    
C107  C169  S    
C120  O63   D    
C27   H15   S    
C57   C78   A    
O25   Zn7   S    
C176  O25   A    
C125  C148  A    
C23   C186  A    
C126  C147  A    
C56   C59   A    
O32   Zn2   S    
C8    C17   A    
O45   Zn8   S    
C80   C88   A    
C122  H48   S    
C104  H21   S    
C102  O46   D    
C117  O60   D    
C111  H38   S    
O23   Zn6   S    
C84   C93   A    
C48   C67   A    
C156  C208  A    
C86   C95   A    
C106  O50   D    
C7    C152  A    
C178  C186  A    
C24   C77   A    
C114  C174  S    
O14   Zn8   S    
C107  H33   S    
C2    C81   A    
O16   Zn10  S    
C78   C198  A    
O22   Zn5   S    
C55   C71   A    
C2    C75   A    
C168  C177  A    
C132  C178  S    
C78   C87   A    
C125  C204  A    
C200  O16   A    
C108  C170  S    
O33   Zn2   S    
C67   C77   A    
C195  O3    A    
C129  C144  A    
C40   C164  S    
C180  C189  A    
C15   C148  A    
C100  O44   D    
C154  O45   A    
C1    O1    A    
C116  H41   S    
C126  C205  A    
O6    Zn1   S    
C103  O47   D    
C69   C76   A    
C127  C141  A    
C46   C82   A    
C172  C181  A    
C74   C198  A    
C29   C38   A    
C26   H14   S    
C44   O32   A    
C45   O33   A    
C149  C158  A    
O24   Zn1   S    
C20   C122  S    
C152  C161  A    
C21   H9    S    
C55   C64   A    
C72   C75   A    
C26   C189  A    
C143  O21   A    
C121  H47   S    
C139  C148  A    
C42   O37   A    
C101  H29   S    
C9    H6    S    
C129  C208  A    
C6    H3    S    
C109  H36   S    
C155  C163  A    
C110  O54   D    
C18   C140  A    
C112  O12   A    
O43   Zn12  S    
C28   H16   S    
C105  H31   S    
C132  O23   A    
C100  H18   S    
C8    C153  A    
C122  O65   D    
C165  O24   A    
C91   C200  S    
C110  H37   S    
C113  H30   S    
C27   C190  A    
C194  O10   A    
C37   C138  A    
C39   O27   A    
C40   O28   A    
C28   C191  A    
O17   Zn11  S    
C167  C175  A    
C19   C121  S    
C83   C101  A    
C34   H53   S    
C46   H24   S    
C42   C162  S    
C200  O7    A    
C170  C179  A    
C35   H22   S    
C128  C140  A    
O2    Zn8   S    
O21   Zn10  S    
C32   C134  A    
C28   C37   A    
C96   C100  S    
C108  H35   S    
C31   H50   S    
C130  C142  A    
C50   C65   A    
C51   C79   A    
C118  O61   D    
O3    Zn11  S    
C190  C207  A    
C9    C155  A    
C3    C157  A    
C48   C113  A    
C51   C60   A    
C149  C202  A    
C109  C171  S    
C25   C33   A    
C110  C172  S    
C125  C134  A    
C21   C184  A    
C19   C144  A    
C154  C180  S    
O35   Zn12  S    
C43   O42   A    
C45   C159  S    
C87   C199  S    
C151  C204  A    
C183  C192  A    
C14   C145  A    
C65   C76   A    
O26   Zn6   S    
C16   C147  A    
O5    Zn5   S    
O37   Zn4   S    
C38   H57   S    
O7    Zn7   S    
C118  H43   S    
C49   C101  A    
C115  O58   D    
C98   C103  S    
C177  C185  A    
C17   C141  A    
O10   Zn5   S    
C143  O34   A    
C18   C120  S    
C41   O29   A    
C1    C175  S    
C65   C67   A    
C160  C169  A    
C194  O2    A    
C112  O19   A    
O12   Zn5   S    
C93   C99   A    
O67   Zn11  S    
C97   C102  S    
C81   C89   A    
C99   C104  S    
C92   C194  S    
C106  H32   S    
C44   O43   A    
C130  C139  A    
C41   O36   A    
C11   C20   A    
C53   C73   A    
C39   O38   A    
C196  O13   A    
C53   C57   A    
C42   O30   A    
C103  H20   S    
O29   Zn4   S    
C5    C150  A    
C15   C117  S    
O41   Zn2   S    
C36   H54   S    
C63   H12   S    
C4    C149  A    
C183  C187  S    
C134  C142  A    
C197  O5    A    
C123  C146  A    
C10   C19   A    
C199  O15   A    
C46   C54   A    
C90   H28   S    
C5    C14   A    
C68   H26   S    
C7    C16   A    
C126  C135  A    
C8    H5    S    
C41   C163  S    
C44   C160  S    
C64   H1    S    
C182  C191  A    
O39   Zn3   S    
O34   Zn7   S    
C38   C139  A    
C187  O67   A    
C61   H34   S    
C95   C195  S    
C123  C131  A    
C93   C193  S    
O30   Zn3   S    
C111  O55   D    
C174  C183  A    
C27   C36   A    
C4    H60   S    
C21   C30   A    
C13   C83   A    
C133  C141  A    
O36   Zn3   S    
C153  C162  A    
C47   O41   A    
C23   C32   A    
C185  C203  A    
C39   C166  S    
C60   H45   S    
C196  O4    A    
C66   C77   A    
C120  H46   S    
C17   C119  S    
C79   H27   S    
C62   H23   S    
C45   O40   A    
C3    C192  A    
C121  O64   D    
C112  C177  S    
C175  C184  A    
C68   C80   A    
C89   C201  S    
C84   C113  A    
C3    C130  A    
O28   Zn4   S    
C29   H17   S    
C31   C133  A    
C35   C81   A    
C95   C98   A    
C92   C98   A    
C83   C92   A    
C127  C206  A    
C66   C69   A    
O1    Zn1   S    
C159  C168  A    
C12   C146  A    
O68   Zn9   S    
C116  O59   D    
C6    C15   A    
C26   C34   A    
C129  C138  A    
O11   Zn6   S    
O8    Zn6   S    
C13   C86   A    
C25   H13   S    
C128  C207  A    
C59   H56   S    
C136  C145  A    
C52   C68   A    
C22   H10   S    
C184  C202  A    
C22   C31   A    
C35   C55   A    
C165  O56   A    
C20   C142  A    
C152  C205  A    
C10   C156  A    
C154  O22   A    
C49   C58   A    
C105  C167  S    
C89   C97   A    
C114  O57   D    
C106  C168  S    
C128  C137  A    
C37   H55   S    
C109  O53   D    
C25   C188  A    
C85   C94   A    
C9    C18   A    
C13   C76   A    
C138  C147  A    
C87   C96   A    
C58   H58   S    
C29   C192  A    
C186  C204  A    
C193  O68   A    
C161  C170  A    
C43   C161  S    
C135  C144  A    
C143  C179  S    
C171  C180  A    
C105  O49   D    
C169  C178  A    
O42   Zn2   S    
C36   C137  A    
C107  O51   D    
C48   C56   A    
C43   O31   A    
C108  O52   D    
O19   Zn8   S    
C123  C202  A    
C111  C173  S    
C32   H51   S    
C47   O35   A    
C197  O14   A    
C157  C166  A    
C57   H25   S    
C124  C145  A    
O31   Zn12  S    
C165  C181  S    
C151  C160  A    
C22   C185  A    
C24   C84   A    
O27   Zn3   S    
C119  H44   S    
C71   C75   A    
C132  O20   A    
C94   C99   A    
C14   C116  S    
C33   H52   S    
C102  H19   S    
O15   Zn9   S    
C191  C208  A    
C2    C80   A    
C201  O8    A    
C153  C206  A    
C199  O6    A    
C156  C164  A    
C53   C62   A    
C70   C72   A    
C47   C158  S    
