data_str_m9_o18_o19_f0_sra.sym.6
_audit_creation_date              2012-12-11T15:27:42-0500
_audit_creation_method            fapswitch 2.2
_symmetry_space_group_name_H-M    P1
_symmetry_Int_Tables_number       1
_space_group_crystal_system       triclinic
_cell_length_a                    23.098569
_cell_length_b                    7.297701
_cell_length_c                    15.174097
_cell_angle_alpha                 89.03304
_cell_angle_beta                  107.935923
_cell_angle_gamma                 91.113565
_cell_volume                      2432.91724724

loop_
_atom_site_label
_atom_site_type_symbol
_atom_type_description
_atom_site_fract_x
_atom_site_fract_y
_atom_site_fract_z
_atom_type_partial_charge
O1    O     O_R   0.711000 0.648610 0.341170 -0.536124
O2    O     O_R   0.289000 0.351390 0.658830 -0.537952
O3    O     O_R   0.789000 0.148610 0.158830 -0.540874
O4    O     O_R   0.211000 0.851390 0.841170 -0.535020
O5    O     O_R   0.829650 0.322030 0.336650 -0.535318
O6    O     O_R   0.170350 0.677970 0.663350 -0.537726
O7    O     O_R   0.670350 0.822030 0.163350 -0.536044
O8    O     O_R   0.329650 0.177970 0.836650 -0.540709
C1    C     C_R   0.854273 0.486434 0.356779 0.714566
C2    C     C_R   0.145816 0.513605 0.642909 0.718002
C3    C     C_R   0.645761 0.985389 0.143086 0.718955
C4    C     C_R   0.354187 0.014878 0.857115 0.720769
O9    O     O_R   0.713950 0.319280 0.352070 -0.537927
O10   O     O_R   0.286050 0.680720 0.647930 -0.539576
O11   O     O_R   0.786050 0.819280 0.147930 -0.538726
O12   O     O_R   0.213950 0.180720 0.852070 -0.539153
O13   O     O_R   0.672470 0.142870 0.174360 -0.534034
O14   O     O_R   0.327530 0.857130 0.825640 -0.530985
O15   O     O_R   0.827530 0.642870 0.325640 -0.533856
O16   O     O_R   0.172470 0.357130 0.674360 -0.531826
C5    C     C_R   0.702093 0.485179 0.376525 0.689827
C6    C     C_R   0.298204 0.514376 0.623630 0.681774
C7    C     C_R   0.798698 0.989286 0.124470 0.687191
C8    C     C_R   0.201543 0.010252 0.875881 0.686552
O17   O     O_3   0.736530 0.478650 0.191680 -0.379957
O18   O     O_3   0.263470 0.521350 0.808320 -0.375549
O19   O     O_3   0.763470 0.978650 0.308320 -0.373848
O20   O     O_3   0.236530 0.021350 0.691680 -0.376620
V1    V     V_3+5 0.752500 0.206170 0.260820 1.432155
V2    V     V_3+5 0.247500 0.793830 0.739180 1.442460
V3    V     V_3+5 0.747500 0.706170 0.239180 1.430162
V4    V     V_3+5 0.252500 0.293830 0.760820 1.436127
C9    C     C_R   0.827873 0.002505 0.051700 -0.078469
C10   C     C_R   0.171864 0.989260 0.947950 -0.068366
C11   C     C_R   0.674475 0.479220 0.451161 -0.072070
C12   C     C_R   0.327799 0.514335 0.550971 -0.072405
C13   C     C_R   0.824018 0.082927 0.895311 -0.133215
C14   C     C_R   0.171447 0.843884 0.091806 -0.126681
C15   C     C_R   0.676319 0.347163 0.598768 -0.128384
C16   C     C_R   0.332691 0.621439 0.402631 -0.129976
C17   C     C_R   0.795748 0.068138 0.963946 -0.163781
C18   C     C_R   0.202778 0.903209 0.031424 -0.147234
C19   C     C_R   0.706268 0.397057 0.535299 -0.144973
C20   C     C_R   0.302649 0.612116 0.468931 -0.136744
C21   C     C_R   0.888814 0.955098 0.071520 -0.180444
C22   C     C_R   0.109374 0.017681 0.925507 -0.163453
C23   C     C_R   0.612414 0.511394 0.430901 -0.167837
C24   C     C_R   0.384333 0.432103 0.567960 -0.183595
C25   C     C_R   0.918137 0.960723 0.002236 0.080205
C26   C     C_R   0.075344 0.943402 0.981319 0.082252
C27   C     C_R   0.579512 0.444308 0.489937 0.084834
C28   C     C_R   0.420574 0.463715 0.508641 0.088562
C29   C     C_R   0.885122 0.029955 0.913046 0.013852
C30   C     C_R   0.107575 0.859602 0.067292 0.005666
C31   C     C_R   0.612838 0.369168 0.577080 0.008006
C32   C     C_R   0.391223 0.546953 0.420727 0.019879
C33   C     C_R   0.980053 0.907728 0.020532 -0.120783
C34   C     C_R   0.010470 0.952031 0.954406 -0.095427
C35   C     C_R   0.514735 0.452000 0.464600 -0.094058
C36   C     C_R   0.484542 0.421933 0.533151 -0.096091
C37   C     C_R   0.974283 0.990202 0.861969 0.365990
C38   C     C_R   0.011856 0.801804 0.099834 0.358579
C39   C     C_R   0.520486 0.357519 0.622874 0.367898
C40   C     C_R   0.478913 0.483264 0.371431 0.356502
C41   C     C_R   0.913142 0.039540 0.842782 -0.163106
C42   C     C_R   0.075207 0.785041 0.124688 -0.141064
C43   C     C_R   0.582408 0.317923 0.640810 -0.140150
C44   C     C_R   0.419765 0.547726 0.351352 -0.157296
H1    H     H_    0.088254 0.093939 0.862811 0.157901
H2    H     H_    0.913068 0.924161 0.142953 0.165791
H3    H     H_    0.397804 0.346617 0.628517 0.177259
H4    H     H_    0.590576 0.583526 0.367125 0.162071
H5    H     H_    0.251076 0.877602 0.048740 0.131917
H6    H     H_    0.748781 0.108482 0.948750 0.144557
H7    H     H_    0.258919 0.677122 0.455196 0.132646
H8    H     H_    0.754200 0.367611 0.550877 0.137876
H9    H     H_    0.797464 0.135419 0.828174 0.132668
H10   H     H_    0.197425 0.778710 0.156058 0.128833
H11   H     H_    0.703161 0.287145 0.663914 0.129201
H12   H     H_    0.310225 0.690988 0.337853 0.126606
C45   C     C_1   0.416500 0.009476 0.919779 -0.189981
C46   C     C_1   0.583246 0.992493 0.081202 -0.173009
C47   C     C_1   0.083538 0.505664 0.580258 -0.164799
C48   C     C_1   0.916871 0.494693 0.418299 -0.168167
C49   C     C_1   0.468872 0.005167 0.971121 -0.003792
C50   C     C_1   0.530747 0.998698 0.030481 0.007268
C51   C     C_1   0.031221 0.502030 0.528715 0.011420
C52   C     C_1   0.969402 0.498682 0.469038 0.003961
C53   C     C_1   0.879733 0.095660 0.749066 0.325679
N1    N     N_1   0.853172 0.140464 0.674218 -0.382185
C54   C     C_1   0.105862 0.684408 0.208858 0.363552
N2    N     N_1   0.130239 0.603993 0.276034 -0.372181
C55   C     C_1   0.614448 0.227665 0.727708 0.346488
N3    N     N_1   0.639824 0.155593 0.796989 -0.390078
C56   C     C_1   0.388188 0.605159 0.257073 0.336875
N4    N     N_1   0.363083 0.651047 0.181806 -0.378897
O21   O     O_3   0.996384 0.960063 0.788262 -0.579324
C57   C     C_3   0.978503 0.782145 0.752443 0.096831
H13   H     H_    0.966227 0.791762 0.675746 0.150004
H14   H     H_    0.937295 0.725331 0.767799 0.109676
C58   C     C_3   0.031282 0.648734 0.787403 -0.345612
H15   H     H_    0.068929 0.692350 0.760124 0.200754
H16   H     H_    0.048636 0.649662 0.864169 0.204012
C59   C     C_3   0.011176 0.453204 0.757068 -0.776392
H17   H     H_    0.979798 0.399396 0.794346 0.233321
H18   H     H_    0.051615 0.364321 0.773489 0.230149
H19   H     H_    0.987575 0.448415 0.681452 0.240178
O22   O     O_3   0.981532 0.700408 0.150410 -0.566274
C60   C     C_3   0.953975 0.545055 0.098680 0.094100
H20   H     H_    0.988348 0.459760 0.081076 0.117521
H21   H     H_    0.919106 0.586586 0.032986 0.097741
C61   C     C_3   0.921590 0.429784 0.154645 -0.288228
H22   H     H_    0.893454 0.519546 0.183043 0.196958
H23   H     H_    0.890555 0.330486 0.107863 0.163729
C62   C     C_3   0.966540 0.325103 0.233562 -0.689450
H24   H     H_    0.993768 0.231074 0.205740 0.215928
H25   H     H_    0.941192 0.242101 0.271923 0.202342
H26   H     H_    0.997623 0.422058 0.282278 0.259773
O23   O     O_3   0.495786 0.318432 0.693143 -0.580318
C63   C     C_3   0.505131 0.470251 0.752735 0.044560
H27   H     H_    0.478676 0.589676 0.715703 0.129104
H28   H     H_    0.554167 0.510764 0.779418 0.133303
C64   C     C_3   0.483355 0.416753 0.835087 -0.292056
H29   H     H_    0.435090 0.369404 0.809658 0.197785
H30   H     H_    0.511388 0.302419 0.874117 0.214746
C65   C     C_3   0.488339 0.577495 0.899700 -0.790783
H31   H     H_    0.536390 0.625480 0.927556 0.234977
H32   H     H_    0.471833 0.534736 0.958465 0.238952
H33   H     H_    0.459880 0.691255 0.861316 0.234465
O24   O     O_3   0.499861 0.438029 0.298372 -0.579213
C66   C     C_3   0.483547 0.253584 0.272645 0.092566
H34   H     H_    0.459497 0.252132 0.196957 0.148436
H35   H     H_    0.451843 0.187640 0.307015 0.110179
C67   C     C_3   0.540897 0.138589 0.292302 -0.326679
H36   H     H_    0.569673 0.193795 0.250987 0.202486
H37   H     H_    0.567471 0.146679 0.366827 0.207224
C68   C     C_3   0.525100 0.937808 0.268302 -0.782031
H38   H     H_    0.501928 0.875829 0.316005 0.234263
H39   H     H_    0.567491 0.861764 0.275611 0.224293
H40   H     H_    0.494829 0.924806 0.195911 0.243180

loop_
_geom_bond_atom_site_label_1
_geom_bond_atom_site_label_2
_ccdc_geom_bond_type
O17   V3    S    
C47   C51   T    
C51   C52   S    
O1    C5    A    
C55   N3    T    
O19   V1    S    
C9    C21   A    
O3    C7    A    
C56   N4    T    
C10   C18   A    
C66   C67   S    
O15   V3    S    
C67   C68   S    
C59   H18   S    
O21   C57   S    
C25   C33   A    
C33   C38   A    
C49   C50   S    
C41   C53   S    
C68   H39   S    
C35   C40   A    
C58   H15   S    
C36   C39   A    
C40   C44   A    
O9    V1    S    
C14   C18   A    
C60   H21   S    
O4    C8    A    
C64   H30   S    
C38   O22   S    
C62   H24   S    
C2    C47   S    
O1    V3    S    
O13   V1    S    
O22   C60   S    
O2    V4    S    
O3    V1    S    
C59   H17   S    
C22   H1    S    
C28   C36   A    
C17   H6    S    
C1    O15   A    
C15   C31   A    
C2    O16   A    
C7    C9    S    
O2    C6    A    
C16   H12   S    
C12   C24   A    
C10   C22   A    
C11   C19   A    
C16   C20   A    
C63   C64   S    
C13   C29   A    
C34   C37   A    
O11   C7    A    
C11   C23   A    
C35   C36   A    
O12   C8    A    
O10   V2    S    
C61   H23   S    
C61   H22   S    
C63   H28   S    
O5    V1    S    
C3    C46   S    
C68   H40   S    
C39   C43   A    
C44   C56   S    
O7    V3    S    
C38   C42   A    
O8    V4    S    
C64   H29   S    
C60   C61   S    
C54   N2    T    
O18   V4    S    
C64   C65   S    
C15   C19   A    
C14   H10   S    
C65   H33   S    
C16   C32   A    
C32   C44   A    
C13   H9    S    
C8    C10   S    
C26   C34   A    
C20   H7    S    
O7    C3    A    
O5    C1    A    
C39   O23   S    
C31   C43   A    
C14   C30   A    
C21   C25   A    
O8    C4    A    
C62   H26   S    
O9    C5    A    
C26   C30   A    
C67   H36   S    
O14   V2    S    
O6    V2    S    
C40   O24   S    
C58   C59   S    
C57   H14   S    
C12   C20   A    
C27   C35   A    
C24   H3    S    
C66   H34   S    
C29   C41   A    
C63   H27   S    
O16   V4    S    
C19   H8    S    
C62   H25   S    
C3    O13   A    
C18   H5    S    
C65   H32   S    
C21   H2    S    
C37   O21   S    
C48   C52   T    
C66   H35   S    
O6    C2    A    
C23   C27   A    
O23   C63   S    
O11   V3    S    
C42   C54   S    
C30   C42   A    
O12   V4    S    
C57   C58   S    
C6    C12   S    
C68   H38   S    
C22   C26   A    
C9    C17   A    
O10   C6    A    
O20   V2    S    
C5    C11   S    
C46   C50   T    
C60   H20   S    
C33   C34   A    
C65   H31   S    
C25   C29   A    
C67   H37   S    
C4    C45   S    
O24   C66   S    
C27   C31   A    
C59   H19   S    
C13   C17   A    
O4    V2    S    
C23   H4    S    
C1    C48   S    
C37   C41   A    
C24   C28   A    
C58   H16   S    
C57   H13   S    
C4    O14   A    
C43   C55   S    
C53   N1    T    
C61   C62   S    
C45   C49   T    
C28   C32   A    
C15   H11   S    
