data_str_m9_o5_o16_f0_sra.sym.94
_audit_creation_date              2013-03-05T16:09:07-0500
_audit_creation_method            fapswitch 2.2
_symmetry_space_group_name_H-M    P1
_symmetry_Int_Tables_number       1
_space_group_crystal_system       triclinic
_cell_length_a                    18.187571
_cell_length_b                    7.104029
_cell_length_c                    13.048902
_cell_angle_alpha                 90.282043
_cell_angle_beta                  72.328483
_cell_angle_gamma                 89.82197
_cell_volume                      1606.38824943

loop_
_atom_site_label
_atom_site_type_symbol
_atom_site_description
_atom_site_fract_x
_atom_site_fract_y
_atom_site_fract_z
_atom_type_partial_charge
O1    O     O_R   0.453880 0.506200 0.150010 -0.594907
O2    O     O_R   0.546120 0.006200 0.849990 -0.597165
O3    O     O_R   0.604080 0.177770 0.007280 -0.593997
O4    O     O_R   0.395920 0.677770 0.992720 -0.576475
C1    C     C_R   0.636075 0.344211 0.001158 1.048027
C2    C     C_R   0.363929 0.844646 0.998855 1.046784
O5    O     O_R   0.458010 0.176640 0.159130 -0.599741
O6    O     O_R   0.541990 0.676640 0.840870 -0.597612
O7    O     O_R   0.399010 0.004010 0.002930 -0.596301
O8    O     O_R   0.600990 0.504010 0.997070 -0.578631
C3    C     C_R   0.443614 0.346035 0.201431 1.026433
C4    C     C_R   0.556451 0.844570 0.798505 1.026555
O9    O     O_3   0.480810 0.338440 0.948570 -0.286789
O10   O     O_3   0.519190 0.838440 0.051430 -0.284612
V1    V     V_3+5 0.503560 0.064490 0.009540 1.220769
V2    V     V_3+5 0.496440 0.564490 0.990460 1.234552
C5    C     C_R   0.577230 0.828526 0.502281 -0.311302
C6    C     C_R   0.422733 0.408166 0.496069 -0.308759
H1    H     H_    0.651113 0.826174 0.298288 0.174365
H2    H     H_    0.349046 0.421820 0.700207 0.175390
H3    H     H_    0.541629 0.818119 0.449126 0.122353
H4    H     H_    0.458248 0.429988 0.548550 0.120588
C7    C     C_R   0.588622 0.850056 0.681351 -0.124420
C8    C     C_R   0.411465 0.358761 0.318414 -0.124490
C9    C     C_R   0.951627 0.865066 0.384340 0.237535
C10   C     C_R   0.049094 0.342536 0.616474 0.239903
C11   C     C_R   0.918821 0.864412 0.496613 -0.170525
C12   C     C_R   0.081609 0.339056 0.504157 -0.170788
C13   C     C_R   0.838595 0.858136 0.541235 -0.120917
C14   C     C_R   0.161718 0.350306 0.459046 -0.119120
C15   C     C_R   0.788049 0.855781 0.477438 0.066168
C16   C     C_R   0.212346 0.360067 0.522556 0.065430
C17   C     C_R   0.820487 0.858605 0.362632 -0.028606
C18   C     C_R   0.180133 0.364005 0.637312 -0.032364
C19   C     C_R   0.705819 0.850494 0.525401 0.122374
C20   C     C_R   0.294439 0.367678 0.474335 0.122938
C21   C     C_R   0.657768 0.836323 0.458601 0.163013
C22   C     C_R   0.342357 0.395709 0.540342 0.161778
C23   C     C_R   0.689466 0.833527 0.347822 -0.189881
C24   C     C_R   0.310745 0.405730 0.651054 -0.189721
C25   C     C_R   0.768629 0.850278 0.298608 -0.112156
C26   C     C_R   0.231974 0.381981 0.700826 -0.107803
C27   C     C_R   0.669065 0.859035 0.637815 -0.272511
C28   C     C_R   0.331155 0.346422 0.362526 -0.273952
C29   C     C_R   0.541674 0.834929 0.613169 -0.022127
C30   C     C_R   0.458264 0.391025 0.385504 -0.023074
C31   C     C_R   0.903045 0.864351 0.317611 -0.283681
C32   C     C_R   0.097718 0.355844 0.682759 -0.283941
H5    H     H_    0.700752 0.872489 0.694950 0.118584
H6    H     H_    0.299480 0.317614 0.306646 0.118186
H7    H     H_    0.817252 0.855069 0.627482 0.177366
H8    H     H_    0.182985 0.352642 0.372717 0.177944
C33   C     C_1   0.216167 0.858918 0.000828 -0.121487
C34   C     C_1   0.783813 0.358760 0.999277 -0.128682
C35   C     C_1   0.283481 0.852993 0.999784 -0.156302
C36   C     C_1   0.716514 0.352100 0.000324 -0.160384
O11   O     O_R   0.899030 0.205490 0.002790 -0.604368
O12   O     O_R   0.100970 0.705490 0.997210 -0.566435
O13   O     O_R   0.042000 0.536370 0.840840 -0.583902
O14   O     O_R   0.958000 0.036370 0.159160 -0.583621
C37   C     C_R   0.059960 0.367878 0.799048 0.991227
C38   C     C_R   0.940830 0.869017 0.201220 0.986789
O15   O     O_R   0.895930 0.535070 0.992690 -0.561883
O16   O     O_R   0.104070 0.035070 0.007310 -0.599230
O17   O     O_R   0.953870 0.707520 0.150040 -0.592483
O18   O     O_R   0.046130 0.207520 0.849960 -0.593705
C39   C     C_R   0.864201 0.366909 0.998596 1.026305
C40   C     C_R   0.135791 0.866658 0.001425 1.020071
O19   O     O_3   0.019200 0.374340 0.051340 -0.270861
O20   O     O_3   0.980800 0.874340 0.948660 -0.268953
V3    V     V_3+5 0.996440 0.648350 0.990470 1.286704
V4    V     V_3+5 0.003560 0.148350 0.009530 1.261028
C41   C     C_2   0.455925 0.827234 0.652325 0.441600
H9    H     H_    0.423907 0.808285 0.595082 0.041337
O21   O     O_2   0.419723 0.843616 0.747362 -0.612936
C42   C     C_2   0.543848 0.405605 0.345700 0.444475
H10   H     H_    0.575774 0.432632 0.402329 0.041864
O22   O     O_2   0.580017 0.387212 0.250769 -0.612279
N1    N     N_R   0.034538 0.859536 0.337722 0.207698
O23   O     O_R   0.075491 0.735792 0.369728 -0.412043
O24   O     O_R   0.069650 0.976064 0.262340 -0.400211
N2    N     N_R   0.966301 0.339247 0.663728 0.206902
O25   O     O_R   0.922770 0.456691 0.632093 -0.411964
O26   O     O_R   0.934035 0.222253 0.740410 -0.398311
C43   C     C_2   0.968053 0.878473 0.569008 0.681947
H11   H     H_    0.027982 0.920015 0.538024 0.003026
O27   O     O_2   0.942061 0.845735 0.665023 -0.512606
C44   C     C_2   0.032262 0.317779 0.432369 0.684042
H12   H     H_    0.972780 0.273171 0.464080 0.000988
O28   O     O_2   0.057611 0.348654 0.336075 -0.511222
C45   C     C_2   0.791143 0.867998 0.180219 0.524132
H13   H     H_    0.827948 0.981044 0.140473 0.022323
O29   O     O_2   0.764635 0.761894 0.126589 -0.569040
C46   C     C_2   0.210099 0.363642 0.819072 0.512715
H14   H     H_    0.175863 0.246305 0.858351 0.028893
O30   O     O_2   0.234683 0.473600 0.872890 -0.571825

loop_
_geom_bond_atom_site_label_1
_geom_bond_atom_site_label_2
_geom_bond_distance
_ccdc_geom_bond_type
C14   C16   1.415136 A    
C7    C29   1.411754 A    
C11   C13   1.398165 A    
C41   H9    1.085700 S    
C1    C36   1.460974 S    
O1    C3    1.308618 A    
C2    C35   1.460555 S    
O2    C4    1.311291 A    
C2    O7    1.310008 A    
C30   C42   1.487971 S    
C23   C25   1.392842 A    
C43   H11   1.083598 S    
O5    C3    1.313448 A    
C4    C7    1.462394 S    
C16   C20   1.434776 A    
O14   C38   1.310290 A    
C19   C21   1.412751 A    
C5    C29   1.394646 A    
H2    C24   1.086620 S    
O12   V3    1.973025 S    
O14   V4    2.041783 S    
C3    C8    1.461740 S    
C7    C27   1.401314 A    
C29   C41   1.487733 S    
O19   V3    2.191172 S    
C33   C40   1.460369 S    
O5    V1    2.032271 S    
C37   O18   1.307723 A    
O18   V4    2.035591 S    
C18   C26   1.437481 A    
C12   C44   1.488533 S    
C15   C17   1.434065 A    
O20   V3    1.748143 S    
C6    H4    1.085540 S    
C19   C27   1.416274 A    
C9    C31   1.416344 A    
C10   C32   1.415362 A    
C31   C38   1.465276 S    
C43   O27   1.221173 D    
C10   N2    1.443912 S    
C26   C46   1.478390 S    
C13   C15   1.415283 A    
C41   O21   1.219571 D    
O11   C39   1.317720 A    
C6    C30   1.394887 A    
C11   C43   1.489071 S    
C34   C36   1.220982 T    
C33   C35   1.220793 T    
O15   C39   1.320705 A    
O13   C37   1.311424 A    
C42   O22   1.219612 D    
C42   H10   1.086224 S    
O4    C2    1.310274 A    
C45   H13   1.076424 S    
N1    O24   1.300226 A    
C27   H5    1.075925 S    
C34   C39   1.460728 S    
O17   V3    2.030360 S    
C5    H3    1.085476 S    
C16   C18   1.432897 A    
O4    V2    1.987145 S    
O19   V4    1.744830 S    
C45   O29   1.221571 D    
O6    C4    1.310783 A    
O1    V2    2.034021 S    
C5    C21   1.402663 A    
C46   O30   1.220929 D    
O2    V1    2.028863 S    
H1    C23   1.086613 S    
O12   C40   1.319101 A    
C25   C45   1.479277 S    
C44   O28   1.221138 D    
N2    O26   1.300426 A    
C17   C31   1.437508 A    
C15   C19   1.436016 A    
C20   C28   1.415301 A    
C18   C32   1.436318 A    
C20   C22   1.412864 A    
O16   C40   1.318341 A    
O3    V1    1.991857 S    
C13   H7    1.073696 S    
C28   H6    1.076922 S    
C14   H8    1.074508 S    
C38   O17   1.308858 A    
C9    N1    1.444985 S    
O15   V3    1.991829 S    
O3    C1    1.311515 A    
C9    C11   1.404194 A    
C10   C12   1.404176 A    
C8    C30   1.412474 A    
C12   C14   1.398639 A    
C6    C22   1.402549 A    
C17   C25   1.438497 A    
C1    O8    1.309777 A    
C21   C23   1.384207 A    
O8    V2    1.975512 S    
C22   C24   1.384608 A    
C32   C37   1.465356 S    
C8    C28   1.401180 A    
C24   C26   1.392989 A    
O16   V4    1.987116 S    
O11   V4    1.970770 S    
O7    V1    1.977894 S    
C46   H14   1.076540 S    
N1    O23   1.300155 A    
C44   H12   1.083352 S    
O6    V2    2.041803 S    
N2    O25   1.300391 A    
O9    V2    1.745549 S    
O10   V1    1.748871 S    
O20   V4    2.186506 S    
O13   V3    2.032262 S    
