data_str_m2_o10_o16_f0_pcu.sym.103
_audit_creation_date              2012-12-10T16:44:13-0500
_audit_creation_method            fapswitch 2.2
_symmetry_space_group_name_H-M    P1
_symmetry_Int_Tables_number       1
_space_group_crystal_system       triclinic
_cell_length_a                    7.567504
_cell_length_b                    8.713009
_cell_length_c                    13.403018
_cell_angle_alpha                 96.180713
_cell_angle_beta                  79.014624
_cell_angle_gamma                 103.208398
_cell_volume                      842.690302584

loop_
_atom_site_label
_atom_site_type_symbol
_atom_type_description
_atom_site_fract_x
_atom_site_fract_y
_atom_site_fract_z
_atom_type_partial_charge
C1    C     C_R   0.544677 0.799582 0.504336 0.757070
C2    C     C_R   0.425382 0.519591 0.975626 0.064877
C3    C     C_R   0.472604 0.558964 0.872675 0.049848
C4    C     C_R   0.564852 0.559717 0.037193 0.085287
C5    C     C_R   0.719252 0.682257 0.009381 0.157731
C6    C     C_R   0.753653 0.737788 0.912268 -0.241390
C7    C     C_R   0.636301 0.672162 0.843170 -0.186541
C8    C     C_R   0.552608 0.485968 0.127342 -0.257545
C9    C     C_R   0.791460 0.697389 0.178999 -0.202676
C10   C     C_R   0.347689 0.493128 0.804811 -0.102319
C11   C     C_2   0.568627 0.967560 0.509908 0.421397
C12   C     C_R   0.402948 0.496460 0.693706 0.782731
C13   C     C_2   0.432549 0.031967 0.494276 -0.498199
C14   C     C_R   0.455012 0.200217 0.497032 0.899582
C15   C     C_R   0.598923 0.515354 0.306982 0.752019
C16   C     C_R   0.830897 0.752075 0.081309 -0.194217
C17   C     C_R   0.656814 0.560132 0.201342 -0.048640
C18   C     C_R   0.168793 0.414260 0.843625 -0.214014
C19   C     C_R   0.111150 0.405835 0.947685 -0.186668
C20   C     C_R   0.235185 0.463409 0.015206 0.149281
Cu1   Cu    Cu3+1 0.321300 0.483160 0.488710 0.954760
Cu2   Cu    Cu3+1 0.678700 0.516840 0.511290 0.973627
H1    H     H_    0.863380 0.763818 0.237631 0.151472
H2    H     H_    0.302466 0.959825 0.477865 0.152755
H3    H     H_    0.003084 0.607699 0.587767 0.212885
H4    H     H_    0.872000 0.831251 0.889433 0.149157
H5    H     H_    0.941451 0.854010 0.063866 0.129601
H6    H     H_    0.457669 0.374839 0.142456 0.127990
H7    H     H_    0.070427 0.363875 0.793598 0.182180
H8    H     H_    0.967092 0.357578 0.975679 0.145138
H9    H     H_    0.668187 0.721260 0.769592 0.172062
N1    N     N_2   0.947230 0.542220 0.528320 -0.202012
N2    N     N_2   0.052770 0.457780 0.471680 -0.065053
O1    O     O_R   0.383920 0.714220 0.492660 -0.620783
O2    O     O_R   0.685730 0.742660 0.511730 -0.548791
O3    O     O_R   0.275440 0.478800 0.636790 -0.581933
O4    O     O_R   0.577250 0.507240 0.655860 -0.579677
O5    O     O_R   0.314270 0.257340 0.488270 -0.578371
O6    O     O_R   0.616080 0.285780 0.507340 -0.523110
O7    O     O_R   0.422750 0.492760 0.344140 -0.579665
O8    O     O_R   0.724560 0.521200 0.363210 -0.633130
C21   C     C_3   0.997300 0.372315 0.379443 0.000925
C22   C     C_3   0.073433 0.223025 0.347472 -0.815588
H10   H     H_    0.223046 0.248259 0.319030 0.252077
H11   H     H_    0.038085 0.143656 0.410981 0.307186
H12   H     H_    0.008022 0.157434 0.283407 0.176088
H13   H     H_    0.851585 0.325775 0.386909 0.218459
H14   H     H_    0.037413 0.454054 0.318916 0.146325
C23   C     C_3   0.153048 0.490645 0.125880 -0.406201
C24   C     C_3   0.208219 0.664053 0.166022 -0.772264
H15   H     H_    0.353441 0.698293 0.176613 0.256512
H16   H     H_    0.186506 0.744333 0.112810 0.244067
H17   H     H_    0.125699 0.684199 0.241885 0.228063
H18   H     H_    0.000243 0.459069 0.136625 0.202216
H19   H     H_    0.189703 0.409647 0.171807 0.190820
F1    F     F_    0.730826 0.055484 0.533244 -0.655402

loop_
_geom_bond_atom_site_label_1
_geom_bond_atom_site_label_2
_ccdc_geom_bond_type
C24   H16   S    
C22   H10   S    
C20   C23   S    
Cu2   O4    S    
Cu1   N2    S    
C14   O5    A    
C22   H11   S    
C2    C4    A    
C19   C20   A    
C1    C11   S    
C4    C8    A    
C23   H19   S    
N1    N2    D    
H3    N1    S    
C2    C3    A    
Cu1   O3    S    
C21   H14   S    
C13   C14   S    
Cu2   O2    S    
C11   C13   D    
C15   O8    A    
C6    H4    S    
Cu1   O7    S    
Cu2   N1    S    
C10   C18   A    
N2    C21   S    
C10   C12   S    
C16   H5    S    
C9    C16   A    
C1    O1    A    
C23   C24   S    
C6    C7    A    
C3    C7    A    
C21   H13   S    
C5    C6    A    
C8    H6    S    
C22   H12   S    
C15   O7    A    
C24   H17   S    
C12   O3    A    
C21   C22   S    
Cu2   O6    S    
C18   H7    S    
C23   H18   S    
Cu2   O8    S    
Cu1   O5    S    
C7    H9    S    
C1    O2    A    
C15   C17   S    
C18   C19   A    
C9    C17   A    
C12   O4    A    
C3    C10   A    
C9    H1    S    
C5    C16   A    
Cu1   O1    S    
C24   H15   S    
C14   O6    A    
Cu1   Cu2   S    
C19   H8    S    
C2    C20   A    
C11   F1    S    
C8    C17   A    
C13   H2    S    
C4    C5    A    
