data_str_m2_o18_o24_f0_pcu.sym.185
_audit_creation_date              2013-03-05T16:00:57-0500
_audit_creation_method            fapswitch 2.2
_symmetry_space_group_name_H-M    P1
_symmetry_Int_Tables_number       1
_space_group_crystal_system       triclinic
_cell_length_a                    10.666759
_cell_length_b                    14.761366
_cell_length_c                    14.912977
_cell_angle_alpha                 63.715505
_cell_angle_beta                  104.496305
_cell_angle_gamma                 102.099399
_cell_volume                      2025.09272596

loop_
_atom_site_label
_atom_site_type_symbol
_atom_site_description
_atom_site_fract_x
_atom_site_fract_y
_atom_site_fract_z
_atom_type_partial_charge
O1    O     O_R   0.454850 0.022100 0.338110 -0.599630
O2    O     O_R   0.545150 0.977900 0.661890 -0.593803
O3    O     O_R   0.512700 0.160150 0.379180 -0.547426
O4    O     O_R   0.487300 0.839850 0.620820 -0.525897
C1    C     C_R   0.474425 0.120188 0.312898 0.787286
C2    C     C_R   0.524299 0.880086 0.687275 0.786953
O5    O     O_R   0.287930 0.931000 0.479440 -0.607021
O6    O     O_R   0.712070 0.069000 0.520560 -0.609771
O7    O     O_R   0.345780 0.069050 0.520520 -0.512467
O8    O     O_R   0.654220 0.930950 0.479480 -0.533607
C3    C     C_R   0.260051 0.000108 0.500325 0.821092
C4    C     C_R   0.739606 0.000481 0.498665 0.823825
Cu1   Cu    Cu3+1 0.465750 0.918270 0.475680 0.986721
Cu2   Cu    Cu3+1 0.534250 0.081730 0.524320 0.988249
C5    C     C_3   0.037588 0.081121 0.416413 -0.200798
C6    C     C_3   0.961344 0.920361 0.580866 -0.222316
C7    C     C_3   0.984822 0.087139 0.501003 0.174371
C8    C     C_3   0.013829 0.914374 0.496188 0.147201
H1    H     H_    0.070323 0.146635 0.349401 0.185950
H2    H     H_    0.928694 0.854812 0.647893 0.187041
C9    C     C_3   0.876003 0.001299 0.497587 -0.077699
C10   C     C_3   0.123079 0.000028 0.499917 -0.069946
C11   C     C_3   0.927654 0.994685 0.413898 0.145942
C12   C     C_3   0.071123 0.006888 0.583476 0.149001
C13   C     C_R   0.430357 0.189653 0.208383 -0.029572
C14   C     C_R   0.559616 0.812294 0.794108 -0.019876
C15   C     C_R   0.248790 0.245034 0.071366 -0.169055
C16   C     C_R   0.725193 0.753215 0.943148 -0.158468
C17   C     C_R   0.307132 0.168209 0.157584 -0.175654
C18   C     C_R   0.684352 0.826246 0.846837 -0.166383
C19   C     C_R   0.496414 0.287089 0.170550 -0.204895
C20   C     C_R   0.475581 0.726315 0.838811 -0.201966
C21   C     C_R   0.434032 0.368510 0.090387 0.081827
C22   C     C_R   0.521366 0.643362 0.927927 0.089793
C23   C     C_R   0.310992 0.345876 0.036698 0.123786
C24   C     C_R   0.645100 0.661026 0.985513 0.101975
C25   C     C_R   0.493143 0.471037 0.060979 -0.021511
C26   C     C_R   0.448502 0.544554 0.961756 -0.001967
C27   C     C_R   0.334240 0.514573 0.901210 0.145887
C28   C     C_R   0.596963 0.501517 0.127096 0.170610
C29   C     C_R   0.255709 0.423010 0.947162 0.089320
C30   C     C_R   0.682923 0.589651 0.085832 0.131558
H3    H     H_    0.375108 0.726310 0.801873 0.137695
H4    H     H_    0.595793 0.298399 0.207003 0.151302
H5    H     H_    0.750635 0.893196 0.813053 0.134598
H6    H     H_    0.253653 0.093180 0.186978 0.136145
H7    H     H_    0.154535 0.224366 0.033007 0.147341
H8    H     H_    0.820913 0.769497 0.982595 0.153027
N1    N     N_R   0.585750 0.204560 0.560800 -0.228341
N2    N     N_R   0.414250 0.795440 0.439200 -0.228665
C31   C     C_R   0.755355 0.300670 0.630383 -0.238536
C32   C     C_R   0.286573 0.729903 0.320433 -0.239791
C33   C     C_R   0.704086 0.211234 0.618849 -0.011740
C34   C     C_R   0.318077 0.804582 0.357709 -0.008481
C35   C     C_R   0.512333 0.285148 0.512646 0.499929
C36   C     C_R   0.483588 0.712430 0.487190 0.477431
C37   C     C_R   0.564160 0.381639 0.515373 -0.125247
C38   C     C_R   0.465300 0.639842 0.444515 -0.119994
C39   C     C_R   0.686237 0.386402 0.579691 -0.009568
C40   C     C_R   0.360587 0.647430 0.362286 -0.001015
C41   C     C_R   0.498357 0.472249 0.459869 0.019796
C42   C     C_R   0.544134 0.558038 0.483266 0.029414
C43   C     C_R   0.670831 0.562408 0.539213 -0.182954
C44   C     C_R   0.396340 0.484440 0.375761 -0.200899
C45   C     C_R   0.739066 0.477572 0.590311 0.373464
C46   C     C_R   0.330801 0.571279 0.325057 0.343794
H9    H     H_    0.264611 0.870234 0.321787 0.140829
H10   H     H_    0.759942 0.146956 0.655257 0.143053
H11   H     H_    0.851114 0.302817 0.676404 0.191871
H12   H     H_    0.204560 0.737876 0.258808 0.194276
H13   H     H_    0.719177 0.632233 0.544146 0.201995
H14   H     H_    0.373317 0.431904 0.341071 0.217053
C47   C     C_3   0.966771 0.186743 0.501148 -0.736095
H15   H     H_    0.056304 0.240371 0.487900 0.290975
H16   H     H_    0.885969 0.222165 0.439227 0.222379
H17   H     H_    0.944821 0.172278 0.575466 0.216195
C48   C     C_3   0.026288 0.814591 0.493864 -0.717851
H18   H     H_    0.929532 0.768673 0.493930 0.247849
H19   H     H_    0.061794 0.830069 0.424015 0.218758
H20   H     H_    0.095641 0.771328 0.561842 0.246435
N3    N     N_R   0.557453 0.690131 0.587986 0.109829
O9    O     O_R   0.535752 0.600684 0.660023 -0.381604
O10   O     O_R   0.664371 0.746747 0.602956 -0.368594
N4    N     N_R   0.376778 0.266329 0.475858 0.111032
O11   O     O_R   0.292187 0.273567 0.521035 -0.403275
O12   O     O_R   0.337139 0.256080 0.390568 -0.385908
C49   C     C_3   0.844955 0.988054 0.317349 -0.838693
H21   H     H_    0.908906 0.986232 0.269957 0.228762
H22   H     H_    0.775203 0.917788 0.337194 0.249654
H23   H     H_    0.790071 0.055287 0.273810 0.226749
C50   C     C_3   0.152940 0.012831 0.680552 -0.798467
H24   H     H_    0.088330 0.014104 0.727795 0.224266
H25   H     H_    0.207832 0.945553 0.723945 0.218306
H26   H     H_    0.222720 0.083032 0.661567 0.281318
C51   C     C_3   0.116898 0.405389 0.896362 -0.711886
H27   H     H_    0.080210 0.477765 0.838871 0.294970
H28   H     H_    0.110523 0.353204 0.859552 0.233279
H29   H     H_    0.051396 0.372727 0.953240 0.236595
C52   C     C_3   0.811223 0.610321 0.150107 -0.802562
H30   H     H_    0.833086 0.546884 0.225567 0.253663
H31   H     H_    0.893096 0.621873 0.111160 0.260813
H32   H     H_    0.810218 0.679159 0.162205 0.219581
C53   C     C_3   0.305068 0.564371 0.785898 -0.763548
H33   H     H_    0.226432 0.614273 0.758221 0.226496
H34   H     H_    0.392442 0.607266 0.753832 0.281572
H35   H     H_    0.273384 0.505823 0.754580 0.260901
C54   C     C_3   0.603166 0.452439 0.241473 -0.850689
H36   H     H_    0.512609 0.402686 0.263024 0.254896
H37   H     H_    0.687254 0.407425 0.281039 0.226236
H38   H     H_    0.613196 0.512128 0.269809 0.238935
N5    N     N_R   0.856219 0.482421 0.661026 0.114598
O13   O     O_R   0.944632 0.560224 0.635182 -0.404555
O14   O     O_R   0.859937 0.421904 0.756619 -0.379661
N6    N     N_R   0.234434 0.580379 0.235575 0.108482
O15   O     O_R   0.155615 0.501072 0.232616 -0.346682
O16   O     O_R   0.240763 0.661876 0.151632 -0.379902

loop_
_geom_bond_atom_site_label_1
_geom_bond_atom_site_label_2
_geom_bond_distance
_ccdc_geom_bond_type
C38   C42   1.436520 A    
C49   H21   1.109710 S    
C43   C45   1.392112 A    
C13   C19   1.392456 A    
C6    C9    1.540873 S    
C15   C17   1.389391 A    
C54   H37   1.109883 S    
C47   H15   1.103075 S    
C18   H5    1.083905 S    
C24   C30   1.411038 A    
N5    O13   1.301085 A    
N3    O9    1.300439 A    
C51   H29   1.110588 S    
C36   N3    1.437433 S    
C27   C29   1.410862 A    
C29   C51   1.511769 S    
C48   H18   1.109627 S    
C5    H1    1.110433 S    
N2    C34   1.355034 A    
O1    C1    1.308367 A    
C25   C26   1.426766 A    
N4    O12   1.301467 A    
C25   C28   1.427724 A    
C26   C27   1.439944 A    
C37   C39   1.420087 A    
Cu2   N1    2.047352 S    
C38   C40   1.417380 A    
O4    Cu1   1.929032 S    
C33   H10   1.081120 S    
C45   N5    1.431245 S    
C32   C40   1.406490 A    
C21   C23   1.414990 A    
C5    C10   1.544055 S    
N5    O14   1.300205 A    
C51   H27   1.107101 S    
C54   H36   1.106671 S    
C19   C21   1.407464 A    
C8    C10   1.540097 S    
C6    H2    1.110450 S    
C5    C11   1.548412 S    
C40   C46   1.409770 A    
C6    C12   1.548656 S    
C11   C49   1.521055 S    
Cu1   Cu2   2.725392 S    
C7    C47   1.523322 S    
C47   H16   1.109882 S    
O2    C2    1.304213 A    
O2    Cu2   1.934427 S    
N3    O10   1.298913 A    
C32   C34   1.389617 A    
N6    O15   1.301475 A    
C48   H19   1.109564 S    
C13   C17   1.393283 A    
C7    C12   1.537329 S    
C19   H4    1.079253 S    
C8    C11   1.536210 S    
N4    O11   1.299240 A    
O4    C2    1.310695 A    
C50   H24   1.109914 S    
C14   C20   1.389820 A    
C34   H9    1.081837 S    
C15   C23   1.414019 A    
N1    C35   1.377132 A    
C4    C9    1.456487 S    
C21   C25   1.425122 A    
C31   C33   1.386707 A    
C44   C46   1.398653 A    
C41   C44   1.410205 A    
O5    C3    1.296556 A    
O7    Cu2   1.968355 S    
C42   C43   1.404743 A    
C50   H25   1.110301 S    
C52   H30   1.106577 S    
O6    C4    1.296514 A    
C53   H34   1.098091 S    
C37   C41   1.445322 A    
O7    C3    1.306148 A    
O3    Cu2   1.929033 S    
O8    C4    1.304822 A    
C28   C54   1.519146 S    
C1    C13   1.456547 S    
C52   H31   1.110372 S    
C43   H13   1.076590 S    
C14   C18   1.391329 A    
C35   C37   1.430379 A    
C54   H38   1.110825 S    
C10   C12   1.533381 S    
O1    Cu1   1.934427 S    
C12   C50   1.520859 S    
C48   H20   1.109964 S    
C15   H7    1.081296 S    
C5    C7    1.546518 S    
C16   H8    1.080728 S    
O6    Cu2   1.961673 S    
C46   N6    1.437997 S    
C22   C26   1.433641 A    
C28   C30   1.409002 A    
O3    C1    1.305807 A    
O8    Cu1   1.968356 S    
N6    O16   1.301296 A    
C51   H28   1.110503 S    
C27   C53   1.517499 S    
C3    C10   1.459286 S    
C17   H6    1.083764 S    
C9    C11   1.531467 S    
C30   C52   1.520541 S    
C39   C45   1.407111 A    
C50   H26   1.109193 S    
C2    C14   1.458475 S    
C8    C48   1.522491 S    
N1    C33   1.352323 A    
C16   C18   1.388228 A    
C47   H17   1.108205 S    
C20   H3    1.075400 S    
C36   C38   1.430169 A    
C53   H35   1.111439 S    
C22   C24   1.426207 A    
C44   H14   1.068279 S    
C41   C42   1.417976 A    
C23   C29   1.402793 A    
N2    C36   1.378014 A    
C32   H12   1.081028 S    
Cu1   N2    2.047352 S    
O5    Cu1   1.961673 S    
C52   H32   1.110444 S    
C31   C39   1.407613 A    
C16   C24   1.415026 A    
C6    C8    1.545771 S    
C49   H23   1.109881 S    
C53   H33   1.110390 S    
C49   H22   1.109887 S    
C31   H11   1.081706 S    
C35   N4    1.427695 S    
C20   C22   1.410183 A    
C7    C9    1.538343 S    
