data_str_m2_o4_o22_f0_pcu.sym.141
_audit_creation_date              2012-12-10T19:03:04-0500
_audit_creation_method            fapswitch 2.2
_symmetry_space_group_name_H-M    P1
_symmetry_Int_Tables_number       1
_space_group_crystal_system       triclinic
_cell_length_a                    11.095524
_cell_length_b                    11.006057
_cell_length_c                    9.739784
_cell_angle_alpha                 88.604938
_cell_angle_beta                  89.127377
_cell_angle_gamma                 96.05841
_cell_volume                      1182.21950016

loop_
_atom_site_label
_atom_site_type_symbol
_atom_type_description
_atom_site_fract_x
_atom_site_fract_y
_atom_site_fract_z
_atom_type_partial_charge
C1    C     C_R   0.503154 0.262572 0.502085 0.938228
C2    C     C_3   0.874907 0.492406 0.497791 -0.095911
C3    C     C_3   0.938614 0.628796 0.489216 -0.066207
C4    C     C_3   0.926665 0.417699 0.377879 -0.091732
C5    C     C_R   0.488133 0.055138 0.629045 0.028930
C6    C     C_R   0.501397 0.127574 0.505438 -0.144766
C7    C     C_R   0.498095 0.066811 0.378572 -0.110386
C8    C     C_R   0.488192 0.939028 0.373052 -0.158617
C9    C     C_R   0.485463 0.868657 0.494608 -0.099102
C10   C     C_R   0.483491 0.928501 0.617673 0.072512
C11   C     C_3   0.564617 0.907834 0.729143 -0.484734
C12   C     C_R   0.259831 0.505069 0.501783 0.910761
C13   C     C_3   0.574586 0.042045 0.749934 0.294940
C14   C     C_R   0.596395 0.551187 0.069804 0.138574
C15   C     C_R   0.418290 0.419976 0.077806 0.477639
C16   C     C_R   0.422870 0.418361 0.928420 0.161334
C17   C     C_R   0.598657 0.547446 0.926493 0.221912
C18   C     C_3   0.679662 0.663923 0.917588 -0.471312
C19   C     C_3   0.667874 0.672326 0.073723 -0.408838
C20   C     C_R   0.496242 0.736533 0.497919 0.758200
C21   C     C_R   0.738209 0.494820 0.498650 0.877529
C22   C     C_3   0.056861 0.424097 0.638879 0.539983
C23   C     C_3   0.913578 0.428380 0.633719 0.082439
C24   C     C_3   0.078506 0.633297 0.514733 -0.414367
C25   C     C_3   0.066623 0.451706 0.365455 -0.010122
C26   C     C_3   0.119367 0.502630 0.507103 -0.192575
Cu1   Cu    Cu3+1 0.499990 0.499980 0.640670 1.041110
Cu2   Cu    Cu3+1 0.500010 0.500020 0.359330 1.019603
H1    H     H_    0.128409 0.696147 0.437305 0.171388
H2    H     H_    0.925458 0.663335 0.383335 0.193420
H3    H     H_    0.506837 0.118142 0.282384 0.235745
H4    H     H_    0.489508 0.896251 0.274249 0.210169
H5    H     H_    0.510215 0.849366 0.807064 0.255346
H6    H     H_    0.651411 0.876277 0.692627 0.168017
H7    H     H_    0.668150 0.082419 0.732270 0.210904
H8    H     H_    0.772713 0.648353 0.884646 0.203006
H9    H     H_    0.641386 0.735617 0.861144 0.220814
H10   H     H_    0.755345 0.670414 0.126867 0.184157
H11   H     H_    0.611945 0.744648 0.106883 0.242502
H12   H     H_    0.885834 0.490790 0.712102 0.172903
H13   H     H_    0.104168 0.675018 0.613553 0.267060
H14   H     H_    0.104590 0.365394 0.345136 0.252411
H15   H     H_    0.913755 0.320237 0.408973 0.247717
N1    N     N_R   0.500800 0.500930 0.147930 -0.272107
N2    N     N_R   0.500800 0.500890 0.852020 -0.200977
O1    O     O_R   0.500000 0.319640 0.618810 -0.557061
O2    O     O_R   0.500010 0.319680 0.381230 -0.534244
O3    O     O_R   0.317690 0.499960 0.618790 -0.535509
O4    O     O_R   0.317700 0.500000 0.381210 -0.533580
O5    O     O_R   0.499990 0.680320 0.618770 -0.582336
O6    O     O_R   0.500000 0.680360 0.381190 -0.600442
O7    O     O_R   0.682300 0.500000 0.618790 -0.549693
O8    O     O_R   0.682310 0.500040 0.381210 -0.606699
S1    S     S_3+6 0.091575 0.489591 0.810527 -0.026848
O9    O     O_2   0.040596 0.396168 0.916545 -0.255799
O10   O     O_2   0.221637 0.525849 0.840576 -0.288111
O11   O     O_3   0.022244 0.616028 0.837307 -0.614424
H16   H     H_    0.016064 0.622497 0.938375 0.369710
C27   C     C_3   0.862476 0.414008 0.237892 -0.763358
H17   H     H_    0.773004 0.358393 0.245804 0.251755
H18   H     H_    0.851555 0.506893 0.197540 0.233575
H19   H     H_    0.914875 0.366376 0.161878 0.276654
S2    S     S_3+6 0.521301 0.060153 0.922145 0.011815
O12   O     O_2   0.385423 0.036023 0.923876 -0.225634
O13   O     O_2   0.570449 0.967369 0.015993 -0.340135
O14   O     O_3   0.567720 0.199200 0.981184 -0.528537
H20   H     H_    0.644833 0.190105 0.028386 0.367889
S3    S     S_3+6 0.312404 0.301312 0.159119 0.021126
O15   O     O_2   0.189063 0.310610 0.101883 -0.289608
O16   O     O_2   0.351209 0.181190 0.118305 -0.248455
O17   O     O_3   0.290093 0.284797 0.326689 -0.497763
H21   H     H_    0.242904 0.203381 0.338193 0.385210
S4    S     S_3+6 0.100643 0.265643 0.635106 0.025215
O18   O     O_2   0.096451 0.207673 0.776531 -0.184346
O19   O     O_2   0.019162 0.186195 0.544521 -0.278721
O20   O     O_3   0.241167 0.257217 0.576509 -0.609993
H22   H     H_    0.255715 0.170792 0.592871 0.363357
C28   C     C_3   0.356665 0.314580 0.853795 -0.372904
H23   H     H_    0.314980 0.349427 0.766525 0.267408
H24   H     H_    0.419181 0.250781 0.821408 0.249174
H25   H     H_    0.281826 0.258669 0.905088 0.281103
S5    S     S_3+6 0.815314 0.290711 0.689360 0.019495
O21   O     O_2   0.763072 0.226854 0.565808 -0.357158
O22   O     O_2   0.873531 0.200504 0.776863 -0.179171
O23   O     O_3   0.702246 0.331377 0.788215 -0.498403
H26   H     H_    0.742706 0.364485 0.871400 0.342925
C29   C     C_3   0.880609 0.722185 0.577391 -0.800393
H27   H     H_    0.875197 0.694555 0.686618 0.273654
H28   H     H_    0.934816 0.812871 0.567216 0.271642
H29   H     H_    0.787789 0.734088 0.542025 0.207546
C30   C     C_3   0.101440 0.539927 0.237818 -0.667089
H30   H     H_    0.041345 0.612898 0.225719 0.191368
H31   H     H_    0.193562 0.588181 0.237964 0.241480
H32   H     H_    0.093994 0.489805 0.141676 0.296811

loop_
_geom_bond_atom_site_label_1
_geom_bond_atom_site_label_2
_ccdc_geom_bond_type
Cu1   O3    S    
C8    C9    A    
C29   H27   S    
S2    O13   D    
Cu2   O2    S    
C23   S5    S    
S4    O18   D    
C12   O3    A    
C12   O4    A    
C7    C8    A    
C22   S1    S    
O23   H26   S    
C18   H9    S    
C24   C26   S    
C15   N1    A    
C13   H7    S    
C20   O6    A    
C5    C6    A    
Cu2   O6    S    
C28   H24   S    
C1    O1    A    
C15   C16   A    
C18   C19   S    
C24   H1    S    
C20   O5    A    
S3    O15   D    
C9    C10   A    
C5    C13   S    
Cu1   O5    S    
Cu1   N2    S    
O14   H20   S    
S2    O14   S    
C27   H17   S    
C24   H13   S    
S4    O19   D    
C14   C17   A    
C3    C24   S    
C4    C25   S    
S1    O10   D    
C25   C30   S    
C27   H18   S    
C3    C29   S    
C1    C6    S    
C8    H4    S    
C11   H5    S    
C7    H3    S    
O20   H22   S    
C30   H30   S    
C28   H23   S    
C1    O2    A    
C25   C26   S    
Cu2   N1    S    
C12   C26   S    
C16   N2    A    
C3    H2    S    
C2    C4    S    
C19   H10   S    
C30   H31   S    
Cu2   O4    S    
C9    C20   S    
C13   S2    S    
C2    C21   S    
C17   C18   S    
C19   H11   S    
Cu1   O1    S    
S5    O22   D    
C29   H28   S    
S4    O20   S    
C2    C23   S    
Cu1   O7    S    
C14   N1    A    
S1    O9    D    
C27   H19   S    
C14   C19   S    
C11   H6    S    
C17   N2    A    
C25   H14   S    
Cu2   O8    S    
C6    C7    A    
C4    H15   S    
S5    O23   S    
C2    C3    S    
C5    C10   A    
C30   H32   S    
C21   O8    A    
C11   C13   S    
C28   H25   S    
O11   H16   S    
S3    O17   S    
C15   S3    S    
C4    C27   S    
C16   C28   S    
C10   C11   S    
S2    O12   D    
O17   H21   S    
S3    O16   D    
S5    O21   D    
C22   C26   S    
C29   H29   S    
Cu1   Cu2   S    
C22   C23   S    
C22   S4    S    
C18   H8    S    
C21   O7    A    
C23   H12   S    
S1    O11   S    
