data_str_m9_o13_o16_f0_sra.sym.96
_audit_creation_date              2012-12-11T14:43:40-0500
_audit_creation_method            fapswitch 2.2
_symmetry_space_group_name_H-M    P1
_symmetry_Int_Tables_number       1
_space_group_crystal_system       triclinic
_cell_length_a                    20.883925
_cell_length_b                    7.090441
_cell_length_c                    16.455794
_cell_angle_alpha                 90.007387
_cell_angle_beta                  92.787377
_cell_angle_gamma                 90.017663
_cell_volume                      2433.82899476

loop_
_atom_site_label
_atom_site_type_symbol
_atom_type_description
_atom_site_fract_x
_atom_site_fract_y
_atom_site_fract_z
_atom_type_partial_charge
O1    O     O_R   0.564840 0.505290 0.579830 -0.537456
O2    O     O_R   0.435160 0.005290 0.420170 -0.537929
O3    O     O_R   0.556720 0.179930 0.409350 -0.540581
O4    O     O_R   0.443280 0.679930 0.590650 -0.540407
C1    C     C_R   0.570531 0.344877 0.381528 0.696719
C2    C     C_R   0.429464 0.844853 0.618469 0.697534
O5    O     O_R   0.572280 0.175810 0.578530 -0.541245
O6    O     O_R   0.427720 0.675810 0.421470 -0.541528
O7    O     O_R   0.450830 0.001920 0.590540 -0.535591
O8    O     O_R   0.549170 0.501920 0.409460 -0.535646
C3    C     C_R   0.589978 0.345999 0.605145 0.693656
C4    C     C_R   0.410010 0.845919 0.394866 0.692079
O9    O     O_3   0.460130 0.338030 0.503750 -0.371405
O10   O     O_3   0.539870 0.838030 0.496250 -0.371092
V1    V     V_3+5 0.507400 0.064560 0.499310 1.421958
V2    V     V_3+5 0.492600 0.564560 0.500690 1.421814
C5    C     C_R   0.141197 0.895494 0.170888 -0.100405
C6    C     C_R   0.858705 0.395286 0.829302 -0.094121
C7    C     C_R   0.356517 0.870200 0.332229 -0.081620
C8    C     C_R   0.643492 0.370658 0.667732 -0.092156
C9    C     C_R   0.303775 0.076791 0.230409 -0.191660
C10   C     C_R   0.696518 0.578604 0.768967 -0.173984
C11   C     C_R   0.356709 0.030571 0.281538 -0.146572
C12   C     C_R   0.643532 0.532041 0.717943 -0.145302
C13   C     C_R   0.302300 0.752717 0.328434 -0.226941
C14   C     C_R   0.697530 0.252533 0.671927 -0.217156
C15   C     C_R   0.248080 0.798317 0.276679 0.142528
C16   C     C_R   0.751773 0.298797 0.723450 0.159180
C17   C     C_R   0.248834 0.963791 0.228004 0.114175
C18   C     C_R   0.751260 0.464893 0.771767 0.107688
C19   C     C_R   0.195254 0.012827 0.176617 -0.260263
C20   C     C_R   0.804885 0.513606 0.823226 -0.263255
C21   C     C_R   0.140250 0.733925 0.220851 -0.197234
C22   C     C_R   0.859292 0.232990 0.779694 -0.215585
C23   C     C_R   0.192769 0.683945 0.273200 0.185351
C24   C     C_R   0.806825 0.184159 0.727336 0.174013
H1    H     H_    0.196818 0.137498 0.138683 0.126017
H2    H     H_    0.803525 0.638756 0.860925 0.125506
H3    H     H_    0.098634 0.642406 0.217554 0.118992
H4    H     H_    0.900502 0.139879 0.782735 0.124746
H5    H     H_    0.305636 0.202708 0.193279 0.114835
H6    H     H_    0.694829 0.705171 0.805745 0.119419
H7    H     H_    0.397824 0.123925 0.282649 0.122176
H8    H     H_    0.602553 0.625887 0.716557 0.123050
H9    H     H_    0.301669 0.630889 0.368059 0.154036
H10   H     H_    0.698047 0.129532 0.632915 0.162742
C25   C     C_R   0.383391 0.853134 0.835816 -0.147468
C26   C     C_R   0.616550 0.354919 0.164171 -0.147385
H11   H     H_    0.471516 0.836045 0.774870 0.099442
H12   H     H_    0.528425 0.337845 0.225125 0.099174
H13   H     H_    0.306739 0.867757 0.957223 0.128817
H14   H     H_    0.693179 0.370387 0.042756 0.128933
H15   H     H_    0.407865 0.847737 0.895390 0.110750
H16   H     H_    0.592052 0.350390 0.104594 0.110747
C27   C     C_R   0.389889 0.853285 0.689857 -0.037645
C28   C     C_R   0.610100 0.353436 0.310138 -0.037281
C29   C     C_R   0.080061 0.915700 0.734461 -0.196647
C30   C     C_R   0.919968 0.414522 0.265533 -0.194068
C31   C     C_R   0.114139 0.908547 0.664318 -0.107145
C32   C     C_R   0.885900 0.406880 0.335676 -0.109030
C33   C     C_R   0.180613 0.894471 0.668902 -0.138484
C34   C     C_R   0.819412 0.393266 0.331088 -0.141513
C35   C     C_R   0.215497 0.887022 0.744751 0.027248
C36   C     C_R   0.784501 0.386826 0.255237 0.028651
C37   C     C_R   0.180293 0.893850 0.817778 0.071687
C38   C     C_R   0.819690 0.394271 0.182208 0.071568
C39   C     C_R   0.284222 0.873358 0.749988 0.071797
C40   C     C_R   0.715766 0.373547 0.250000 0.071709
C41   C     C_R   0.316301 0.866398 0.827887 0.111423
C42   C     C_R   0.683656 0.367659 0.172097 0.111180
C43   C     C_R   0.281677 0.872837 0.897935 -0.252355
C44   C     C_R   0.718265 0.374676 0.102045 -0.252206
C45   C     C_R   0.214988 0.886314 0.894098 0.153285
C46   C     C_R   0.784967 0.387760 0.105882 0.153141
C47   C     C_R   0.322725 0.866480 0.680878 -0.201651
C48   C     C_R   0.677279 0.366064 0.319114 -0.202113
C49   C     C_R   0.419798 0.846575 0.767379 -0.170101
C50   C     C_R   0.580158 0.347856 0.232614 -0.170211
C51   C     C_R   0.111644 0.908599 0.811229 -0.073236
C52   C     C_R   0.888356 0.408465 0.188762 -0.073948
H17   H     H_    0.302448 0.870895 0.619463 0.094190
H18   H     H_    0.697579 0.369678 0.380530 0.093126
H19   H     H_    0.028257 0.926926 0.728795 0.097411
H20   H     H_    0.971786 0.425279 0.271200 0.097896
H21   H     H_    0.203198 0.889813 0.611534 0.113595
H22   H     H_    0.796838 0.388135 0.388457 0.110920
H23   H     H_    0.088684 0.914125 0.605452 0.121384
H24   H     H_    0.911376 0.411660 0.394543 0.119815
O11   O     O_R   0.950790 0.256670 0.090520 -0.532874
O12   O     O_R   0.049210 0.756670 0.909480 -0.532747
O13   O     O_R   0.927720 0.590370 0.921470 -0.540151
O14   O     O_R   0.072280 0.090370 0.078530 -0.539667
C53   C     C_R   0.911218 0.420025 0.893337 0.736402
C54   C     C_R   0.088763 0.920094 0.106705 0.736480
O15   O     O_R   0.943270 0.586180 0.090640 -0.538396
O16   O     O_R   0.056730 0.086180 0.909360 -0.538648
O17   O     O_R   0.064850 0.759970 0.079840 -0.537857
O18   O     O_R   0.935150 0.259970 0.920160 -0.537679
C55   C     C_R   0.929842 0.417538 0.118411 0.767525
C56   C     C_R   0.070156 0.917560 0.881584 0.767644
O19   O     O_3   0.039850 0.428050 0.996240 -0.374874
O20   O     O_3   0.960150 0.928050 0.003760 -0.374877
V3    V     V_3+5 0.992610 0.701540 0.000700 1.429879
V4    V     V_3+5 0.007390 0.201540 0.999300 1.430169
N1    N     N_3   0.183474 0.894018 0.969177 -0.677189
H25   H     H_    0.200675 0.012306 0.001212 0.220075
H26   H     H_    0.196095 0.773780 0.003116 0.228835
N2    N     N_3   0.816468 0.396052 0.030802 -0.677118
H27   H     H_    0.799304 0.514571 0.998937 0.220428
H28   H     H_    0.803793 0.276104 0.996685 0.229193
N3    N     N_3   0.190443 0.515187 0.321414 -0.679272
H29   H     H_    0.144538 0.456182 0.317227 0.227591
H30   H     H_    0.221053 0.416843 0.296265 0.228403
N4    N     N_3   0.809311 0.015381 0.679634 -0.689818
H31   H     H_    0.848908 0.024747 0.643326 0.228551
H32   H     H_    0.816843 0.901477 0.719331 0.235509

loop_
_geom_bond_atom_site_label_1
_geom_bond_atom_site_label_2
_ccdc_geom_bond_type
C35   C37   A    
C28   C48   A    
C15   C17   A    
C29   C51   A    
C1    C28   S    
N3    H29   S    
O1    C3    A    
C2    C27   S    
C24   N4    S    
C2    O7    A    
N4    H31   S    
C32   H24   S    
C37   C45   A    
C26   H16   S    
C34   H22   S    
C21   H3    S    
H13   C43   S    
O11   C55   A    
C37   C51   A    
C36   C40   A    
C27   C49   A    
O15   C55   A    
C29   C31   A    
C30   C32   A    
C38   C46   A    
C28   C50   A    
N2    H27   S    
C32   C34   A    
C26   C50   A    
C33   C35   A    
C25   C41   A    
C34   C36   A    
C8    C12   A    
N2    H28   S    
C29   H19   S    
C20   H2    S    
O13   V3    S    
C22   C24   A    
C30   C52   A    
C25   H15   S    
C27   C47   A    
O5    V1    S    
O2    C4    A    
O6    V2    S    
C17   C19   A    
C5    C21   A    
H12   C50   S    
O12   C56   A    
O15   V3    S    
O5    C3    A    
C35   C39   A    
C3    C8    S    
C31   C33   A    
C41   C43   A    
C51   C56   S    
C44   C46   A    
C48   H18   S    
C43   C45   A    
O14   V4    S    
C47   H17   S    
C54   O17   A    
C15   C23   A    
C9    C17   A    
C19   H1    S    
C39   C41   A    
C36   C38   A    
O4    V2    S    
C7    C11   A    
H14   C44   S    
C30   H20   S    
O13   C53   A    
N1    H26   S    
C45   N1    S    
O6    C4    A    
O14   C54   A    
N3    H30   S    
O1    V2    S    
O20   V4    S    
O2    V1    S    
C6    C22   A    
O17   V3    S    
C33   H21   S    
C9    H5    S    
O4    C2    A    
O19   V4    S    
C9    C11   A    
O11   V4    S    
C13   C15   A    
C12   H8    S    
C22   H4    S    
C6    C20   A    
C25   C49   A    
C13   H9    S    
C23   N3    S    
C6    C53   S    
C10   C18   A    
C11   H7    S    
C26   C42   A    
O3    C1    A    
N4    H32   S    
C40   C48   A    
C38   C52   A    
N1    H25   S    
C14   C16   A    
O16   V4    S    
O7    V1    S    
C1    O8    A    
C52   C55   S    
O8    V2    S    
C18   C20   A    
C10   H6    S    
C8    C14   A    
C5    C19   A    
O16   C56   A    
C4    C7    S    
C16   C18   A    
C21   C23   A    
H11   C49   S    
C10   C12   A    
O20   V3    S    
C7    C13   A    
C31   H23   S    
O12   V3    S    
C14   H10   S    
C46   N2    S    
C39   C47   A    
C16   C24   A    
O19   V3    S    
O9    V2    S    
C40   C42   A    
O10   V1    S    
O3    V1    S    
C42   C44   A    
C5    C54   S    
C53   O18   A    
O18   V4    S    
