data_str_m3_o14_o16_f0_pcu.sym.111
_audit_creation_date              2012-12-10T17:42:35-0500
_audit_creation_method            fapswitch 2.2
_symmetry_space_group_name_H-M    P1
_symmetry_Int_Tables_number       1
_space_group_crystal_system       triclinic
_cell_length_a                    9.987704
_cell_length_b                    10.683322
_cell_length_c                    13.121851
_cell_angle_alpha                 93.832528
_cell_angle_beta                  70.4492
_cell_angle_gamma                 90.943903
_cell_volume                      1316.42537594

loop_
_atom_site_label
_atom_site_type_symbol
_atom_type_description
_atom_site_fract_x
_atom_site_fract_y
_atom_site_fract_z
_atom_type_partial_charge
C1    C     C_R   0.505014 0.738643 0.489664 0.930448
C2    C     C_R   0.366321 0.486008 0.821288 -0.114753
C3    C     C_R   0.298970 0.878721 0.417569 -0.156897
C4    C     C_R   0.419953 0.500824 0.704274 0.923639
C5    C     C_R   0.170147 0.936491 0.429181 -0.203323
C6    C     C_R   0.129780 0.045856 0.495848 -0.162924
C7    C     C_R   0.224305 0.104860 0.541667 0.143277
C8    C     C_R   0.366302 0.058136 0.511663 0.074543
C9    C     C_R   0.392640 0.934900 0.467372 0.088165
C10   C     C_R   0.509856 0.871708 0.478262 -0.135790
C11   C     C_R   0.618981 0.938386 0.500797 -0.213758
C12   C     C_R   0.433458 0.485353 0.982827 0.081688
C13   C     C_R   0.608580 0.066078 0.518474 -0.218661
C14   C     C_R   0.484578 0.127443 0.521358 -0.129363
C15   C     C_R   0.818245 0.698830 0.616401 0.584344
C16   C     C_R   0.494195 0.260894 0.509433 0.845001
C17   C     C_R   0.872031 0.803848 0.658960 -0.077308
C18   C     C_R   0.006662 0.797427 0.664132 -0.324314
C19   C     C_R   0.088245 0.690548 0.624353 0.628935
C20   C     C_R   0.048799 0.594697 0.559266 -0.050064
C21   C     C_R   0.905862 0.596767 0.557086 -0.034267
C22   C     C_R   0.951653 0.409554 0.444292 -0.105433
C23   C     C_R   0.437091 0.542349 0.888135 0.063879
C24   C     C_R   0.094500 0.410348 0.443387 -0.132284
C25   C     C_R   0.578938 0.500462 0.296499 0.832248
C26   C     C_R   0.713682 0.676548 0.050336 -0.183884
C27   C     C_R   0.624509 0.522608 0.182507 -0.043183
C28   C     C_R   0.262769 0.395286 0.861925 -0.191308
C29   C     C_R   0.243267 0.349950 0.962714 -0.134553
C30   C     C_R   0.331349 0.390422 0.021122 -0.185434
C31   C     C_R   0.530815 0.527476 0.035147 0.080882
C32   C     C_R   0.617613 0.633541 0.998781 0.147136
C33   C     C_R   0.601170 0.699659 0.915748 -0.227807
C34   C     C_R   0.508717 0.655872 0.862967 -0.124695
C35   C     C_R   0.542103 0.469703 0.124242 -0.241288
C36   C     C_R   0.715932 0.621980 0.143119 -0.204865
F1    F     F_    0.678318 0.691707 0.651373 -0.671896
F2    F     F_    0.193156 0.679311 0.664965 -0.638601
H1    H     H_    0.778856 0.664421 0.189173 0.149158
H2    H     H_    0.780040 0.757286 0.023098 0.145574
H3    H     H_    0.478932 0.389447 0.156268 0.132764
H4    H     H_    0.201236 0.355715 0.814040 0.149937
H5    H     H_    0.313941 0.348365 0.096827 0.127582
H6    H     H_    0.164214 0.278761 0.993360 0.144320
H7    H     H_    0.488395 0.712651 0.804604 0.206599
H8    H     H_    0.712400 0.892196 0.505170 0.172388
H9    H     H_    0.240325 0.215239 0.670942 0.175510
H10   H     H_    0.136413 0.275105 0.605953 0.218467
H11   H     H_    0.683780 0.903444 0.704251 0.233702
H12   H     H_    0.324952 0.790774 0.369167 0.155932
H13   H     H_    0.831443 0.989286 0.668169 0.183353
H14   H     H_    0.097492 0.891783 0.392838 0.142587
H15   H     H_    0.023162 0.082564 0.514953 0.130995
H16   H     H_    0.698551 0.116558 0.529006 0.165196
H17   H     H_    0.917454 0.335189 0.398697 0.134047
H18   H     H_    0.043784 0.871592 0.708380 0.214189
H19   H     H_    0.658292 0.785993 0.892792 0.179537
H20   H     H_    0.166552 0.336595 0.397012 0.141086
N1    N     N_R   0.856860 0.501200 0.500990 -0.079807
N2    N     N_R   0.142450 0.501280 0.501020 -0.093183
N3    N     N_3   0.165905 0.193439 0.632647 -0.463045
N4    N     N_3   0.785102 0.911438 0.710571 -0.444295
O1    O     O_R   0.385310 0.683220 0.500000 -0.568056
O2    O     O_R   0.614640 0.683250 0.500010 -0.562223
O3    O     O_R   0.328400 0.499950 0.653610 -0.546248
O4    O     O_R   0.557730 0.499970 0.653620 -0.536767
O5    O     O_R   0.385360 0.316750 0.499990 -0.638262
O6    O     O_R   0.614690 0.316780 0.500000 -0.622762
O7    O     O_R   0.442270 0.500030 0.346380 -0.618511
O8    O     O_R   0.671600 0.500050 0.346390 -0.621069
Zn1   Zn    Zn3+2 0.346880 0.499980 0.499990 0.980758
Zn2   Zn    Zn3+2 0.653120 0.500020 0.500010 0.993012

loop_
_geom_bond_atom_site_label_1
_geom_bond_atom_site_label_2
_ccdc_geom_bond_type
H9    N3    S    
C2    C28   A    
C5    H14   S    
C26   C32   A    
C6    C7    A    
C3    C9    A    
C19   F2    S    
C17   N4    S    
C20   N2    A    
C9    C10   A    
C2    C4    S    
C19   C20   A    
C18   H18   S    
N1    Zn2   S    
O6    Zn2   S    
C23   C34   A    
C27   C35   A    
C32   C33   A    
C2    C23   A    
C17   C18   A    
C22   H17   S    
O7    Zn1   S    
C7    C8    A    
C29   H6    S    
C34   H7    S    
C25   O8    A    
C13   C14   A    
C4    O4    A    
C11   C13   A    
C12   C23   A    
C26   H2    S    
H10   N3    S    
C29   C30   A    
H13   N4    S    
C16   O6    A    
C7    N3    S    
C1    O1    A    
C26   C36   A    
C28   C29   A    
C3    H12   S    
O1    Zn1   S    
C21   N1    A    
C22   C24   A    
O2    Zn2   S    
C12   C31   A    
C5    C6    A    
C35   H3    S    
C27   C36   A    
C31   C35   A    
C30   H5    S    
O5    Zn1   S    
C25   O7    A    
C10   C11   A    
C6    H15   S    
C16   O5    A    
C24   N2    A    
C1    O2    A    
C15   C21   A    
C33   C34   A    
C20   C21   A    
C24   H20   S    
C13   H16   S    
C28   H4    S    
C22   N1    A    
C15   C17   A    
C4    O3    A    
C18   C19   A    
C11   H8    S    
C33   H19   S    
H11   N4    S    
C8    C14   A    
N2    Zn1   S    
C12   C30   A    
C14   C16   S    
O3    Zn1   S    
O8    Zn2   S    
C36   H1    S    
C15   F1    S    
C1    C10   S    
C31   C32   A    
O4    Zn2   S    
C8    C9    A    
C3    C5    A    
C25   C27   S    
