data_str_m2_o11_o14_f0_pcu.sym.131
_audit_creation_date              2013-03-05T15:42:33-0500
_audit_creation_method            fapswitch 2.2
_symmetry_space_group_name_H-M    P1
_symmetry_Int_Tables_number       1
_space_group_crystal_system       triclinic
_cell_length_a                    10.890421
_cell_length_b                    10.965248
_cell_length_c                    9.721282
_cell_angle_alpha                 86.851823
_cell_angle_beta                  90.993287
_cell_angle_gamma                 91.05185
_cell_volume                      1158.77596827

loop_
_atom_site_label
_atom_site_type_symbol
_atom_site_description
_atom_site_fract_x
_atom_site_fract_y
_atom_site_fract_z
_atom_type_partial_charge
O1    O     O_R   0.500020 0.321960 0.617040 -0.590326
O2    O     O_R   0.499980 0.321920 0.382900 -0.546625
C1    C     C_R   0.505810 0.265509 0.504385 0.776440
O3    O     O_R   0.319670 0.500020 0.617100 -0.615844
O4    O     O_R   0.319630 0.499980 0.382950 -0.495627
C2    C     C_R   0.262181 0.498544 0.498018 0.894103
Cu1   Cu    Cu3+1 0.500020 0.500020 0.638630 1.005778
Cu2   Cu    Cu3+1 0.499980 0.499980 0.361370 1.050297
O5    O     O_R   0.500020 0.678080 0.617100 -0.560329
O6    O     O_R   0.499980 0.678040 0.382960 -0.572769
O7    O     O_R   0.680370 0.500020 0.617050 -0.610881
O8    O     O_R   0.680330 0.499980 0.382900 -0.580346
C3    C     C_R   0.502780 0.733866 0.496087 0.949942
C4    C     C_R   0.737251 0.497632 0.501818 0.829796
C5    C     C_R   0.122839 0.299544 0.646077 0.027526
C6    C     C_R   0.067312 0.236183 0.760151 -0.089549
C7    C     C_R   0.941782 0.253937 0.783389 -0.032049
C8    C     C_R   0.876051 0.332519 0.691752 -0.192809
H1    H     H_    0.778059 0.331396 0.702116 0.182123
C9    C     C_R   0.935909 0.411820 0.593084 0.004578
C10   C     C_R   0.063745 0.401810 0.578814 0.049538
C11   C     C_R   0.127425 0.488539 0.490805 -0.070721
C12   C     C_R   0.061828 0.571144 0.400971 -0.066120
C13   C     C_R   0.934388 0.579580 0.412890 -0.081008
C14   C     C_R   0.871270 0.497951 0.505690 -0.096074
C15   C     C_2   0.417131 0.936622 0.452989 0.029774
C16   C     C_2   0.513406 0.864701 0.483139 -0.189802
H2    H     H_    0.606144 0.903038 0.484864 0.139117
C17   C     C_2   0.440286 0.067841 0.430031 -0.224435
C18   C     C_2   0.503911 0.132999 0.521435 -0.201768
C19   C     C_2   0.582146 0.450544 0.929151 -0.018372
N1    N     N_2   0.498640 0.498660 0.846910 -0.272361
C20   C     C_2   0.571205 0.434297 0.083524 0.023361
N2    N     N_2   0.498610 0.498630 0.153040 -0.256797
C21   C     C_2   0.124404 0.652737 0.295632 0.394389
H3    H     H_    0.113481 0.750796 0.296062 0.067440
O9    O     O_2   0.178707 0.610556 0.200774 -0.508763
C22   C     C_2   0.552692 0.080727 0.656109 0.418788
H4    H     H_    0.636377 0.119187 0.699086 0.105800
O10   O     O_2   0.496567 0.001362 0.723484 -0.487584
H5    H     H_    0.666277 0.420748 0.884943 0.168447
C23   C     C_2   0.374933 0.503680 0.892330 0.643261
H6    H     H_    0.321434 0.584289 0.865656 0.060373
O11   O     O_2   0.325686 0.415747 0.953000 -0.491131
H7    H     H_    0.629715 0.368324 0.138359 0.163831
H8    H     H_    0.462592 0.575762 0.104189 0.204655
C24   C     C_2   0.220139 0.236427 0.574426 0.317816
H9    H     H_    0.283527 0.177274 0.631248 0.149106
O12   O     O_2   0.223860 0.242534 0.448751 -0.564979
C25   C     C_2   0.136724 0.143844 0.846522 0.353365
H10   H     H_    0.092440 0.059223 0.883506 0.061520
O13   O     O_2   0.243859 0.162676 0.879257 -0.465813
C26   C     C_2   0.877209 0.189900 0.901344 0.336553
H11   H     H_    0.927681 0.137758 0.980738 0.084693
O14   O     O_2   0.766128 0.196352 0.913212 -0.568764
C27   C     C_2   0.868474 0.677429 0.329641 0.368566
H12   H     H_    0.894539 0.700956 0.224132 0.073982
O15   O     O_2   0.787865 0.735747 0.380140 -0.561025
C28   C     C_2   0.287453 0.893105 0.450069 0.357324
H13   H     H_    0.218197 0.949562 0.397959 0.091331
O16   O     O_2   0.255459 0.798223 0.511827 -0.585809
H14   H     H_    0.395133 0.113756 0.341602 0.214869

loop_
_geom_bond_atom_site_label_1
_geom_bond_atom_site_label_2
_geom_bond_distance
_ccdc_geom_bond_type
O1    C1    1.290262 A    
C1    C18   1.453164 S    
C25   O13   1.220934 D    
C12   C13   1.399879 A    
C19   C20   1.508016 S    
C17   C18   1.345486 D    
N2    H8    1.027773 S    
O4    Cu2   1.978873 S    
C20   H7    1.084571 S    
C15   C28   1.482666 S    
Cu1   O7    1.978871 S    
C24   H9    1.079920 S    
C5    C24   1.480703 S    
Cu2   O8    1.971597 S    
C9    C10   1.408360 A    
O2    C1    1.303839 A    
O8    C4    1.301467 A    
C28   H13   1.085438 S    
C24   O12   1.221217 D    
Cu2   N2    2.025897 S    
C26   H11   1.083088 S    
C27   H12   1.085127 S    
C22   O10   1.221345 D    
C15   C16   1.342191 D    
C22   H4    1.083981 S    
C5    C10   1.424981 A    
C23   O11   1.222583 D    
O3    Cu1   1.971597 S    
Cu2   O6    1.975146 S    
C21   O9    1.220573 D    
C27   O15   1.220894 D    
C7    C8    1.401682 A    
C8    C9    1.417875 A    
C26   O14   1.220904 D    
C4    C14   1.459292 S    
O4    C2    1.290324 A    
C12   C21   1.488184 S    
C28   O16   1.220501 D    
C13   C27   1.494726 S    
C9    C14   1.422970 A    
C5    C6    1.414686 A    
C2    C11   1.470377 S    
C7    C26   1.491254 S    
Cu1   Cu2   2.695339 S    
C20   N2    1.292553 D    
C13   C14   1.413407 A    
C18   C22   1.493124 S    
C15   C17   1.461852 S    
O3    C2    1.307253 A    
C8    H1    1.073439 S    
C23   H6    1.084652 S    
O7    C4    1.291185 A    
Cu1   O5    1.952196 S    
N1    C23   1.427937 S    
C17   H14   1.086810 S    
C3    C16   1.435965 S    
O1    Cu1   1.975148 S    
O5    C3    1.296346 A    
Cu1   N1    2.024299 S    
C19   H5    1.082109 S    
C25   H10   1.084327 S    
C10   C11   1.422787 A    
O6    C3    1.287318 A    
C11   C12   1.417281 A    
O2    Cu2   1.952197 S    
C19   N1    1.300255 D    
C6    C25   1.488056 S    
C6    C7    1.408241 A    
C16   H2    1.087012 S    
C21   H3    1.084218 S    
