data_str_m3_o5_o14_f0_pcu.sym.25
_audit_creation_date              2013-03-05T16:46:43-0500
_audit_creation_method            fapswitch 2.2
_symmetry_space_group_name_H-M    P1
_symmetry_Int_Tables_number       1
_space_group_crystal_system       triclinic
_cell_length_a                    10.680272
_cell_length_b                    8.927772
_cell_length_c                    8.123006
_cell_angle_alpha                 89.910062
_cell_angle_beta                  89.557742
_cell_angle_gamma                 89.741483
_cell_volume                      774.505145954

loop_
_atom_site_label
_atom_site_type_symbol
_atom_site_description
_atom_site_fract_x
_atom_site_fract_y
_atom_site_fract_z
_atom_type_partial_charge
O1    O     O_R   0.500000 0.285350 0.636850 -0.639192
O2    O     O_R   0.500000 0.714650 0.636850 -0.619416
O3    O     O_R   0.500000 0.285360 0.363100 -0.611657
O4    O     O_R   0.500000 0.714640 0.363100 -0.586082
C1    C     C_R   0.500231 0.218070 0.500048 0.885183
C2    C     C_R   0.501285 0.781911 0.499884 1.006211
O5    O     O_R   0.316770 0.500000 0.636900 -0.617886
O6    O     O_R   0.683230 0.500000 0.636900 -0.625100
O7    O     O_R   0.316780 0.500000 0.363150 -0.602712
O8    O     O_R   0.683220 0.500000 0.363150 -0.582359
C3    C     C_R   0.260020 0.498747 0.500714 0.956540
C4    C     C_R   0.739992 0.498457 0.499190 0.917654
Zn1   Zn    Zn3+2 0.500000 0.500000 0.682780 1.024181
Zn2   Zn    Zn3+2 0.500000 0.500000 0.317220 1.071775
C5    C     C_R   0.130479 0.243321 0.631096 -0.124307
C6    C     C_R   0.869964 0.242246 0.628649 -0.113217
H1    H     H_    0.231557 0.237256 0.631641 0.140391
H2    H     H_    0.768976 0.235244 0.626769 0.137829
C7    C     C_R   0.065373 0.120990 0.694686 -0.048821
C8    C     C_R   0.935260 0.120820 0.694251 -0.044437
H3    H     H_    0.116062 0.025707 0.743502 0.178013
H4    H     H_    0.884724 0.025473 0.742925 0.172966
N1    N     N_1   0.500000 0.500000 0.073640 -0.005703
N2    N     N_1   0.500000 0.500000 0.926360 -0.013448
C9    C     C_R   0.934625 0.368377 0.565281 0.060811
C10   C     C_R   0.065566 0.369346 0.567374 0.049030
C11   C     C_R   0.127936 0.495503 0.502470 -0.262627
C12   C     C_R   0.872047 0.492696 0.496540 -0.260458
C13   C     C_R   0.064496 0.617789 0.432839 0.218078
C14   C     C_R   0.935337 0.615135 0.427628 0.212562
C15   C     C_1   0.500919 0.065219 0.500095 -0.149341
C16   C     C_1   0.501353 0.934785 0.499861 -0.095309
N3    N     N_R   0.131179 0.745549 0.369900 0.234714
O9    O     O_R   0.109478 0.795162 0.222083 -0.320354
O10   O     O_R   0.207245 0.818730 0.464388 -0.432428
N4    N     N_R   0.867998 0.740978 0.361725 0.224140
O11   O     O_R   0.874035 0.870591 0.433941 -0.393309
O12   O     O_R   0.815465 0.731162 0.218228 -0.341918

loop_
_geom_bond_atom_site_label_1
_geom_bond_atom_site_label_2
_geom_bond_distance
_ccdc_geom_bond_type
Zn2   N1    1.978602 S    
C2    C16   1.364827 S    
O7    Zn2   1.989259 S    
C13   C14   1.380740 A    
C3    C11   1.411086 S    
O6    C4    1.268275 A    
C11   C13   1.402928 A    
C15   C16   1.164476 T    
C14   N4    1.436257 S    
N1    N2    1.196356 T    
O3    C1    1.263463 A    
N4    O12   1.300778 A    
N3    O9    1.301281 A    
C6    H2    1.080892 S    
C9    C12   1.409774 A    
O5    C3    1.265586 A    
O7    C3    1.267212 A    
C10   C11   1.410572 A    
O2    C2    1.263466 A    
O3    Zn2   1.951588 S    
O8    C4    1.264598 A    
C4    C12   1.411081 S    
O1    C1    1.264000 A    
C12   C14   1.401453 A    
C6    C8    1.393777 A    
C7    H3    1.082618 S    
C8    H4    1.082610 S    
O4    Zn2   1.952736 S    
O1    Zn1   1.952901 S    
O6    Zn1   1.989290 S    
C13   N3    1.438569 S    
O5    Zn1   1.994942 S    
O4    C2    1.264050 A    
O8    Zn2   1.994915 S    
C6    C9    1.417605 A    
C5    H1    1.080705 S    
O2    Zn1   1.951751 S    
N4    O11   1.300251 A    
C5    C10   1.418149 A    
N3    O10   1.300745 A    
C9    C10   1.398789 A    
C5    C7    1.393788 A    
C7    C8    1.389678 A    
Zn1   N2    1.978602 S    
C1    C15   1.364607 S    
