data_str_m2_o1_o17_f0_pcu.sym.144
_audit_creation_date              2013-03-05T16:04:28-0500
_audit_creation_method            fapswitch 2.2
_symmetry_space_group_name_H-M    P1
_symmetry_Int_Tables_number       1
_space_group_crystal_system       triclinic
_cell_length_a                    10.830897
_cell_length_b                    9.615523
_cell_length_c                    15.009105
_cell_angle_alpha                 90.528182
_cell_angle_beta                  91.493969
_cell_angle_gamma                 89.932892
_cell_volume                      1562.52091023

loop_
_atom_site_label
_atom_site_type_symbol
_atom_site_description
_atom_site_fract_x
_atom_site_fract_y
_atom_site_fract_z
_atom_type_partial_charge
O1    O     O_R   0.319640 0.618740 0.499990 -0.561707
O2    O     O_R   0.680360 0.381260 0.500010 -0.561704
O3    O     O_R   0.680360 0.618740 0.500010 -0.569396
O4    O     O_R   0.319640 0.381260 0.499990 -0.569393
C1    C     C_R   0.262370 0.500045 0.500420 0.801504
C2    C     C_R   0.737630 0.499955 0.499580 0.801501
O5    O     O_R   0.499970 0.618800 0.370260 -0.546193
O6    O     O_R   0.500030 0.381200 0.629740 -0.546193
O7    O     O_R   0.500030 0.618800 0.629740 -0.548735
O8    O     O_R   0.499970 0.381200 0.370260 -0.548739
C3    C     C_R   0.499249 0.499565 0.329117 0.804262
C4    C     C_R   0.500754 0.500436 0.670883 0.804256
Cu1   Cu    Cu3+1 0.500000 0.640660 0.500000 1.059051
Cu2   Cu    Cu3+1 0.500000 0.359340 0.500000 1.059053
C5    C     C_R   0.591057 0.573348 0.815372 -0.091667
C6    C     C_R   0.408953 0.426649 0.184630 -0.091669
C7    C     C_R   0.500134 0.501071 0.767315 -0.038732
C8    C     C_R   0.499872 0.498932 0.232685 -0.038739
C9    C     C_R   0.409393 0.427466 0.810593 -0.160277
C10   C     C_R   0.590606 0.572548 0.189410 -0.160269
C11   C     C_R   0.405129 0.428547 0.903960 0.018709
C12   C     C_R   0.594869 0.571472 0.096045 0.018705
C13   C     C_R   0.499136 0.501061 0.953246 0.041220
C14   C     C_R   0.500869 0.498952 0.046758 0.041222
C15   C     C_R   0.592272 0.574550 0.908597 -0.018218
C16   C     C_R   0.407735 0.425459 0.091403 -0.018230
C17   C     C_R   0.311199 0.356662 0.948767 -0.140777
C18   C     C_R   0.688790 0.643371 0.051237 -0.140767
C19   C     C_R   0.313330 0.355167 0.042678 0.316936
C20   C     C_R   0.686670 0.644851 0.957329 0.316898
H1    H     H_    0.662653 0.624827 0.779050 0.210214
H2    H     H_    0.337362 0.375160 0.220950 0.210223
H3    H     H_    0.342851 0.370048 0.769896 0.123338
H4    H     H_    0.657143 0.629968 0.230109 0.123336
C21   C     C_R   0.063924 0.373762 0.498549 -0.124646
C22   C     C_R   0.936075 0.626238 0.501451 -0.124652
C23   C     C_R   0.936203 0.373752 0.497048 -0.113996
C24   C     C_R   0.063797 0.626248 0.502952 -0.114000
H5    H     H_    0.111722 0.274902 0.497935 0.201957
H6    H     H_    0.888277 0.725098 0.502066 0.201956
H7    H     H_    0.888487 0.274957 0.494028 0.201626
H8    H     H_    0.111513 0.725043 0.505972 0.201627
C25   C     C_R   0.871622 0.499965 0.499142 -0.048881
C26   C     C_R   0.128378 0.500035 0.500858 -0.048881
C27   C     C_R   0.436013 0.073088 0.435583 0.288283
C28   C     C_R   0.563986 0.926912 0.564417 0.288276
C29   C     C_R   0.564535 0.074980 0.564200 0.284548
C30   C     C_R   0.435463 0.925020 0.435800 0.284551
N1    N     N_R   0.500000 0.852070 0.500000 -0.318723
N2    N     N_R   0.500000 0.147930 0.500000 -0.318722
C31   C     C_2   0.209552 0.284305 0.898188 0.520796
H9    H     H_    0.169263 0.329886 0.838346 0.056904
O9    O     O_2   0.170250 0.172344 0.922611 -0.415582
C32   C     C_2   0.790404 0.715779 0.101821 0.520870
H10   H     H_    0.830722 0.670206 0.161657 0.056908
O10   O     O_2   0.829641 0.827776 0.077409 -0.415592
N3    N     N_R   0.216276 0.286889 0.088681 0.147157
O11   O     O_R   0.104737 0.337295 0.085534 -0.293826
O12   O     O_R   0.237952 0.170320 0.129528 -0.216245
N4    N     N_R   0.783729 0.713135 0.911327 0.147140
O13   O     O_R   0.762023 0.829640 0.870412 -0.216278
O14   O     O_R   0.895305 0.662837 0.914575 -0.293794
N5    N     N_R   0.371194 0.143078 0.365193 0.179141
O15   O     O_R   0.416063 0.138938 0.285682 -0.290690
O16   O     O_R   0.255387 0.174341 0.374125 -0.331203
N6    N     N_R   0.628802 0.856922 0.634807 0.179143
O17   O     O_R   0.583928 0.861056 0.714318 -0.290669
O18   O     O_R   0.744611 0.825660 0.625879 -0.331205
N7    N     N_R   0.635647 0.147067 0.631537 0.187030
O19   O     O_R   0.752247 0.169251 0.619093 -0.334462
O20   O     O_R   0.594868 0.153847 0.712248 -0.278730
N8    N     N_R   0.364347 0.852933 0.368466 0.187032
O21   O     O_R   0.247745 0.830765 0.380910 -0.334457
O22   O     O_R   0.405125 0.846144 0.287756 -0.278733

loop_
_geom_bond_atom_site_label_1
_geom_bond_atom_site_label_2
_geom_bond_distance
_ccdc_geom_bond_type
N6    O18   1.299523 A    
N5    O16   1.299515 A    
C3    C8    1.447499 S    
C17   C19   1.409317 A    
O3    C2    1.299148 A    
O5    C3    1.297152 A    
C28   N1    1.373445 A    
O1    C1    1.299768 A    
C9    C11   1.403261 A    
C14   C16   1.418296 A    
C28   N6    1.426625 S    
C5    C15   1.398876 A    
N4    O14   1.301024 A    
N7    O20   1.301220 A    
O7    Cu1   1.960510 S    
C29   N7    1.429284 S    
C28   C29   1.423808 A    
C20   N4    1.435526 S    
C4    C7    1.447502 S    
C13   C14   1.403501 A    
O3    Cu1   1.964548 S    
C10   H4    1.081240 S    
N6    O17   1.300497 A    
C11   C17   1.418073 A    
C12   C18   1.418076 A    
Cu1   Cu2   2.705039 S    
C23   H7    1.081993 S    
O2    C2    1.299767 A    
C30   N8    1.429285 S    
C17   C31   1.490267 S    
C29   N2    1.373061 A    
C6    C16   1.398908 A    
C32   O10   1.221091 D    
C31   H9    1.084252 S    
C22   H6    1.081966 S    
N8    O22   1.301203 A    
O8    Cu2   1.960510 S    
C18   C32   1.490271 S    
O4    C1    1.299147 A    
C27   N5    1.426634 S    
N4    O13   1.300734 A    
C31   O9    1.221091 D    
C23   C25   1.400552 A    
C21   H5    1.081966 S    
C24   C26   1.400552 A    
O6    C4    1.297155 A    
C5    H1    1.082345 S    
C21   C26   1.400971 A    
Cu1   N1    2.032818 S    
C30   N1    1.373064 A    
C1    C26   1.451441 S    
C10   C12   1.403234 A    
C2    C25   1.451440 S    
C11   C13   1.422304 A    
C9    H3    1.081257 S    
C12   C14   1.422295 A    
O1    Cu1   1.965040 S    
C27   C30   1.423806 A    
C15   C20   1.410957 A    
C5    C7    1.388660 A    
C32   H10   1.084260 S    
O6    Cu2   1.956657 S    
C21   C23   1.382933 A    
C19   N3    1.435465 S    
N8    O21   1.299585 A    
C24   H8    1.081993 S    
C6    H2    1.082336 S    
C18   C20   1.409257 A    
N3    O11   1.301021 A    
Cu2   N2    2.032819 S    
C27   N2    1.373449 A    
C22   C24   1.382935 A    
C7    C9    1.390005 A    
C8    C10   1.389997 A    
C13   C15   1.418325 A    
O4    Cu2   1.964549 S    
N7    O19   1.299591 A    
O2    Cu2   1.965039 S    
O7    C4    1.299783 A    
N3    O12   1.300724 A    
O8    C3    1.299784 A    
N5    O15   1.300487 A    
O5    Cu1   1.956657 S    
C16   C19   1.410907 A    
C6    C8    1.388645 A    
C22   C25   1.400970 A    
