data_str_m3_o14_o14_f0_pcu.sym.159
_audit_creation_date              2012-12-10T17:40:54-0500
_audit_creation_method            fapswitch 2.2
_symmetry_space_group_name_H-M    P1
_symmetry_Int_Tables_number       1
_space_group_crystal_system       triclinic
_cell_length_a                    14.486663
_cell_length_b                    15.625436
_cell_length_c                    9.918826
_cell_angle_alpha                 89.655204
_cell_angle_beta                  90.837568
_cell_angle_gamma                 89.94757
_cell_volume                      2244.94800146

loop_
_atom_site_label
_atom_site_type_symbol
_atom_type_description
_atom_site_fract_x
_atom_site_fract_y
_atom_site_fract_z
_atom_type_partial_charge
C1    C     C_R   0.387436 0.874383 0.499740 0.878508
C2    C     C_R   0.392335 0.128310 0.499997 0.900717
C3    C     C_R   0.887436 0.374383 0.499740 0.878508
C4    C     C_R   0.892335 0.628311 0.499997 0.900717
C5    C     C_R   0.304751 0.238126 0.381184 -0.237469
C6    C     C_R   0.277388 0.784958 0.384324 -0.239797
C7    C     C_R   0.804751 0.738127 0.381184 -0.237469
C8    C     C_R   0.777387 0.284959 0.384324 -0.239798
C9    C     C_R   0.730649 0.792394 0.384202 -0.224979
C10   C     C_R   0.710055 0.224553 0.387715 -0.224828
C11   C     C_R   0.230649 0.292394 0.384202 -0.224979
C12   C     C_R   0.210055 0.724553 0.387715 -0.224829
C13   C     C_R   0.691905 0.814926 0.507747 -0.114795
C14   C     C_R   0.703869 0.170104 0.498795 -0.105162
C15   C     C_R   0.191905 0.314926 0.507747 -0.114795
C16   C     C_R   0.203869 0.670104 0.498795 -0.105163
C17   C     C_R   0.322751 0.016272 0.126475 0.508281
C18   C     C_R   0.822751 0.516271 0.126475 0.508281
C19   C     C_R   0.247031 0.038216 0.040654 -0.314337
C20   C     C_R   0.747031 0.538215 0.040654 -0.314337
C21   C     C_R   0.252782 0.032861 0.903797 -0.268397
C22   C     C_R   0.752781 0.532860 0.903797 -0.268398
C23   C     C_R   0.335081 0.011605 0.847324 -0.122638
C24   C     C_R   0.835081 0.511604 0.847324 -0.122638
C25   C     C_R   0.417266 0.006326 0.923434 0.105345
C26   C     C_R   0.917266 0.506326 0.923434 0.105345
C27   C     C_R   0.414769 0.007541 0.068631 0.054465
C28   C     C_R   0.914769 0.507541 0.068631 0.054465
C29   C     C_R   0.579067 0.992992 0.073350 -0.122118
C30   C     C_R   0.079067 0.492992 0.073350 -0.122118
C31   C     C_R   0.625659 0.114443 0.500390 0.847344
C32   C     C_R   0.619311 0.878221 0.502031 0.843817
C33   C     C_R   0.125659 0.614443 0.500390 0.847345
C34   C     C_R   0.119311 0.378221 0.502031 0.843816
C35   C     C_R   0.578984 0.993170 0.930564 -0.124587
C36   C     C_R   0.078984 0.493170 0.930564 -0.124587
C37   C     C_R   0.373386 0.236702 0.744646 -0.141813
C38   C     C_R   0.412847 0.731906 0.697149 -0.185298
C39   C     C_R   0.873386 0.736702 0.744646 -0.141813
C40   C     C_R   0.912848 0.231906 0.697148 -0.185299
C41   C     C_R   0.337383 0.255948 0.870186 -0.132008
C42   C     C_R   0.417979 0.666741 0.793551 -0.143577
C43   C     C_R   0.837383 0.755948 0.870186 -0.132009
C44   C     C_R   0.917980 0.166741 0.793550 -0.143577
C45   C     C_R   0.746367 0.782862 0.879125 -0.167653
C46   C     C_R   0.852988 0.101323 0.792657 -0.145158
C47   C     C_R   0.246368 0.282862 0.879125 -0.167653
C48   C     C_R   0.352988 0.601324 0.792658 -0.145158
C49   C     C_R   0.694229 0.797769 0.761926 -0.186378
C50   C     C_R   0.782318 0.100996 0.695762 -0.180145
C51   C     C_R   0.194229 0.297769 0.761926 -0.186378
C52   C     C_R   0.282317 0.600996 0.695763 -0.180145
C53   C     C_R   0.733219 0.787007 0.632189 0.099543
C54   C     C_R   0.774041 0.168050 0.599730 0.108190
C55   C     C_R   0.233219 0.287008 0.632189 0.099543
C56   C     C_R   0.274041 0.668050 0.599730 0.108191
C57   C     C_R   0.318347 0.244975 0.626046 0.103496
C58   C     C_R   0.340513 0.733860 0.599743 0.106901
C59   C     C_R   0.818347 0.744975 0.626047 0.103496
C60   C     C_R   0.840513 0.233860 0.599743 0.106901
C61   C     C_R   0.343203 0.208469 0.501921 -0.155179
C62   C     C_R   0.334798 0.796704 0.496588 -0.134849
C63   C     C_R   0.843204 0.708469 0.501921 -0.155180
C64   C     C_R   0.834798 0.296704 0.496588 -0.134848
H1    H     H_    0.327336 0.214693 0.284441 0.172629
H2    H     H_    0.280012 0.826097 0.296439 0.179371
H3    H     H_    0.827337 0.714694 0.284441 0.172629
H4    H     H_    0.780011 0.326097 0.296439 0.179371
H5    H     H_    0.191905 0.042714 0.840782 0.172746
H6    H     H_    0.691905 0.542713 0.840782 0.172746
H7    H     H_    0.331085 0.000854 0.742280 0.224637
H8    H     H_    0.831085 0.500854 0.742280 0.224637
H9    H     H_    0.643742 0.987376 0.878603 0.138126
H10   H     H_    0.143742 0.487376 0.878603 0.138126
H11   H     H_    0.444265 0.214946 0.740938 0.160391
H12   H     H_    0.468321 0.777840 0.696713 0.156487
H13   H     H_    0.944265 0.714946 0.740939 0.160391
H14   H     H_    0.968321 0.277840 0.696712 0.156487
H15   H     H_    0.378963 0.246865 0.960734 0.131008
H16   H     H_    0.474067 0.665773 0.866910 0.133343
H17   H     H_    0.878962 0.746865 0.960734 0.131008
H18   H     H_    0.974068 0.165772 0.866909 0.133343
H19   H     H_    0.716189 0.792915 0.977022 0.130776
H20   H     H_    0.858586 0.049518 0.865306 0.133784
H21   H     H_    0.216189 0.292915 0.977022 0.130776
H22   H     H_    0.358585 0.549519 0.865307 0.133784
H23   H     H_    0.622923 0.813858 0.777143 0.165415
H24   H     H_    0.737434 0.045921 0.693948 0.156456
H25   H     H_    0.122923 0.313858 0.777143 0.165415
H26   H     H_    0.237433 0.545921 0.693948 0.156456
H27   H     H_    0.701740 0.813972 0.288511 0.167741
H28   H     H_    0.660578 0.222809 0.304671 0.170430
H29   H     H_    0.201740 0.313972 0.288511 0.167741
H30   H     H_    0.160579 0.722808 0.304671 0.170430
H31   H     H_    0.643823 0.987264 0.128389 0.140422
H32   H     H_    0.143823 0.487265 0.128389 0.140422
H33   H     H_    0.179632 0.054429 0.077402 0.161902
H34   H     H_    0.679631 0.554427 0.077401 0.161903
N1    N     N_R   0.498810 0.000000 0.142780 -0.104261
N2    N     N_R   0.998810 0.500000 0.142780 -0.104261
N3    N     N_R   0.498740 1.000000 0.857170 -0.115264
N4    N     N_R   0.998740 0.500000 0.857170 -0.115264
O1    O     O_R   0.408390 0.908380 0.614690 -0.654612
O2    O     O_R   0.408390 0.091620 0.614690 -0.649604
O3    O     O_R   0.908390 0.408380 0.614690 -0.654612
O4    O     O_R   0.908390 0.591620 0.614690 -0.649604
O5    O     O_R   0.408370 0.908380 0.385360 -0.554439
O6    O     O_R   0.408370 0.091620 0.385360 -0.550884
O7    O     O_R   0.908370 0.408380 0.385360 -0.554439
O8    O     O_R   0.908370 0.591620 0.385360 -0.550884
O9    O     O_R   0.591620 0.091610 0.614640 -0.631652
O10   O     O_R   0.591620 0.908390 0.614640 -0.649330
O11   O     O_R   0.091620 0.591610 0.614640 -0.631652
O12   O     O_R   0.091620 0.408390 0.614640 -0.649329
O13   O     O_R   0.591610 0.091610 0.385310 -0.624925
O14   O     O_R   0.591610 0.908390 0.385310 -0.621978
O15   O     O_R   0.091610 0.591610 0.385310 -0.624926
O16   O     O_R   0.091610 0.408390 0.385310 -0.621978
Zn1   Zn    Zn3+2 0.500010 0.000000 0.653130 0.911760
Zn2   Zn    Zn3+2 0.000010 0.500000 0.653130 0.911760
Zn3   Zn    Zn3+2 0.499980 0.000000 0.346870 0.975659
Zn4   Zn    Zn3+2 0.999980 0.500000 0.346870 0.975659
O17   O     O_3   0.307829 0.003812 0.263129 -0.586949
C65   C     C_3   0.215403 0.988204 0.304278 0.064041
H35   H     H_    0.218634 0.947215 0.395687 0.154645
H36   H     H_    0.174465 0.950589 0.229555 0.120627
C66   C     C_3   0.166988 0.070630 0.348516 -0.363545
H37   H     H_    0.198228 0.092216 0.445307 0.226886
H38   H     H_    0.175666 0.122497 0.273089 0.223678
C67   C     C_3   0.064116 0.056022 0.369951 -0.949877
H39   H     H_    0.029934 0.036716 0.273895 0.260840
H40   H     H_    0.031739 0.116191 0.405222 0.272212
H41   H     H_    0.053502 0.005380 0.447269 0.265870
O18   O     O_3   0.807829 0.503812 0.263129 -0.586948
C68   C     C_3   0.715403 0.488204 0.304278 0.064039
H42   H     H_    0.718634 0.447216 0.395689 0.154645
H43   H     H_    0.674466 0.450589 0.229556 0.120627
C69   C     C_3   0.666988 0.570631 0.348515 -0.363546
H44   H     H_    0.698227 0.592217 0.445306 0.226886
H45   H     H_    0.675667 0.622497 0.273087 0.223678
C70   C     C_3   0.564116 0.556023 0.369948 -0.949878
H46   H     H_    0.529935 0.536717 0.273891 0.260840
H47   H     H_    0.531738 0.616193 0.405217 0.272212
H48   H     H_    0.553500 0.505382 0.447266 0.265870

loop_
_geom_bond_atom_site_label_1
_geom_bond_atom_site_label_2
_ccdc_geom_bond_type
C34   O16   A    
C68   C69   S    
C58   C62   A    
O13   Zn3   S    
C49   H23   S    
C13   C32   S    
C52   H26   S    
C14   C31   S    
C25   N3    A    
C1    C62   S    
C9    H27   S    
C26   N4    A    
C16   C56   A    
C53   C59   A    
C68   H42   S    
C38   H12   S    
C3    C64   S    
C3    O3    A    
C42   H16   S    
C4    C63   S    
C27   N1    A    
C50   C54   A    
C6    H2    S    
C40   C60   A    
C39   H13   S    
C22   C24   A    
C36   N4    A    
C19   C21   A    
C24   C26   A    
C5    C11   A    
C44   H18   S    
C70   H47   S    
C6    C12   A    
O7    Zn4   S    
C30   N2    A    
C1    O1    A    
O9    Zn1   S    
O16   Zn4   S    
C9    C13   A    
C30   H32   S    
C38   C58   A    
C11   C15   A    
C17   O17   S    
C12   C16   A    
O3    Zn2   S    
C45   C49   A    
O6    Zn3   S    
C15   C34   S    
C18   C20   A    
C2    C61   S    
C50   H24   S    
N1    Zn3   S    
O2    Zn1   S    
C28   N2    A    
C37   H11   S    
C10   H28   S    
C12   H30   S    
C45   H19   S    
C31   O13   A    
C44   C46   A    
C46   C50   A    
C13   C53   A    
C19   H33   S    
C33   O15   A    
O14   Zn3   S    
C29   N1    A    
N3    Zn1   S    
C23   H7    S    
O17   C65   S    
C18   C28   A    
C5    H1    S    
C10   C14   A    
C70   H48   S    
C29   H31   S    
C39   C43   A    
C51   C55   A    
C4    O4    A    
C60   C64   A    
C21   H5    S    
C17   C27   A    
C67   H40   S    
O15   Zn4   S    
C66   H38   S    
C16   C33   S    
O11   Zn2   S    
C2    O2    A    
C39   C59   A    
C41   C47   A    
C5    C61   A    
C42   C48   A    
C32   O14   A    
C43   C45   A    
C7    C63   A    
C36   H10   S    
C8    C64   A    
C65   C66   S    
C46   H20   S    
C40   H14   S    
C14   C54   A    
C1    O5    A    
C8    H4    S    
C55   C57   A    
C43   H17   S    
C48   H22   S    
C59   C63   A    
C67   H41   S    
C34   O12   A    
O5    Zn3   S    
C40   C44   A    
C66   H37   S    
C47   H21   S    
N4    Zn2   S    
C24   H8    S    
C65   H36   S    
C68   H43   S    
C4    O8    A    
C35   H9    S    
C32   O10   A    
O4    Zn2   S    
C26   C28   A    
O1    Zn1   S    
C20   C22   A    
C35   N3    A    
C69   C70   S    
C41   H15   S    
O10   Zn1   S    
C47   C51   A    
C57   C61   A    
O18   C68   S    
C69   H45   S    
C25   C27   A    
C29   C35   A    
C33   O11   A    
C51   H25   S    
C30   C36   A    
C54   C60   A    
C6    C62   A    
C21   C23   A    
C67   H39   S    
C66   C67   S    
C70   H46   S    
O8    Zn4   S    
C11   H29   S    
C3    O7    A    
C49   C53   A    
C2    O6    A    
C17   C19   A    
C56   C58   A    
C18   O18   S    
N2    Zn4   S    
C23   C25   A    
C37   C41   A    
C37   C57   A    
C69   H44   S    
C7    H3    S    
C38   C42   A    
C7    C9    A    
C48   C52   A    
C20   H34   S    
C8    C10   A    
C31   O9    A    
C22   H6    S    
O12   Zn2   S    
C52   C56   A    
C15   C55   A    
C65   H35   S    
