data_str_m2_o10_o17_f0_pcu.sym.94
_audit_creation_date              2012-12-10T16:44:46-0500
_audit_creation_method            fapswitch 2.2
_symmetry_space_group_name_H-M    P1
_symmetry_Int_Tables_number       1
_space_group_crystal_system       triclinic
_cell_length_a                    14.962966
_cell_length_b                    8.673477
_cell_length_c                    7.43589
_cell_angle_alpha                 103.003939
_cell_angle_beta                  93.831258
_cell_angle_gamma                 92.440988
_cell_volume                      936.537041271

loop_
_atom_site_label
_atom_site_type_symbol
_atom_type_description
_atom_site_fract_x
_atom_site_fract_y
_atom_site_fract_z
_atom_type_partial_charge
C1    C     C_R   0.497280 0.199656 0.453179 0.899353
C2    C     C_R   0.502399 0.800323 0.546822 0.899129
C3    C     C_R   0.040076 0.214118 0.446203 -0.200105
C4    C     C_R   0.961177 0.788170 0.605877 -0.206981
C5    C     C_2   0.496186 0.031736 0.426772 -0.361403
C6    C     C_2   0.502816 0.968184 0.573164 -0.354791
C7    C     C_R   0.329195 0.503107 0.503275 0.871536
C8    C     C_R   0.670818 0.497827 0.496520 0.873727
C9    C     C_R   0.817295 0.640335 0.550290 -0.341721
C10   C     C_R   0.183571 0.362001 0.485097 -0.335855
C11   C     C_R   0.766931 0.496623 0.489989 -0.137508
C12   C     C_R   0.233082 0.505996 0.509647 -0.137790
C13   C     C_R   0.808066 0.353005 0.432166 0.385027
C14   C     C_R   0.190975 0.650085 0.531350 0.385191
C15   C     C_R   0.902342 0.353132 0.457773 0.003790
C16   C     C_R   0.097883 0.649580 0.550863 0.008353
C17   C     C_R   0.953289 0.499794 0.509749 0.029836
C18   C     C_R   0.047305 0.502774 0.515185 0.027814
C19   C     C_R   0.910363 0.643641 0.554492 0.127865
C20   C     C_R   0.090512 0.358817 0.481705 0.129235
C21   C     C_R   0.946753 0.211100 0.434055 -0.222290
C22   C     C_R   0.054214 0.791255 0.603681 -0.226844
Cu1   Cu    Cu3+1 0.510010 0.517380 0.684380 0.945939
Cu2   Cu    Cu3+1 0.489990 0.482620 0.315620 0.930531
H1    H     H_    0.783572 0.749667 0.591579 0.151770
H2    H     H_    0.217757 0.252404 0.463472 0.137305
H3    H     H_    0.909615 0.097197 0.404962 0.168132
H4    H     H_    0.091765 0.904838 0.642449 0.172426
H5    H     H_    0.072768 0.103144 0.424036 0.130461
H6    H     H_    0.928843 0.899030 0.644525 0.146064
H7    H     H_    0.490133 0.960138 0.285720 0.173130
H8    H     H_    0.508715 0.039797 0.714198 0.178044
H9    H     H_    0.429919 0.377957 0.948609 0.229505
H10   H     H_    0.570143 0.621926 0.051386 0.225357
N1    N     N_2   0.474890 0.456420 0.038520 -0.228205
N2    N     N_2   0.525110 0.543580 0.961480 -0.222875
O1    O     O_R   0.506510 0.286130 0.619770 -0.592533
O2    O     O_R   0.493490 0.713870 0.380230 -0.600846
O3    O     O_R   0.489600 0.256770 0.308360 -0.595514
O4    O     O_R   0.510400 0.743230 0.691640 -0.585408
O5    O     O_R   0.378710 0.514640 0.655720 -0.584806
O6    O     O_R   0.621290 0.485360 0.344280 -0.601494
O7    O     O_R   0.361800 0.485290 0.344300 -0.598263
O8    O     O_R   0.638200 0.514710 0.655700 -0.585754
O9    O     O_3   0.754792 0.213804 0.366238 -0.627271
C23   C     C_3   0.765415 0.151394 0.175538 0.012055
H11   H     H_    0.748109 0.021833 0.145825 0.169064
H12   H     H_    0.835481 0.165106 0.137180 0.141744
C24   C     C_3   0.702566 0.224881 0.050986 -0.326906
H13   H     H_    0.631979 0.205348 0.082333 0.248717
H14   H     H_    0.719450 0.354354 0.077136 0.226535
C25   C     C_3   0.711850 0.151927 0.846551 -0.885216
H15   H     H_    0.781992 0.170206 0.811657 0.257661
H16   H     H_    0.667151 0.209572 0.759717 0.290036
H17   H     H_    0.692718 0.022907 0.813961 0.243649
O10   O     O_3   0.242550 0.789095 0.540268 -0.626752
C26   C     C_3   0.222139 0.849972 0.380964 0.008731
H18   H     H_    0.246647 0.976492 0.415319 0.163739
H19   H     H_    0.148992 0.847477 0.341837 0.138818
C27   C     C_3   0.269139 0.763788 0.213272 -0.349464
H20   H     H_    0.342233 0.768978 0.250223 0.257354
H21   H     H_    0.243575 0.637732 0.171834 0.225403
C28   C     C_3   0.252814 0.839374 0.048273 -0.870516
H22   H     H_    0.179974 0.832762 0.004950 0.257424
H23   H     H_    0.288377 0.774973 0.930189 0.285818
H24   H     H_    0.278703 0.965368 0.084436 0.250845

loop_
_geom_bond_atom_site_label_1
_geom_bond_atom_site_label_2
_ccdc_geom_bond_type
C14   O10   S    
Cu1   Cu2   S    
C28   H23   S    
C15   C17   A    
C7    O7    A    
Cu2   O2    S    
C4    C22   A    
C2    O2    A    
C6    H8    S    
N1    N2    D    
Cu1   O5    S    
C25   H17   S    
C1    O1    A    
C9    C11   A    
C24   C25   S    
C10   H2    S    
C24   H14   S    
C7    O5    A    
C17   C18   A    
C21   H3    S    
C28   H24   S    
C9    H1    S    
C3    C20   A    
C22   H4    S    
O9    C23   S    
O10   C26   S    
C13   O9    S    
C11   C13   A    
C23   C24   S    
C8    O8    A    
C26   H18   S    
C2    C6    S    
C10   C12   A    
C8    C11   S    
C1    C5    S    
C16   C18   A    
C17   C19   A    
C8    O6    A    
C25   H16   S    
C24   H13   S    
H10   N2    S    
C13   C15   A    
C5    C6    D    
C14   C16   A    
C7    C12   S    
C26   H19   S    
Cu2   N1    S    
C3    C21   A    
C1    O3    A    
Cu1   O4    S    
C23   H12   S    
C2    O4    A    
C15   C21   A    
Cu2   O3    S    
Cu2   O6    S    
C25   H15   S    
C18   C20   A    
C27   H21   S    
Cu1   N2    S    
C27   C28   S    
C10   C20   A    
C3    H5    S    
Cu2   O7    S    
C23   H11   S    
C26   C27   S    
C16   C22   A    
H9    N1    S    
Cu1   O1    S    
C4    C19   A    
C9    C19   A    
C4    H6    S    
Cu1   O8    S    
C28   H22   S    
C12   C14   A    
C27   H20   S    
C5    H7    S    
