data_str_m12_o9_o12_f0_bcu.sym.3
_audit_creation_date              2012-12-11T17:41:37-0500
_audit_creation_method            fapswitch 2.2
_symmetry_space_group_name_H-M    P1
_symmetry_Int_Tables_number       1
_space_group_crystal_system       triclinic
_cell_length_a                    15.578973
_cell_length_b                    15.089988
_cell_length_c                    14.87727
_cell_angle_alpha                 109.765664
_cell_angle_beta                  121.546709
_cell_angle_gamma                 59.02299
_cell_volume                      2544.08096868

loop_
_atom_site_label
_atom_site_type_symbol
_atom_type_description
_atom_site_fract_x
_atom_site_fract_y
_atom_site_fract_z
_atom_type_partial_charge
C1    C     C_R   0.748853 0.997753 0.792129 -0.113500
C2    C     C_R   0.149837 0.214952 0.969863 -0.129252
C3    C     C_R   0.704381 0.680443 0.866033 -0.143179
C4    C     C_R   0.255960 0.140707 0.980572 -0.144098
C5    C     C_R   0.702920 0.756014 0.952963 0.115097
C6    C     C_R   0.279831 0.034534 0.960964 0.088108
C7    C     C_R   0.804134 0.758434 0.034212 -0.177221
C8    C     C_R   0.195842 0.003595 0.927192 -0.158731
C9    C     C_R   0.904324 0.686749 0.028303 -0.108674
C10   C     C_R   0.089734 0.078045 0.915768 -0.124646
C11   C     C_R   0.904628 0.612131 0.941520 -0.086010
C12   C     C_R   0.195709 0.063010 0.226481 -0.134712
C13   C     C_R   0.066756 0.183678 0.937512 -0.113444
C14   C     C_R   0.589032 0.854204 0.054255 -0.225647
C15   C     C_R   0.396276 0.923498 0.871528 -0.137926
C16   C     C_R   0.202582 0.276006 0.444492 -0.113515
C17   C     C_R   0.774935 0.712764 0.525700 -0.125116
C18   C     C_R   0.489212 0.926300 0.061916 0.091442
C19   C     C_R   0.498815 0.881270 0.870077 0.098371
C20   C     C_R   0.389889 0.956386 0.967169 0.003244
C21   C     C_R   0.595884 0.831652 0.958472 0.042229
C22   C     C_2   0.028325 0.351268 0.470133 -0.210005
C23   C     C_R   0.141114 0.276001 0.486169 0.145044
C24   C     C_2   0.881130 0.606934 0.414914 -0.213926
C25   C     C_2   0.969867 0.421247 0.400468 -0.097810
C26   C     C_2   0.882393 0.517953 0.415626 -0.106490
C27   C     C_2   0.826453 0.132758 0.901824 -0.226413
C28   C     C_2   0.014994 0.047917 0.157988 -0.219262
C29   C     C_R   0.217243 0.790494 0.564110 -0.171820
C30   C     C_R   0.747717 0.132403 0.295526 -0.175718
C31   C     C_R   0.308966 0.703926 0.550549 -0.047455
C32   C     C_R   0.653499 0.222330 0.299550 -0.047697
C33   C     C_R   0.297778 0.662477 0.445581 0.018362
C34   C     C_R   0.814454 0.703828 0.457308 0.152053
C35   C     C_R   0.668163 0.299240 0.386783 0.025326
C36   C     C_R   0.194211 0.703381 0.359018 -0.184527
C37   C     C_R   0.776467 0.285326 0.464253 -0.178285
C38   C     C_R   0.104487 0.788184 0.374721 -0.117736
C39   C     C_R   0.868592 0.196511 0.457448 -0.088145
C40   C     C_R   0.590126 0.217268 0.485396 -0.135285
C41   C     C_R   0.403842 0.772454 0.446056 -0.141794
C42   C     C_R   0.116361 0.832298 0.476989 -0.120905
C43   C     C_R   0.854199 0.119949 0.373630 -0.109376
C44   C     C_R   0.391821 0.479069 0.403012 -0.158660
C45   C     C_R   0.496121 0.297948 0.427950 0.040517
C46   C     C_R   0.570101 0.490963 0.415598 -0.209568
C47   C     C_R   0.486452 0.388784 0.404031 0.103493
C48   C     C_R   0.483024 0.580467 0.432214 0.095930
C49   C     C_R   0.573135 0.393352 0.401175 0.089685
C50   C     C_R   0.390720 0.574580 0.422298 0.074654
C51   C     C_2   0.853800 0.109424 0.995080 -0.090744
C52   C     C_2   0.952195 0.118017 0.087400 -0.104941
C53   C     C_R   0.408772 0.980521 0.712570 -0.104186
C54   C     C_R   0.588414 0.959431 0.263782 -0.082588
C55   C     C_R   0.406230 0.285925 0.407895 -0.105481
C56   C     C_R   0.492417 0.677675 0.465496 0.051958
C57   C     C_R   0.588313 0.693782 0.531948 -0.121499
C58   C     C_R   0.592223 0.908836 0.788681 -0.146098
C59   C     C_R   0.404065 0.025430 0.192800 -0.131628
C60   C     C_R   0.200916 0.185717 0.535558 -0.139411
C61   C     C_R   0.776066 0.802515 0.433943 -0.150911
C62   C     C_R   0.748897 0.090183 0.701748 -0.147158
C63   C     C_R   0.195734 0.972017 0.316628 -0.165915
C64   C     C_R   0.774651 0.077209 0.802491 0.142676
C65   C     C_R   0.132105 0.025557 0.228130 0.158751
C66   C     C_2   0.412017 0.657453 0.646690 0.960523
C67   C     C_R   0.500946 0.920942 0.793956 0.043119
C68   C     C_2   0.542875 0.234724 0.209959 0.968125
C69   C     C_R   0.493314 0.968618 0.168053 0.104635
C70   C     C_R   0.804719 0.609119 0.860361 -0.137128
H1    H     H_    0.983230 0.998066 0.157273 0.126472
H2    H     H_    0.212590 0.922067 0.909478 0.129771
H3    H     H_    0.981750 0.689298 0.090921 0.103395
H4    H     H_    0.025636 0.053250 0.889278 0.125767
H5    H     H_    0.662855 0.818815 0.123558 0.117486
H6    H     H_    0.319806 0.949228 0.800665 0.110008
H7    H     H_    0.831380 0.516348 0.443732 0.125907
H8    H     H_    0.998989 0.417348 0.346482 0.124900
H9    H     H_    0.932729 0.607843 0.387024 0.135429
H10   H     H_    0.998195 0.356716 0.524146 0.128505
H11   H     H_    0.046712 0.898301 0.489025 0.108636
H12   H     H_    0.857773 0.180831 0.898841 0.125580
H13   H     H_    0.925819 0.051105 0.368543 0.100999
H14   H     H_    0.177422 0.328662 0.392290 0.082248
H15   H     H_    0.799942 0.652774 0.569211 0.085500
H16   H     H_    0.222701 0.825259 0.642575 0.146869
H17   H     H_    0.739225 0.072391 0.230298 0.139421
H18   H     H_    0.183974 0.670874 0.278863 0.119744
H19   H     H_    0.789556 0.342857 0.531297 0.111896
H20   H     H_    0.025779 0.820133 0.307391 0.099653
H21   H     H_    0.951344 0.186760 0.517713 0.099378
H22   H     H_    0.323298 0.477171 0.402994 0.112672
H23   H     H_    0.982262 0.556803 0.937041 0.101087
H24   H     H_    0.637520 0.497065 0.417676 0.118688
H25   H     H_    0.675495 0.197284 0.507393 0.110412
H26   H     H_    0.317974 0.790132 0.394174 0.125850
H27   H     H_    0.323145 0.996000 0.683418 0.084191
H28   H     H_    0.672164 0.927134 0.273491 0.081893
H29   H     H_    0.320684 0.324970 0.352830 0.084295
H30   H     H_    0.671361 0.635316 0.568415 0.087601
H31   H     H_    0.678136 0.859909 0.832611 0.116354
H32   H     H_    0.317826 0.045309 0.142698 0.125795
H33   H     H_    0.171218 0.155746 0.564948 0.090819
H34   H     H_    0.984558 0.241529 0.928581 0.100655
H35   H     H_    0.801552 0.822922 0.391890 0.091750
H36   H     H_    0.758110 0.146165 0.681511 0.105853
H37   H     H_    0.165032 0.947471 0.350115 0.104764
H38   H     H_    0.758235 0.966889 0.853916 0.093796
H39   H     H_    0.166540 0.120456 0.177373 0.097428
H40   H     H_    0.562208 0.538754 0.709540 0.318465
H41   H     H_    0.386616 0.331054 0.121265 0.314139
H42   H     H_    0.982880 0.168084 0.086948 0.129157
H43   H     H_    0.821037 0.063141 0.998981 0.127874
H44   H     H_    0.804938 0.551590 0.792912 0.110860
H45   H     H_    0.131763 0.296699 0.985844 0.110602
H46   H     H_    0.627818 0.677457 0.802227 0.149525
H47   H     H_    0.319460 0.165589 0.004238 0.156736
H48   H     H_    0.805617 0.816588 0.101384 0.104101
N1    N     N_R   0.705410 0.966550 0.689210 -0.047390
N2    N     N_R   0.556610 0.796750 0.548620 -0.039226
N3    N     N_R   0.556610 0.951620 0.703500 -0.041110
N4    N     N_R   0.443390 0.048380 0.296500 -0.045865
N5    N     N_R   0.294590 0.131500 0.522480 -0.041401
N6    N     N_R   0.705410 0.868500 0.477520 -0.043234
N7    N     N_R   0.705410 0.023370 0.632390 -0.044369
N8    N     N_R   0.294590 0.976630 0.367610 -0.040249
N9    N     N_R   0.294590 0.033450 0.310790 -0.046127
N10   N     N_R   0.294590 0.188320 0.465660 -0.045214
N11   N     N_R   0.705410 0.811680 0.534340 -0.043935
N12   N     N_R   0.556610 0.157790 0.497330 -0.039371
N13   N     N_R   0.443390 0.842210 0.502670 -0.041060
N14   N     N_R   0.443390 0.997080 0.657540 -0.039752
N15   N     N_R   0.556610 0.002920 0.342460 -0.045101
N16   N     N_R   0.443390 0.203250 0.451380 -0.039376
Ni1   Ni    Ni4+2 0.629830 0.882720 0.617850 0.216494
Ni2   Ni    Ni4+2 0.370170 0.117280 0.382150 0.212762
Ni3   Ni    Ni4+2 0.629830 0.013030 0.487540 0.218684
Ni4   Ni    Ni4+2 0.370170 0.986970 0.512460 0.213945
O1    O     O_2   0.419838 0.701104 0.734705 -0.671060
O2    O     O_R   0.498772 0.562670 0.638216 -0.815180
O3    O     O_2   0.527328 0.157975 0.156635 -0.677679
O4    O     O_R   0.457429 0.333549 0.183698 -0.807220

loop_
_geom_bond_atom_site_label_1
_geom_bond_atom_site_label_2
_ccdc_geom_bond_type
C31   C66   S    
C53   N14   A    
C63   C65   A    
N15   Ni3   S    
N8    N9    A    
C29   C42   A    
N2    N13   A    
C43   H13   S    
C14   C18   A    
C11   C70   A    
C47   C49   A    
C12   N9    A    
N12   N16   A    
C70   H44   S    
C15   C19   A    
N5    Ni4   S    
C51   H43   S    
C61   N6    A    
C17   H15   S    
C14   C21   A    
C35   C37   A    
C24   C26   D    
C38   C42   A    
C3    H46   S    
N10   Ni2   S    
C41   H26   S    
C52   H42   S    
N14   Ni4   S    
C16   H14   S    
C33   C36   A    
C56   C57   A    
C48   C56   S    
C1    N1    A    
C2    C13   A    
C62   C64   A    
H41   O4    S    
N11   Ni1   S    
C66   O1    D    
C22   C25   D    
C35   C49   S    
C31   C33   A    
C19   C67   S    
C4    H47   S    
C60   H33   S    
C61   H35   S    
C44   H22   S    
C44   C47   A    
C28   C52   D    
C32   C68   S    
C11   H23   S    
C59   N4    A    
C48   C50   A    
C15   H6    S    
C23   C60   A    
C7    H48   S    
C15   C20   A    
C42   H11   S    
C9    H3    S    
C39   H21   S    
C12   H39   S    
C27   C51   D    
C45   C47   S    
C40   C45   A    
C46   C48   A    
C8    H2    S    
C26   H7    S    
C17   N11   A    
C51   C52   S    
C32   C35   A    
N6    Ni3   S    
C3    C70   A    
N9    Ni2   S    
C4    C6    A    
C41   N13   A    
C39   C43   A    
C53   H27   S    
C25   C26   S    
C57   H30   S    
C34   C61   A    
C36   H18   S    
C25   H8    S    
C60   N5    A    
C2    C4    A    
C41   C56   A    
N16   Ni2   S    
C9    C11   A    
C2    H45   S    
C24   H9    S    
C46   H24   S    
N1    Ni1   S    
C66   O2    S    
C68   O3    D    
C58   H31   S    
N3    Ni1   S    
C13   H34   S    
C68   O4    S    
N4    N15   A    
C16   N10   A    
N4    Ni2   S    
C29   H16   S    
C59   C69   A    
C57   N2    A    
N1    N7    A    
C8    C10   A    
C16   C23   A    
C54   N15   A    
C46   C49   A    
C30   C43   A    
C28   H1    S    
C17   C34   A    
N3    N14   A    
C63   H37   S    
C1    C64   A    
C5    C7    A    
C44   C50   A    
C7    C9    A    
C40   N12   A    
N8    Ni4   S    
C58   N3    A    
C19   C21   A    
C59   H32   S    
C27   H12   S    
C3    C5    A    
C10   C13   A    
C62   N7    A    
C6    C8    A    
C62   H36   S    
C55   N16   A    
C6    C20   S    
C12   C65   A    
C38   H20   S    
C37   H19   S    
N2    Ni1   S    
N7    Ni3   S    
C14   H5    S    
H40   O2    S    
C28   C65   S    
C33   C50   S    
C22   H10   S    
C29   C31   A    
N13   Ni4   S    
C30   C32   A    
C10   H4    S    
N5    N10   A    
C54   C69   A    
C18   C69   S    
C36   C38   A    
N6    N11   A    
C18   C20   A    
C53   C67   A    
C24   C34   S    
C63   N8    A    
C27   C64   S    
C1    H38   S    
C58   C67   A    
C5    C21   S    
C45   C55   A    
C37   C39   A    
C55   H29   S    
C22   C23   S    
C54   H28   S    
C40   H25   S    
C30   H17   S    
N12   Ni3   S    
