data_str_m3_o14_o22_f0_pcu.sym.241
_audit_creation_date              2012-12-10T17:47:43-0500
_audit_creation_method            fapswitch 2.2
_symmetry_space_group_name_H-M    P1
_symmetry_Int_Tables_number       1
_space_group_crystal_system       triclinic
_cell_length_a                    10.629495
_cell_length_b                    10.692994
_cell_length_c                    9.905657
_cell_angle_alpha                 88.97359
_cell_angle_beta                  90.331039
_cell_angle_gamma                 91.041143
_cell_volume                      1125.50488747

loop_
_atom_site_label
_atom_site_type_symbol
_atom_type_description
_atom_site_fract_x
_atom_site_fract_y
_atom_site_fract_z
_atom_type_partial_charge
C1    C     C_R   0.506402 0.261011 0.501417 0.869383
C2    C     C_3   0.878591 0.497993 0.499490 0.195755
C3    C     C_3   0.929890 0.617150 0.568812 -0.413546
C4    C     C_3   0.927803 0.496377 0.352019 -0.386035
C5    C     C_R   0.690757 0.127623 0.668716 -0.192496
C6    C     C_R   0.778173 0.060815 0.744943 -0.141488
C7    C     C_R   0.780147 0.931245 0.738348 -0.152295
C8    C     C_R   0.694380 0.868102 0.655944 -0.187932
C9    C     C_R   0.602806 0.933909 0.579462 0.085402
C10   C     C_R   0.602072 0.064987 0.585344 0.093470
C11   C     C_R   0.515465 0.129197 0.502743 -0.151111
C12   C     C_R   0.257720 0.499014 0.499686 0.805845
C13   C     C_R   0.440835 0.068866 0.408448 -0.242594
C14   C     C_R   0.445694 0.942106 0.394279 0.082949
C15   C     C_R   0.516844 0.873180 0.490726 -0.160429
C16   C     C_R   0.339924 0.333061 0.142068 -0.204458
C17   C     C_R   0.267367 0.244752 0.073986 -0.262311
C18   C     C_R   0.269960 0.240518 0.933813 0.135362
C19   C     C_R   0.343169 0.329270 0.862413 -0.202217
C20   C     C_R   0.422129 0.416456 0.928846 0.137865
C21   C     C_R   0.421479 0.417293 0.073303 0.182290
C22   C     C_R   0.574675 0.579476 0.070459 -0.137743
C23   C     C_R   0.502820 0.740056 0.497747 0.869429
C24   C     C_R   0.574485 0.579596 0.927295 -0.112259
C25   C     C_R   0.742181 0.498822 0.500044 0.810984
C26   C     C_3   0.070689 0.382067 0.579099 -0.415395
C27   C     C_3   0.926107 0.380242 0.576321 -0.407597
C28   C     C_3   0.073988 0.617865 0.567724 -0.396076
C29   C     C_3   0.070353 0.492254 0.352270 -0.403593
C30   C     C_3   0.121166 0.498097 0.499289 0.196501
H1    H     H_    0.103526 0.385952 0.685770 0.175750
H2    H     H_    0.897164 0.581517 0.295206 0.172130
H3    H     H_    0.108331 0.703235 0.513698 0.154505
H4    H     H_    0.895347 0.702228 0.514891 0.157074
H5    H     H_    0.378422 0.122173 0.343258 0.152076
H6    H     H_    0.696446 0.228277 0.673515 0.158328
H7    H     H_    0.846174 0.109962 0.807278 0.131013
H8    H     H_    0.849926 0.879532 0.795245 0.127944
H9    H     H_    0.704622 0.768223 0.649315 0.145212
H10   H     H_    0.635742 0.644354 0.123407 0.139862
H11   H     H_    0.106453 0.294539 0.535066 0.150261
H12   H     H_    0.329462 0.332027 0.248636 0.207313
H13   H     H_    0.208901 0.179349 0.131542 0.139784
H14   H     H_    0.335577 0.327324 0.755447 0.206621
H15   H     H_    0.635468 0.644548 0.872632 0.140564
H16   H     H_    0.891159 0.294140 0.525685 0.160713
H17   H     H_    0.890349 0.377361 0.681763 0.173686
H18   H     H_    0.109849 0.622934 0.673366 0.182864
H19   H     H_    0.896608 0.620397 0.675052 0.171889
H20   H     H_    0.108160 0.571606 0.290223 0.194420
H21   H     H_    0.100448 0.404312 0.304308 0.172279
H22   H     H_    0.889493 0.413127 0.298408 0.180191
N1    N     N_R   0.498810 0.498800 0.142780 -0.116027
N2    N     N_R   0.498760 0.498720 0.857170 -0.115679
O1    O     O_R   0.500000 0.316780 0.614690 -0.649049
O2    O     O_R   0.499990 0.316750 0.385360 -0.626612
O3    O     O_R   0.314800 0.499990 0.614670 -0.636576
O4    O     O_R   0.314790 0.499970 0.385330 -0.646612
O5    O     O_R   0.500010 0.683250 0.614640 -0.615247
O6    O     O_R   0.500000 0.683220 0.385310 -0.621598
O7    O     O_R   0.685210 0.500030 0.614670 -0.637246
O8    O     O_R   0.685200 0.500010 0.385330 -0.622916
Zn1   Zn    Zn3+2 0.500010 0.500020 0.653130 0.916453
Zn2   Zn    Zn3+2 0.499990 0.499980 0.346870 0.921160
C31   C     C_3   0.375719 0.889405 0.272504 -0.369765
C32   C     C_3   0.246525 0.835281 0.310495 -0.349181
C33   C     C_3   0.164852 0.814051 0.185289 -0.914485
H23   H     H_    0.153523 0.902967 0.127093 0.258424
H24   H     H_    0.208167 0.743704 0.119624 0.269670
H25   H     H_    0.069961 0.779719 0.216238 0.243175
H26   H     H_    0.259496 0.744983 0.364366 0.232121
H27   H     H_    0.197451 0.900312 0.378026 0.215389
H28   H     H_    0.361967 0.965370 0.195682 0.193357
H29   H     H_    0.432395 0.820831 0.217884 0.222045
C34   C     C_3   0.194019 0.141871 0.860155 -0.456771
C35   C     C_3   0.280147 0.047667 0.793351 -0.302002
C36   C     C_3   0.204254 0.949789 0.715541 -0.901635
H30   H     H_    0.140005 0.896675 0.784632 0.259014
H31   H     H_    0.148146 0.995508 0.634214 0.255608
H32   H     H_    0.269223 0.883120 0.668679 0.255657
H33   H     H_    0.344799 0.097216 0.722006 0.229161
H34   H     H_    0.337682 0.999615 0.871996 0.228824
H35   H     H_    0.130153 0.090389 0.931230 0.197996
H36   H     H_    0.133816 0.187521 0.782639 0.193207

loop_
_geom_bond_atom_site_label_1
_geom_bond_atom_site_label_2
_ccdc_geom_bond_type
C18   C34   S    
C19   C20   A    
C1    C11   S    
C3    H19   S    
C7    C8    A    
C36   H30   S    
C23   O5    A    
C26   C27   S    
C16   C21   A    
C4    H22   S    
C24   H15   S    
C3    C28   S    
C1    O2    A    
C13   H5    S    
C5    C6    A    
N1    Zn2   S    
C34   H36   S    
N2    Zn1   S    
C24   N2    A    
C5    H6    S    
C31   H28   S    
C18   C19   A    
O7    Zn1   S    
O8    Zn2   S    
C7    H8    S    
C32   H27   S    
C8    C9    A    
O1    Zn1   S    
O2    Zn2   S    
C2    C27   S    
C8    H9    S    
C9    C10   A    
C4    C29   S    
C12   O4    A    
C15   C23   S    
C32   C33   S    
C26   H1    S    
C13   C14   A    
O3    Zn1   S    
C22   N1    A    
C29   H20   S    
C36   H31   S    
O4    Zn2   S    
C23   O6    A    
C33   H23   S    
C35   C36   S    
C20   N2    A    
C35   H34   S    
C16   C17   A    
C3    H4    S    
C31   H29   S    
C33   H24   S    
C2    C4    S    
C34   C35   S    
C17   H13   S    
C29   C30   S    
C32   H26   S    
C22   H10   S    
C17   C18   A    
C6    H7    S    
C25   O7    A    
C4    H2    S    
C12   O3    A    
C27   H16   S    
C28   H3    S    
C26   C30   S    
C22   C24   A    
C16   H12   S    
C19   H14   S    
C29   H21   S    
C36   H32   S    
C27   H17   S    
C28   H18   S    
C12   C30   S    
C35   H33   S    
C6    C7    A    
O5    Zn1   S    
O6    Zn2   S    
C33   H25   S    
C28   C30   S    
C2    C3    S    
C1    O1    A    
C5    C10   A    
C21   N1    A    
C11   C13   A    
C34   H35   S    
C14   C31   S    
C2    C25   S    
C25   O8    A    
C9    C15   A    
C10   C11   A    
C20   C21   A    
C31   C32   S    
C14   C15   A    
C26   H11   S    
