data_str_m4_o15_o24_f0_acs.sym.9
_audit_creation_date              2012-12-11T14:28:35-0500
_audit_creation_method            fapswitch 2.2
_symmetry_space_group_name_H-M    P1
_symmetry_Int_Tables_number       1
_space_group_crystal_system       triclinic
_cell_length_a                    10.854305
_cell_length_b                    19.549175
_cell_length_c                    18.739052
_cell_angle_alpha                 90.121688
_cell_angle_beta                  89.592274
_cell_angle_gamma                 89.998385
_cell_volume                      3976.18053797

loop_
_atom_site_label
_atom_site_type_symbol
_atom_type_description
_atom_site_fract_x
_atom_site_fract_y
_atom_site_fract_z
_atom_type_partial_charge
Br1   Br    Br    0.130654 0.875213 0.390519 -0.508437
Br2   Br    Br    0.148952 0.876929 0.108431 -0.482636
Br3   Br    Br    0.913803 0.131161 0.563257 -0.570897
Br4   Br    Br    0.928361 0.125252 0.934136 -0.559025
Br5   Br    Br    0.630636 0.375218 0.390518 -0.508437
Br6   Br    Br    0.649050 0.376923 0.108425 -0.482642
Br7   Br    Br    0.413865 0.631151 0.563271 -0.570860
Br8   Br    Br    0.428418 0.625238 0.934121 -0.558988
C1    C     C_R   0.316716 0.940164 0.637770 0.543223
C2    C     C_3   0.178483 0.704133 0.027186 -0.107483
C3    C     C_3   0.035605 0.194896 0.973651 0.162715
C4    C     C_3   0.602943 0.306856 0.463947 0.135849
C5    C     C_3   0.607892 0.308725 0.036644 0.142214
C6    C     C_3   0.531324 0.696507 0.525319 0.161978
C7    C     C_3   0.535580 0.694905 0.973663 0.162714
C8    C     C_3   0.204384 0.771683 0.508030 -0.095044
C9    C     C_3   0.206160 0.772614 0.990197 -0.089454
C10   C     C_3   0.165351 0.185075 0.500319 -0.138890
C11   C     C_3   0.170943 0.189217 0.997025 -0.148517
C12   C     C_3   0.704384 0.271689 0.508029 -0.095035
C13   C     C_3   0.207999 0.245509 0.547461 -0.153821
C14   C     C_3   0.706192 0.272592 0.990196 -0.089443
C15   C     C_3   0.665347 0.685076 0.500317 -0.138866
C16   C     C_3   0.670933 0.689243 0.997007 -0.148488
C17   C     C_3   0.106185 0.753797 0.565554 0.021195
C18   C     C_3   0.106060 0.755813 0.934477 0.020792
C19   C     C_3   0.142646 0.236055 0.439021 0.015764
C20   C     C_3   0.141057 0.236478 0.061054 0.016308
C21   C     C_3   0.606187 0.253798 0.565553 0.021203
C22   C     C_3   0.606076 0.255809 0.934479 0.020804
C23   C     C_3   0.642641 0.736056 0.439021 0.015760
C24   C     C_3   0.203513 0.253218 0.952665 -0.149884
C25   C     C_3   0.641044 0.736480 0.061058 0.016307
C26   C     C_3   0.004967 0.789735 0.522093 -0.140323
C27   C     C_3   0.007600 0.792897 0.979841 -0.134178
C28   C     C_3   0.008610 0.246591 0.463161 -0.108448
C29   C     C_3   0.005784 0.241098 0.038485 -0.098195
C30   C     C_3   0.504962 0.289733 0.522093 -0.140331
C31   C     C_3   0.507644 0.292909 0.979848 -0.134194
C32   C     C_3   0.508608 0.746592 0.463163 -0.108464
C33   C     C_3   0.505755 0.741080 0.038518 -0.098170
C34   C     C_3   0.980123 0.720457 0.485628 -0.153973
C35   C     C_3   0.677495 0.202807 0.470888 -0.091286
C36   C     C_3   0.981281 0.723940 0.016057 -0.157977
C37   C     C_3   0.052057 0.306565 0.510277 -0.134885
C38   C     C_3   0.038721 0.304760 0.993929 -0.147602
C39   C     C_3   0.480127 0.220452 0.485627 -0.153971
C40   C     C_3   0.481295 0.223956 0.016065 -0.158013
C41   C     C_3   0.552060 0.806564 0.510280 -0.134893
C42   C     C_3   0.538628 0.804769 0.993978 -0.147745
C43   C     C_3   0.081431 0.685033 0.528995 -0.098084
C44   C     C_3   0.079955 0.687591 0.970601 -0.112679
C45   C     C_3   0.186205 0.296114 0.485558 -0.111184
C46   C     C_3   0.678482 0.204115 0.027186 -0.107464
C47   C     C_3   0.174159 0.300176 0.017015 -0.107043
C48   C     C_3   0.581442 0.185033 0.528994 -0.098064
C49   C     C_3   0.579940 0.187591 0.970603 -0.112679
C50   C     C_3   0.686204 0.796112 0.485559 -0.111195
C51   C     C_3   0.674083 0.800202 0.017031 -0.107032
C52   C     C_3   0.707997 0.745507 0.547460 -0.153818
C53   C     C_3   0.703435 0.753271 0.952660 -0.149761
C54   C     C_3   0.075993 0.738962 0.429108 0.071091
C55   C     C_3   0.079477 0.740877 0.071364 0.066777
C56   C     C_3   0.075439 0.255910 0.571098 0.071272
C57   C     C_R   0.315701 0.937117 0.862740 0.528280
C58   C     C_3   0.069613 0.257856 0.930411 0.066449
C59   C     C_3   0.575996 0.238962 0.429108 0.071090
C60   C     C_3   0.579501 0.240878 0.071369 0.066786
C61   C     C_3   0.575440 0.755909 0.571099 0.071270
C62   C     C_3   0.569517 0.757893 0.930439 0.066404
C63   C     C_R   0.319407 0.009508 0.426534 0.005507
C64   C     C_R   0.320227 0.039537 0.062141 -0.035158
C65   C     C_R   0.321044 0.965516 0.565920 -0.026846
C66   C     C_R   0.321211 0.961175 0.936681 -0.035681
C67   C     C_R   0.819403 0.509509 0.426535 0.005503
C68   C     C_R   0.318315 0.035994 0.355519 0.576569
C69   C     C_R   0.820226 0.539551 0.062137 -0.035172
C70   C     C_R   0.821038 0.465518 0.565921 -0.026842
C71   C     C_R   0.821217 0.461186 0.936679 -0.035647
C72   C     C_R   0.540309 0.976439 0.418114 -0.067251
C73   C     C_R   0.546621 0.050456 0.051521 -0.106345
C74   C     C_R   0.548534 0.993233 0.564935 -0.093448
C75   C     C_R   0.551781 0.962921 0.938518 -0.103865
C76   C     C_R   0.040305 0.476441 0.418119 -0.067258
C77   C     C_R   0.046630 0.550468 0.051522 -0.106341
C78   C     C_R   0.048520 0.493239 0.564939 -0.093444
C79   C     C_R   0.316025 0.062789 0.137026 0.527026
C80   C     C_R   0.051795 0.462953 0.938503 -0.103851
C81   C     C_R   0.653022 0.976959 0.452507 -0.131335
C82   C     C_R   0.657438 0.035372 0.018533 -0.121592
C83   C     C_R   0.656986 0.991630 0.525163 -0.136531
C84   C     C_R   0.660084 0.991673 0.961461 -0.118382
C85   C     C_R   0.153016 0.476963 0.452515 -0.131339
C86   C     C_R   0.157452 0.535400 0.018525 -0.121618
C87   C     C_R   0.156976 0.491639 0.525171 -0.136533
C88   C     C_R   0.160100 0.491708 0.961446 -0.118385
C89   C     C_R   0.433497 0.983168 0.531284 -0.025796
C90   C     C_R   0.816715 0.440165 0.637771 0.543224
C91   C     C_R   0.434977 0.982130 0.966972 0.005684
C92   C     C_R   0.430795 0.988576 0.457286 -0.005755
C93   C     C_R   0.433554 0.023902 0.027875 0.008228
C94   C     C_R   0.933488 0.483172 0.531285 -0.025799
C95   C     C_R   0.934983 0.482149 0.966966 0.005705
C96   C     C_R   0.930790 0.488578 0.457288 -0.005762
C97   C     C_R   0.933557 0.523918 0.027871 0.008231
C98   C     C_R   0.207636 0.970816 0.528857 0.030450
C99   C     C_R   0.208064 0.975670 0.972144 0.051052
C100  C     C_R   0.207410 0.008773 0.467176 0.025278
C101  C     C_R   0.815703 0.437121 0.862741 0.528313
C102  C     C_R   0.207149 0.021445 0.029213 0.038389
C103  C     C_R   0.707631 0.470817 0.528858 0.030458
C104  C     C_R   0.708068 0.475679 0.972143 0.051070
C105  C     C_R   0.707405 0.508774 0.467176 0.025284
C106  C     C_R   0.707147 0.521455 0.029210 0.038391
C107  C     C_R   0.093739 0.941754 0.551486 -0.041396
C108  C     C_R   0.094250 0.944811 0.952952 -0.040449
C109  C     C_R   0.092041 0.037168 0.445802 -0.027673
C110  C     C_R   0.090914 0.044472 0.055189 -0.025191
C111  C     C_R   0.593734 0.441754 0.551488 -0.041392
C112  C     C_R   0.818315 0.535994 0.355519 0.576573
C113  C     C_R   0.594257 0.444814 0.952952 -0.040428
C114  C     C_R   0.592037 0.537169 0.445802 -0.027668
C115  C     C_R   0.590904 0.544468 0.055193 -0.025177
C116  C     C_R   0.983046 0.959309 0.520193 -0.070645
C117  C     C_R   0.985563 0.958950 0.989800 -0.062422
C118  C     C_R   0.981957 0.009205 0.468521 -0.043097
C119  C     C_R   0.985016 0.007856 0.042496 -0.030913
C120  C     C_R   0.483043 0.459309 0.520195 -0.070641
C121  C     C_R   0.485565 0.458943 0.989800 -0.062445
C122  C     C_R   0.481957 0.509203 0.468521 -0.043085
C123  C     C_R   0.816025 0.562795 0.137027 0.527034
C124  C     C_R   0.485011 0.507837 0.042506 -0.030944
C125  C     C_R   0.137599 0.759249 0.641840 0.534575
C126  C     C_R   0.137043 0.759574 0.858091 0.531081
C127  C     C_R   0.179883 0.229797 0.363730 0.543010
C128  C     C_R   0.179128 0.230020 0.135994 0.526959
C129  C     C_R   0.637599 0.259249 0.641840 0.534576
C130  C     C_R   0.637051 0.259575 0.858093 0.531102
C131  C     C_R   0.679875 0.729799 0.363730 0.543018
C132  C     C_R   0.679132 0.730018 0.135994 0.526945
C133  C     C_R   0.538212 0.771916 0.643411 0.561009
C134  C     C_3   0.177485 0.702803 0.470889 -0.091298
C135  C     C_R   0.533568 0.773544 0.858077 0.553305
C136  C     C_R   0.541614 0.228389 0.355310 0.595683
C137  C     C_R   0.543791 0.229175 0.145245 0.580964
C138  C     C_R   0.038212 0.271916 0.643410 0.560971
C139  C     C_R   0.033706 0.273495 0.858038 0.553330
C140  C     C_R   0.041613 0.728389 0.355310 0.595687
C141  C     C_R   0.043783 0.729173 0.145242 0.580958
C142  C     C_3   0.102949 0.806854 0.463948 0.135855
C143  C     C_3   0.107835 0.808730 0.036641 0.142217
C144  C     C_3   0.031323 0.196507 0.525319 0.161973
Cr1   Cr    Cr6+3 0.488160 0.884660 0.750000 1.000121
Cr2   Cr    Cr6+3 0.333410 0.272740 0.250000 1.075176
Cr3   Cr    Cr6+3 0.833410 0.227260 0.750000 1.109335
Cr4   Cr    Cr6+3 0.833410 0.772740 0.250000 1.075187
Cr5   Cr    Cr6+3 0.488160 0.115340 0.250000 1.005819
Cr6   Cr    Cr6+3 0.988160 0.384660 0.750000 1.000118
Cr7   Cr    Cr6+3 0.988160 0.615340 0.250000 1.005818
Cr8   Cr    Cr6+3 0.173480 0.883120 0.750000 1.013675
Cr9   Cr    Cr6+3 0.173480 0.116880 0.250000 1.028007
Cr10  Cr    Cr6+3 0.673480 0.383120 0.750000 1.013693
Cr11  Cr    Cr6+3 0.673480 0.616880 0.250000 1.027992
Cr12  Cr    Cr6+3 0.333410 0.727260 0.750000 1.109342
H1    H     H_    0.294217 0.795009 0.521307 0.114580
H2    H     H_    0.902697 0.930962 0.978982 0.084510
H3    H     H_    0.896857 0.029136 0.447914 0.123667
H4    H     H_    0.903761 0.017977 0.073829 0.109961
H5    H     H_    0.399070 0.435117 0.537618 0.089174
H6    H     H_    0.402692 0.430958 0.978971 0.084495
H7    H     H_    0.396861 0.529131 0.447909 0.123651
H8    H     H_    0.403751 0.517932 0.073844 0.109964
H9    H     H_    0.933445 0.822595 0.546443 0.100752
H10   H     H_    0.935244 0.824770 0.955959 0.094778
H11   H     H_    0.929324 0.246830 0.426141 0.141776
H12   H     H_    0.295958 0.794350 0.974437 0.109854
H13   H     H_    0.927153 0.236514 0.076228 0.142567
H14   H     H_    0.433438 0.322592 0.546440 0.100750
H15   H     H_    0.435282 0.324777 0.955967 0.094794
H16   H     H_    0.429324 0.746835 0.426145 0.141775
H17   H     H_    0.427141 0.736458 0.076273 0.142549
H18   H     H_    0.894127 0.695799 0.468934 0.103059
H19   H     H_    0.894024 0.701337 0.034117 0.091244
H20   H     H_    0.002894 0.355532 0.516530 0.135012
H21   H     H_    0.978988 0.350249 0.994680 0.120380
H22   H     H_    0.394132 0.195792 0.468934 0.103056
H23   H     H_    0.219065 0.137329 0.498730 0.106889
H24   H     H_    0.394025 0.201368 0.034130 0.091276
H25   H     H_    0.502895 0.855531 0.516534 0.135012
H26   H     H_    0.478888 0.850255 0.994774 0.120419
H27   H     H_    0.070948 0.635605 0.557191 0.149934
H28   H     H_    0.065627 0.639928 0.939573 0.163075
H29   H     H_    0.250431 0.337128 0.468298 0.143335
H30   H     H_    0.231737 0.343853 0.034826 0.145014
H31   H     H_    0.570967 0.135601 0.557189 0.149948
H32   H     H_    0.565568 0.139931 0.939577 0.163051
H33   H     H_    0.750429 0.837124 0.468298 0.143339
H34   H     H_    0.230734 0.144218 0.992639 0.106853
H35   H     H_    0.731645 0.843887 0.034836 0.145025
H36   H     H_    0.245660 0.667516 0.446215 0.158018
H37   H     H_    0.249739 0.671280 0.051239 0.137016
H38   H     H_    0.284931 0.243962 0.586033 0.124741
H39   H     H_    0.280603 0.256840 0.913746 0.126376
H40   H     H_    0.745677 0.167522 0.446218 0.158034
H41   H     H_    0.749737 0.171251 0.051228 0.137063
H42   H     H_    0.784928 0.743956 0.586030 0.124752
H43   H     H_    0.780498 0.756929 0.913722 0.126419
H44   H     H_    0.735955 0.968324 0.421805 0.118564
H45   H     H_    0.794217 0.295020 0.521303 0.114581
H46   H     H_    0.739701 0.060450 0.035437 0.134679
H47   H     H_    0.742765 0.001161 0.551733 0.152656
H48   H     H_    0.744829 0.980796 0.933491 0.140721
H49   H     H_    0.235951 0.468327 0.421816 0.118560
H50   H     H_    0.239726 0.560488 0.035424 0.134690
H51   H     H_    0.242756 0.501176 0.551742 0.152660
H52   H     H_    0.244858 0.480833 0.933475 0.140738
H53   H     H_    0.540106 0.966667 0.361323 0.157229
H54   H     H_    0.550921 0.088490 0.090625 0.180120
H55   H     H_    0.558034 0.006217 0.620472 0.165701
H56   H     H_    0.796014 0.294310 0.974440 0.109921
H57   H     H_    0.564824 0.923658 0.900448 0.182196
H58   H     H_    0.040106 0.466670 0.361328 0.157232
H59   H     H_    0.050933 0.588495 0.090631 0.180134
H60   H     H_    0.058009 0.506229 0.620475 0.165700
H61   H     H_    0.064854 0.423691 0.900431 0.182207
H62   H     H_    0.082829 0.081321 0.412055 0.160654
H63   H     H_    0.080746 0.088444 0.089290 0.150460
H64   H     H_    0.087892 0.902956 0.590994 0.160512
H65   H     H_    0.089093 0.904808 0.914178 0.151636
H66   H     H_    0.582824 0.581319 0.412054 0.160654
H67   H     H_    0.719063 0.637331 0.498722 0.106893
H68   H     H_    0.580729 0.588435 0.089299 0.150456
H69   H     H_    0.587885 0.402958 0.590997 0.160511
H70   H     H_    0.589103 0.404813 0.914176 0.151640
H71   H     H_    0.730713 0.644239 0.992603 0.106891
H72   H     H_    0.899071 0.935116 0.537611 0.089168
O1    O     O_R   0.575450 0.828820 0.667950 -0.536943
O2    O     O_R   0.416860 0.942890 0.825320 -0.504778
O3    O     O_R   0.416860 0.057110 0.325320 -0.513388
O4    O     O_R   0.416860 0.057110 0.174680 -0.492860
O5    O     O_R   0.916860 0.442890 0.674680 -0.506869
O6    O     O_R   0.916860 0.442890 0.825320 -0.504771
O7    O     O_R   0.916860 0.557110 0.325320 -0.513385
O8    O     O_R   0.916860 0.557110 0.174680 -0.492850
O9    O     O_R   0.213790 0.953680 0.668330 -0.502291
O10   O     O_R   0.213790 0.953680 0.831670 -0.492588
O11   O     O_R   0.213790 0.046320 0.331670 -0.506730
O12   O     O_R   0.575450 0.828820 0.832050 -0.568410
O13   O     O_R   0.213790 0.046320 0.168330 -0.474609
O14   O     O_R   0.713790 0.453680 0.668330 -0.502287
O15   O     O_R   0.713790 0.453680 0.831670 -0.492590
O16   O     O_R   0.713790 0.546320 0.331670 -0.506729
O17   O     O_R   0.713790 0.546320 0.168330 -0.474608
O18   O     O_R   0.121360 0.817890 0.672660 -0.551961
O19   O     O_R   0.121360 0.817890 0.827340 -0.550648
O20   O     O_R   0.121360 0.182110 0.327340 -0.516774
O21   O     O_R   0.121360 0.182110 0.172660 -0.531591
O22   O     O_R   0.621360 0.317890 0.672660 -0.551969
O23   O     O_R   0.575450 0.171180 0.332050 -0.530485
O24   O     O_R   0.621360 0.317890 0.827340 -0.550649
O25   O     O_R   0.621360 0.682110 0.327340 -0.516777
O26   O     O_R   0.621360 0.682110 0.172660 -0.531610
O27   O     O_R   0.206850 0.711370 0.665820 -0.470096
O28   O     O_R   0.206850 0.711370 0.834180 -0.471518
O29   O     O_R   0.206850 0.288630 0.334180 -0.498468
O30   O     O_R   0.206850 0.288630 0.165820 -0.488290
O31   O     O_R   0.706850 0.211370 0.665820 -0.470083
O32   O     O_R   0.706850 0.211370 0.834180 -0.471483
O33   O     O_R   0.706850 0.788630 0.334180 -0.498475
O34   O     O_R   0.575450 0.171180 0.167950 -0.568307
O35   O     O_R   0.706850 0.788630 0.165820 -0.488282
O36   O     O_R   0.457710 0.733190 0.672630 -0.449112
O37   O     O_R   0.457710 0.733190 0.827370 -0.446548
O38   O     O_R   0.457710 0.266810 0.327370 -0.472578
O39   O     O_R   0.457710 0.266810 0.172630 -0.474263
O40   O     O_R   0.957710 0.233190 0.672630 -0.449136
O41   O     O_R   0.957710 0.233190 0.827370 -0.446587
O42   O     O_R   0.957710 0.766810 0.327370 -0.472575
O43   O     O_R   0.957710 0.766810 0.172630 -0.474241
O44   O     O_3   0.331690 0.831680 0.750000 -0.319164
O45   O     O_R   0.075450 0.328820 0.667950 -0.536957
O46   O     O_3   0.331690 0.168320 0.250000 -0.339771
O47   O     O_3   0.831690 0.331680 0.750000 -0.319117
O48   O     O_3   0.831690 0.668320 0.250000 -0.339776
O49   O     O_R   0.075450 0.328820 0.832050 -0.568421
O50   O     O_R   0.075450 0.671180 0.332050 -0.530487
O51   O     O_R   0.075450 0.671180 0.167950 -0.568319
O52   O     O_R   0.416860 0.942890 0.674680 -0.506867

loop_
_geom_bond_atom_site_label_1
_geom_bond_atom_site_label_2
_ccdc_geom_bond_type
C16   C53   S    
C22   C130  S    
C10   C13   S    
C2    C55   S    
C26   C34   S    
C102  C110  A    
C131  O33   A    
C1    C65   S    
C56   C144  S    
C42   C51   S    
C137  O39   A    
C40   H24   S    
C138  O40   A    
C64   C93   A    
C50   C52   S    
C136  O38   A    
C3    C29   S    
C32   H16   S    
C105  C114  A    
C38   C47   S    
C17   C125  S    
C109  C118  A    
C17   C26   S    
C111  C120  A    
Cr10  O24   S    
C25   C51   S    
C140  O50   A    
C63   C100  A    
C141  O51   A    
C9    C143  S    
C10   C144  S    
C11   C24   S    
C139  O41   A    
C130  O24   A    
C86   H50   S    
C71   C101  S    
Cr12  O37   S    
Cr4   O43   S    
C118  H3    S    
Cr9   O46   S    
Cr4   O33   S    
C74   C83   A    
C15   C23   S    
C48   H31   S    
C82   C84   A    
C122  H7    S    
C46   H41   S    
C4    C12   S    
C19   C45   S    
Cr7   O48   S    
Br1   C142  S    
C103  C105  A    
C39   H22   S    
C86   C88   A    
C138  O45   A    
C73   C82   A    
C71   C104  A    
C91   C93   A    
C110  H63   S    
C99   C102  A    
Cr2   O46   S    
Cr7   O8    S    
C8    C17   S    
C101  O15   A    
C11   H34   S    
C54   C142  S    
C56   C138  S    
C112  O16   A    
Cr3   O40   S    
C123  O17   A    
Cr9   O11   S    
C88   H52   S    
C98   C107  A    
C24   H39   S    
C42   C62   S    
C101  O6    A    
Cr12  O28   S    
C90   O14   A    
C76   C85   A    
Cr3   O47   S    
C12   C35   S    
C78   C87   A    
C75   H57   S    
C18   C27   S    
Cr10  O22   S    
C28   H11   S    
C113  H70   S    
C117  C119  A    
C124  H8    S    
C15   H67   S    
C37   H20   S    
C57   O10   A    
C115  C124  A    
Cr8   O44   S    
C104  C106  A    
C40   C49   S    
C14   C46   S    
Cr4   O35   S    
C73   C93   A    
Cr10  O47   S    
C62   C135  S    
C68   O3    A    
Cr8   O19   S    
Cr11  O16   S    
C126  O19   A    
C46   C60   S    
C32   C41   S    
Cr1   O12   S    
C10   H23   S    
C135  O12   A    
C128  O30   A    
Cr6   O6    S    
C133  O36   A    
C13   C56   S    
C66   C99   A    
C111  H69   S    
C115  H68   S    
C21   C30   S    
C70   C103  A    
C67   C105  A    
C127  O20   A    
C81   C83   A    
C34   C54   S    
C24   C47   S    
C36   C44   S    
C37   C45   S    
C120  H5    S    
C85   C87   A    
C54   C140  S    
C71   C95   A    
C54   C134  S    
C109  H62   S    
C51   C53   S    
C121  H6    S    
C83   H47   S    
C72   H53   S    
C28   C144  S    
C57   C66   S    
C137  O34   A    
C112  O7    A    
C116  H72   S    
Cr4   O42   S    
Cr10  O15   S    
C18   C126  S    
Cr5   O4    S    
C8    H1    S    
C95   C97   A    
C11   C20   S    
C36   H19   S    
C106  C115  A    
C7    C16   S    
C108  C117  A    
C131  O25   A    
C76   C96   A    
C57   O2    A    
C84   H48   S    
C110  C119  A    
C78   C94   A    
C64   C79   S    
C43   H27   S    
C116  C118  A    
C125  O27   A    
C7    C62   S    
C14   C22   S    
C100  C109  A    
C67   C112  S    
C31   H15   S    
C29   H13   S    
C37   C56   S    
C132  O35   A    
C19   C127  S    
C104  C113  A    
Cr3   O41   S    
C76   H58   S    
Cr9   O13   S    
C52   H42   S    
Cr5   O23   S    
C98   C100  A    
C20   C29   S    
Cr2   O38   S    
C22   C31   S    
C141  O43   A    
C99   C108  A    
C139  O49   A    
C47   H30   S    
Cr11  O48   S    
C35   C59   S    
C35   H40   S    
C41   C61   S    
Cr9   O20   S    
Cr5   O46   S    
C5    C60   S    
C53   C62   S    
Cr6   O49   S    
C80   C88   A    
C50   H33   S    
C70   C94   A    
C45   H29   S    
Cr8   O9    S    
Cr2   O29   S    
C2    C44   S    
C89   C92   A    
C26   C142  S    
C34   H18   S    
C3    C11   S    
Br3   C144  S    
Cr1   O2    S    
C38   C58   S    
C123  O8    A    
C63   C68   S    
C61   C133  S    
C22   C49   S    
C23   C32   S    
C79   O13   A    
Cr8   O18   S    
C72   C81   A    
Cr11  O17   S    
C136  O23   A    
C119  H4    S    
C1    O9    A    
Cr3   O32   S    
C3    C58   S    
C121  C124  A    
C75   C91   A    
C33   H17   S    
C27   C143  S    
C59   C136  S    
Cr7   O7    S    
C36   C55   S    
Cr7   O50   S    
C49   H32   S    
C85   H49   S    
C7    C33   S    
Cr4   O48   S    
C12   H45   S    
C40   C60   S    
Br4   C3    S    
C77   H59   S    
C55   C143  S    
C58   C139  S    
Br5   C4    S    
Cr6   O47   S    
Br8   C7    S    
Cr1   O44   S    
C67   C96   A    
C74   C89   A    
C68   O11   A    
C69   C106  A    
C33   C42   S    
C24   C58   S    
Br2   C143  S    
C14   H56   S    
C126  O28   A    
C107  C116  A    
C20   C128  S    
C134  H36   S    
C13   H38   S    
C113  C121  A    
C120  C122  A    
C125  O18   A    
C66   C91   A    
C21   C48   S    
C19   C28   S    
C21   C129  S    
C63   C92   A    
C16   C25   S    
C25   C33   S    
C69   C97   A    
C107  H64   S    
C26   H9    S    
C130  O32   A    
Cr11  O26   S    
C5    C14   S    
C140  O42   A    
C38   H21   S    
C42   H26   S    
C2    H37   S    
C135  O37   A    
C25   C132  S    
C29   C38   S    
C60   C137  S    
C31   C40   S    
C30   H14   S    
C108  H65   S    
C87   H51   S    
C129  O22   A    
C65   C89   A    
C75   C84   A    
C9    C18   S    
C52   C61   S    
C23   C50   S    
C103  C111  A    
C69   C123  S    
C81   H44   S    
C41   H25   S    
Cr5   O34   S    
C2    C9    S    
Cr12  O27   S    
C44   H28   S    
C55   C141  S    
C90   O5    A    
Cr5   O3    S    
Cr6   O45   S    
C51   H35   S    
C70   C90   S    
C9    H12   S    
C34   C43   S    
Cr12  O36   S    
C72   C92   A    
Cr11  O25   S    
C78   H60   S    
C77   C97   A    
C39   C59   S    
C20   C47   S    
C12   C21   S    
Br7   C6    S    
C15   C52   S    
C114  H66   S    
C4    C59   S    
C64   C102  A    
C74   H55   S    
C82   H46   S    
Cr7   O51   S    
C41   C50   S    
Cr6   O5    S    
C6    C15   S    
C8    C134  S    
C17   C43   S    
C18   C44   S    
C77   C86   A    
C80   H61   S    
Cr1   O52   S    
C28   C37   S    
C94   C96   A    
C27   C36   S    
C30   C39   S    
C53   H43   S    
C23   C131  S    
C128  O21   A    
C80   C95   A    
C43   C134  S    
Cr9   O21   S    
C133  O1    A    
C79   O4    A    
C1    O52   A    
C27   H10   S    
Cr12  O44   S    
C10   C19   S    
Cr8   O10   S    
Cr2   O30   S    
C8    C142  S    
Cr1   O1    S    
C117  H2    S    
Cr10  O14   S    
C16   H71   S    
Br6   C5    S    
C13   C45   S    
C129  O31   A    
C65   C98   A    
C73   H54   S    
C6    C61   S    
C114  C122  A    
C4    C30   S    
Cr2   O39   S    
C5    C31   S    
C6    C32   S    
C35   C48   S    
C127  O29   A    
C39   C48   S    
C132  O26   A    
C46   C49   S    
Cr3   O31   S    
