data_str_m3_o14_o18_f0_pcu.sym.36
_audit_creation_date              2012-12-10T17:44:35-0500
_audit_creation_method            fapswitch 2.2
_symmetry_space_group_name_H-M    P1
_symmetry_Int_Tables_number       1
_space_group_crystal_system       triclinic
_cell_length_a                    9.966502
_cell_length_b                    10.714713
_cell_length_c                    15.468138
_cell_angle_alpha                 94.244166
_cell_angle_beta                  67.091162
_cell_angle_gamma                 91.310564
_cell_volume                      1517.32433496

loop_
_atom_site_label
_atom_site_type_symbol
_atom_type_description
_atom_site_fract_x
_atom_site_fract_y
_atom_site_fract_z
_atom_type_partial_charge
C1    C     C_R   0.505835 0.738619 0.491588 0.829723
C2    C     C_R   0.721416 0.568622 0.034491 -0.005344
C3    C     C_R   0.582026 0.523361 0.088667 0.094989
C4    C     C_R   0.407989 0.496088 0.675886 0.876439
C5    C     C_R   0.816700 0.610780 0.079103 -0.041145
C6    C     C_R   0.774609 0.594269 0.176956 0.104010
C7    C     C_R   0.557718 0.485813 0.177232 -0.300328
C8    C     C_R   0.304306 0.874518 0.429692 -0.193466
C9    C     C_R   0.173115 0.929974 0.439928 0.148717
C10   C     C_R   0.128734 0.043059 0.495307 0.089876
C11   C     C_R   0.225685 0.105444 0.529459 -0.271966
C12   C     C_R   0.414037 0.481677 0.912375 0.040881
C13   C     C_R   0.367060 0.057138 0.506869 0.080826
C14   C     C_R   0.394913 0.932847 0.471828 0.049955
C15   C     C_R   0.511070 0.871237 0.482412 -0.111886
C16   C     C_R   0.493489 0.260710 0.507510 0.879885
C17   C     C_R   0.617394 0.938994 0.503032 -0.202754
C18   C     C_R   0.606441 0.066736 0.516318 -0.200992
C19   C     C_R   0.483599 0.127236 0.516250 -0.113199
C20   C     C_R   0.794851 0.685149 0.606442 -0.142747
C21   C     C_R   0.835028 0.792337 0.645532 0.074496
C22   C     C_R   0.975214 0.800548 0.642771 -0.256707
C23   C     C_R   0.274767 0.435638 0.966305 0.128683
C24   C     C_R   0.068833 0.696693 0.610808 0.010702
C25   C     C_R   0.039837 0.593363 0.554986 0.149267
C26   C     C_R   0.896418 0.591977 0.553156 0.152386
C27   C     C_R   0.959196 0.416005 0.445335 -0.131899
C28   C     C_R   0.591915 0.503972 0.324044 0.878761
C29   C     C_R   0.103502 0.417052 0.443362 0.135378
C30   C     C_R   0.349975 0.480351 0.777097 -0.017299
C31   C     C_R   0.648701 0.523008 0.223122 -0.105212
C32   C     C_R   0.180025 0.394409 0.921036 -0.031212
C33   C     C_R   0.222638 0.412286 0.823952 0.038362
C34   C     C_R   0.521023 0.499418 0.951088 -0.037825
C35   C     C_R   0.438715 0.519840 0.823744 -0.306043
C36   C     C_2   0.953300 0.676474 0.023775 0.344677
C37   C     C_2   0.150184 0.689736 0.670966 0.558694
C38   C     C_2   0.041636 0.327967 0.971446 0.357684
C39   C     C_2   0.737428 0.455181 0.795874 0.341328
C40   C     C_R   0.475076 0.504994 0.049932 0.039060
C41   C     C_R   0.323292 0.493787 0.106036 0.044322
C42   C     C_R   0.229564 0.446357 0.064366 -0.061162
C43   C     C_R   0.672325 0.510400 0.894539 0.004713
C44   C     C_R   0.766262 0.558483 0.936351 -0.242353
H1    H     H_    0.116326 0.434042 0.109411 0.205320
H2    H     H_    0.878940 0.573838 0.892167 0.212569
H3    H     H_    0.531122 0.578639 0.788876 0.163409
H4    H     H_    0.955810 0.734382 0.968511 0.102030
H5    H     H_    0.984323 0.847777 0.447717 0.191160
H6    H     H_    0.066855 0.930596 0.352282 0.205917
H7    H     H_    0.909762 0.038267 0.554852 0.190762
H8    H     H_    0.976111 0.183431 0.550401 0.189833
H9    H     H_    0.649545 0.851185 0.752285 0.197717
H10   H     H_    0.775510 0.963553 0.718443 0.183562
H11   H     H_    0.244150 0.748621 0.661145 0.025247
H12   H     H_    0.708737 0.893612 0.509398 0.178637
H13   H     H_    0.234054 0.266006 0.412443 0.229648
H14   H     H_    0.170943 0.288184 0.330077 0.155030
H15   H     H_    0.775141 0.705743 0.288171 0.164436
H16   H     H_    0.923799 0.720623 0.194950 0.233263
H17   H     H_    0.949914 0.335217 0.950948 0.072278
H18   H     H_    0.139224 0.259621 0.777688 0.157079
H19   H     H_    0.036895 0.391486 0.800489 0.237279
H20   H     H_    0.231692 0.478876 0.247129 0.197628
H21   H     H_    0.323105 0.616354 0.215734 0.209900
H22   H     H_    0.678328 0.385765 0.770162 0.085063
H23   H     H_    0.335248 0.786508 0.387736 0.175813
H24   H     H_    0.189461 0.191304 0.573289 0.185172
H25   H     H_    0.694548 0.118041 0.526591 0.179310
H26   H     H_    0.929756 0.347899 0.400597 0.156053
H27   H     H_    0.682259 0.678084 0.620014 0.208139
H28   H     H_    0.464889 0.427773 0.212094 0.181260
H29   H     H_    0.002531 0.880666 0.679972 0.137111
N1    N     N_R   0.856800 0.501200 0.500850 -0.123356
N2    N     N_R   0.142390 0.501280 0.500880 -0.122002
N3    N     N_3   0.084959 0.868392 0.395660 -0.457315
N4    N     N_3   0.989324 0.096787 0.512138 -0.487584
N5    N     N_3   0.728533 0.888616 0.693303 -0.476807
N6    N     N_3   0.211924 0.334950 0.376275 -0.431316
N7    N     N_3   0.851229 0.653091 0.231305 -0.400119
N8    N     N_3   0.142994 0.356255 0.771441 -0.413837
N9    N     N_3   0.256335 0.549191 0.200505 -0.433012
O1    O     O_R   0.385310 0.683220 0.500000 -0.660633
O2    O     O_2   0.098641 0.633486 0.742315 -0.578735
O3    O     O_2   0.030236 0.260415 0.034100 -0.575608
O4    O     O_2   0.858538 0.484740 0.742522 -0.569253
O5    O     O_R   0.614640 0.683250 0.500010 -0.641813
O6    O     O_R   0.319840 0.499980 0.632240 -0.565030
O7    O     O_R   0.549160 0.500000 0.632250 -0.651544
O8    O     O_R   0.385360 0.316750 0.499990 -0.626411
O9    O     O_R   0.614690 0.316780 0.500000 -0.614092
O10   O     O_R   0.450840 0.500000 0.367750 -0.604931
O11   O     O_R   0.680160 0.500020 0.367760 -0.583913
O12   O     O_2   0.065131 0.663950 0.036818 -0.571545
Zn1   Zn    Zn3+2 0.346880 0.499980 0.499990 0.958055
Zn2   Zn    Zn3+2 0.653120 0.500020 0.500010 0.939899

loop_
_geom_bond_atom_site_label_1
_geom_bond_atom_site_label_2
_ccdc_geom_bond_type
C1    O5    A    
C16   O8    A    
C27   C29   A    
C41   C42   A    
H13   N6    S    
C35   H3    S    
N2    Zn1   S    
O8    Zn1   S    
C12   C23   A    
C23   C42   A    
C30   C35   A    
H19   N8    S    
C34   C40   A    
C3    C7    A    
C5    C6    A    
C5    C36   S    
C18   C19   A    
O9    Zn2   S    
C2    C44   A    
C8    C9    A    
C21   N5    S    
C37   O2    D    
C1    C15   S    
C9    N3    S    
C32   C38   S    
C27   N1    A    
C9    C10   A    
C38   H17   S    
C18   H25   S    
C6    C31   A    
O6    Zn1   S    
C13   C14   A    
C10   N4    S    
C44   H2    S    
C24   C37   S    
C7    C31   A    
C13   C19   A    
C38   O3    D    
N1    Zn2   S    
C24   C25   A    
C7    H28   S    
C39   C43   S    
C25   C26   A    
O10   Zn1   S    
C28   O11   A    
C25   N2    A    
C20   H27   S    
C43   C44   A    
H7    N4    S    
H6    N3    S    
C6    N7    S    
C29   N6    S    
O1    Zn1   S    
O5    Zn2   S    
C17   C18   A    
H5    N3    S    
C28   O10   A    
C12   C35   A    
C17   H12   S    
H20   N9    S    
C27   H26   S    
H14   N6    S    
C16   O9    A    
C4    O6    A    
C40   C41   A    
H18   N8    S    
C3    C40   A    
O11   Zn2   S    
C39   H22   S    
C22   C24   A    
C2    C5    A    
C12   C34   A    
H8    N4    S    
C11   H24   S    
C4    O7    A    
C15   C17   A    
H16   N7    S    
C8    C14   A    
C30   C33   A    
C28   C31   S    
C34   C43   A    
H15   N7    S    
C29   N2    A    
C1    O1    A    
C39   O4    D    
C23   C32   A    
O7    Zn2   S    
C2    C3    A    
C32   C33   A    
C11   C13   A    
H21   N9    S    
C20   C26   A    
C16   C19   S    
C41   N9    S    
C26   N1    A    
C36   H4    S    
C10   C11   A    
H9    N5    S    
C37   H11   S    
C36   O12   D    
C20   C21   A    
C8    H23   S    
C14   C15   A    
C22   H29   S    
C21   C22   A    
C33   N8    S    
C42   H1    S    
C4    C30   S    
H10   N5    S    
