data_str_m3_o10_o14_f0_pcu.sym.22
_audit_creation_date              2012-12-10T16:50:08-0500
_audit_creation_method            fapswitch 2.2
_symmetry_space_group_name_H-M    P1
_symmetry_Int_Tables_number       1
_space_group_crystal_system       triclinic
_cell_length_a                    7.896966
_cell_length_b                    8.680282
_cell_length_c                    10.5926
_cell_angle_alpha                 92.31379
_cell_angle_beta                  85.102277
_cell_angle_gamma                 92.713481
_cell_volume                      722.156378419

loop_
_atom_site_label
_atom_site_type_symbol
_atom_type_description
_atom_site_fract_x
_atom_site_fract_y
_atom_site_fract_z
_atom_type_partial_charge
C1    C     C_R   0.543326 0.794101 0.496170 0.903778
C2    C     C_R   0.455793 0.207455 0.506573 0.901591
C3    C     C_R   0.499112 0.498456 0.261021 0.851090
C4    C     C_R   0.458606 0.793557 0.884609 -0.186892
C5    C     C_R   0.435995 0.928627 0.959184 -0.136608
C6    C     C_R   0.425275 0.924145 0.090614 -0.146732
C7    C     C_R   0.442674 0.785393 0.148306 -0.185562
C8    C     C_R   0.470882 0.648275 0.074492 0.102781
C9    C     C_R   0.255921 0.997045 0.564183 0.211980
C10   C     C_R   0.191418 0.018785 0.690603 -0.130631
C11   C     C_R   0.020810 0.981284 0.725704 -0.147199
C12   C     C_R   0.476387 0.651754 0.942099 0.092940
C13   C     C_R   0.914734 0.926840 0.633445 -0.112476
C14   C     C_R   0.979963 0.912235 0.506015 -0.155373
C15   C     C_R   0.148449 0.949019 0.471633 -0.099898
C16   C     C_R   0.506304 0.513207 0.871564 -0.081762
C17   C     C_R   0.542972 0.377990 0.927504 -0.206813
C18   C     C_R   0.540177 0.375304 0.056702 -0.222317
C19   C     C_R   0.499791 0.507756 0.128907 -0.080136
C20   C     C_2   0.560686 0.957372 0.488520 -0.473475
C21   C     C_2   0.430587 0.048083 0.522111 -0.206233
C22   C     C_R   0.501838 0.505224 0.738993 0.849301
H1    H     H_    0.572293 0.274571 0.870634 0.138153
H2    H     H_    0.271621 0.068974 0.759914 0.107099
H3    H     H_    0.970458 0.996454 0.823479 0.143105
H4    H     H_    0.783032 0.897646 0.661854 0.143922
H5    H     H_    0.905287 0.873006 0.430239 0.165074
H6    H     H_    0.196008 0.939547 0.372687 0.115887
H7    H     H_    0.986651 0.612882 0.600315 0.205155
H8    H     H_    0.466509 0.801640 0.782578 0.127990
H9    H     H_    0.428665 0.037782 0.915786 0.121876
H10   H     H_    0.405718 0.028684 0.148144 0.125503
H11   H     H_    0.437324 0.787416 0.250454 0.142362
H12   H     H_    0.568113 0.269909 0.100752 0.140202
H13   H     H_    0.681457 0.006469 0.450293 0.180621
H14   H     H_    0.013068 0.384089 0.401799 0.192923
N1    N     N_2   0.950330 0.457950 0.466250 -0.173007
N2    N     N_2   0.049670 0.542050 0.533750 -0.169619
O1    O     O_R   0.389250 0.738570 0.508280 -0.602499
O2    O     O_R   0.678390 0.711630 0.486650 -0.641196
O3    O     O_R   0.355400 0.513470 0.694050 -0.609229
O4    O     O_R   0.644540 0.486530 0.672420 -0.618069
O5    O     O_R   0.321610 0.288370 0.513350 -0.621648
O6    O     O_R   0.610750 0.261430 0.491720 -0.615383
O7    O     O_R   0.355460 0.513470 0.327580 -0.627734
O8    O     O_R   0.644600 0.486530 0.305950 -0.609052
Zn1   Zn    Zn3+2 0.306930 0.517990 0.514440 0.953477
Zn2   Zn    Zn3+2 0.693070 0.482010 0.485560 0.942734

loop_
_geom_bond_atom_site_label_1
_geom_bond_atom_site_label_2
_ccdc_geom_bond_type
H7    N2    S    
C6    H10   S    
C3    C19   S    
C6    C7    A    
C14   H5    S    
C4    C12   A    
C11   C13   A    
C9    C10   A    
C3    O8    A    
C17   H1    S    
C2    O5    A    
C8    C12   A    
C2    C21   S    
O7    Zn1   S    
C17   C18   A    
C9    C15   A    
C7    C8    A    
O4    Zn2   S    
C13   C14   A    
N1    Zn2   S    
C7    H11   S    
C9    C21   S    
N2    Zn1   S    
C22   O4    A    
H14   N1    S    
N1    N2    D    
C18   H12   S    
O3    Zn1   S    
C5    C6    A    
O8    Zn2   S    
C13   H4    S    
C8    C19   A    
C10   C11   A    
C1    O1    A    
C15   H6    S    
C22   O3    A    
C12   C16   A    
C20   C21   D    
O1    Zn1   S    
C18   C19   A    
O2    Zn2   S    
C11   H3    S    
C14   C15   A    
C16   C17   A    
C1    C20   S    
C16   C22   S    
C1    O2    A    
C10   H2    S    
C20   H13   S    
O5    Zn1   S    
C3    O7    A    
C4    H8    S    
O6    Zn2   S    
C2    O6    A    
C4    C5    A    
C5    H9    S    
