data_str_m3_o41_o41_f0_fof.sym.4
_audit_creation_date              2012-12-10T16:39:35-0500
_audit_creation_method            fapswitch 2.2
_symmetry_space_group_name_H-M    P1
_symmetry_Int_Tables_number       1
_space_group_crystal_system       triclinic
_cell_length_a                    16.832306
_cell_length_b                    16.841724
_cell_length_c                    16.825268
_cell_angle_alpha                 65.876159
_cell_angle_beta                  65.936338
_cell_angle_gamma                 65.72079
_cell_volume                      3799.85330575

loop_
_atom_site_label
_atom_site_type_symbol
_atom_type_description
_atom_site_fract_x
_atom_site_fract_y
_atom_site_fract_z
_atom_type_partial_charge
C1    C     C_R   0.328934 0.942436 0.460480 0.051650
C2    C     C_R   0.325822 0.458998 0.949556 0.045465
C3    C     C_R   0.549593 0.416934 0.977876 0.024694
C4    C     C_R   0.022039 0.450634 0.583038 0.021788
C5    C     C_R   0.977962 0.549366 0.416962 0.021788
C6    C     C_2   0.292242 0.980924 0.828481 0.922125
C7    C     C_2   0.707756 0.019079 0.171518 0.922117
C8    C     C_2   0.985672 0.826827 0.291236 0.930883
C9    C     C_2   0.014327 0.173173 0.708765 0.930878
C10   C     C_2   0.832054 0.304140 0.965746 1.007988
C11   C     C_2   0.167946 0.695857 0.034256 1.007993
C12   C     C_2   0.236272 0.891262 0.755108 0.977109
C13   C     C_R   0.051283 0.673689 0.540715 0.044940
C14   C     C_2   0.763726 0.108740 0.244893 0.977113
C15   C     C_2   0.752357 0.217432 0.914492 0.926609
C16   C     C_2   0.247642 0.782568 0.085507 0.926613
C17   C     C_2   0.900510 0.752509 0.227290 0.928210
C18   C     C_2   0.099491 0.247491 0.772710 0.928212
C19   C     C_R   0.948717 0.326311 0.459285 0.044939
C20   C     C_R   0.459175 0.975021 0.458710 -0.016717
C21   C     C_R   0.540825 0.024979 0.541290 -0.016716
C22   C     C_R   0.974296 0.459105 0.459406 -0.014247
C23   C     C_R   0.025705 0.540895 0.540594 -0.014247
C24   C     C_R   0.459156 0.459372 0.974266 -0.014359
C25   C     C_R   0.540844 0.540628 0.025734 -0.014359
C26   C     C_R   0.964385 0.179385 0.437058 0.897641
C27   C     C_R   0.671066 0.057564 0.539520 0.051654
C28   C     C_R   0.035615 0.820615 0.562942 0.897641
C29   C     C_R   0.179269 0.437011 0.964510 0.901161
C30   C     C_R   0.820731 0.562989 0.035490 0.901160
C31   C     C_R   0.437128 0.964497 0.179246 0.904971
C32   C     C_R   0.562871 0.035503 0.820754 0.904970
C33   C     C_R   0.562376 0.820450 0.036998 0.898827
C34   C     C_R   0.437624 0.179550 0.963002 0.898828
C35   C     C_R   0.037026 0.562267 0.820463 0.896816
C36   C     C_R   0.962974 0.437733 0.179537 0.896816
C37   C     C_R   0.820321 0.037140 0.562322 0.893175
C38   C     C_R   0.942467 0.460870 0.328538 0.045770
C39   C     C_R   0.179679 0.962859 0.437678 0.893174
C40   C     C_R   0.415923 0.955133 0.415208 0.068239
C41   C     C_R   0.584077 0.044868 0.584792 0.068238
C42   C     C_R   0.954417 0.415726 0.415983 0.067930
C43   C     C_R   0.045583 0.584273 0.584016 0.067930
C44   C     C_R   0.415581 0.415790 0.954856 0.074447
C45   C     C_R   0.584419 0.584210 0.045144 0.074447
C46   C     C_R   0.279121 0.941552 0.408969 -0.121918
C47   C     C_R   0.720879 0.058447 0.591031 -0.121918
C48   C     C_R   0.941608 0.409264 0.278833 -0.116181
C49   C     C_R   0.057533 0.539130 0.671462 0.045770
C50   C     C_R   0.058392 0.590736 0.721167 -0.116181
C51   C     C_R   0.409158 0.278820 0.941809 -0.117353
C52   C     C_R   0.590842 0.721180 0.058191 -0.117352
C53   C     C_R   0.591356 0.055690 0.722165 -0.118075
C54   C     C_R   0.408644 0.944311 0.277835 -0.118075
C55   C     C_R   0.722022 0.591496 0.055755 -0.112094
C56   C     C_R   0.277978 0.408504 0.944244 -0.112095
C57   C     C_R   0.055970 0.721807 0.591468 -0.115974
C58   C     C_R   0.944030 0.278192 0.408532 -0.115973
C59   C     C_R   0.449526 0.047751 0.712979 -0.154124
C60   C     C_R   0.460723 0.328195 0.943285 0.048533
C61   C     C_R   0.550474 0.952250 0.287020 -0.154123
C62   C     C_R   0.049405 0.712111 0.449142 -0.155259
C63   C     C_R   0.950595 0.287889 0.550858 -0.155258
C64   C     C_R   0.713451 0.449893 0.047128 -0.204538
C65   C     C_R   0.286549 0.550106 0.952872 -0.204544
C66   C     C_R   0.295713 0.930781 0.555144 -0.186399
C67   C     C_R   0.704287 0.069218 0.444856 -0.186400
C68   C     C_R   0.555193 0.293693 0.933826 -0.175801
C69   C     C_R   0.444807 0.706307 0.066174 -0.175802
C70   C     C_R   0.932176 0.555370 0.294519 -0.167000
C71   C     C_R   0.539277 0.671805 0.056714 0.048533
C72   C     C_R   0.067824 0.444630 0.705481 -0.167001
C73   C     C_R   0.321899 0.936456 0.321294 -0.287223
C74   C     C_R   0.678101 0.063544 0.678706 -0.287224
C75   C     C_R   0.936330 0.321699 0.321668 -0.293529
C76   C     C_R   0.063670 0.678301 0.678332 -0.293529
C77   C     C_R   0.321715 0.321949 0.935885 -0.293165
C78   C     C_R   0.678285 0.678051 0.064115 -0.293165
C79   C     C_R   0.663240 0.048430 0.400345 0.010748
C80   C     C_R   0.336759 0.951570 0.599655 0.010750
C81   C     C_R   0.047729 0.400197 0.663871 0.029386
C82   C     C_R   0.540786 0.050499 0.674237 0.044115
C83   C     C_R   0.952272 0.599803 0.336129 0.029386
C84   C     C_R   0.399949 0.664433 0.046991 0.018125
C85   C     C_R   0.600051 0.335567 0.953009 0.018126
C86   C     C_R   0.586885 0.988406 0.321407 0.015432
C87   C     C_R   0.413114 0.011595 0.678593 0.015430
C88   C     C_R   0.321657 0.587411 0.987246 0.003446
C89   C     C_R   0.678343 0.412588 0.012754 0.003451
C90   C     C_R   0.985870 0.322417 0.588254 0.009651
C91   C     C_R   0.014130 0.677582 0.411746 0.009652
C92   C     C_R   0.699583 0.054323 0.306514 -0.094853
C93   C     C_R   0.459214 0.949502 0.325763 0.044115
C94   C     C_R   0.300416 0.945678 0.693486 -0.094861
C95   C     C_R   0.050373 0.307171 0.702824 -0.057193
C96   C     C_R   0.949628 0.692829 0.297176 -0.057191
C97   C     C_R   0.306458 0.702902 0.050015 -0.089045
C98   C     C_R   0.693542 0.297098 0.949985 -0.089047
C99   C     C_R   0.665110 0.018691 0.268476 -0.103053
C100  C     C_R   0.334889 0.981311 0.731524 -0.103052
C101  C     C_R   0.267959 0.664994 0.018499 -0.061852
C102  C     C_R   0.732041 0.335006 0.981501 -0.061855
C103  C     C_R   0.014055 0.269833 0.668143 -0.095582
C104  C     C_R   0.674178 0.541002 0.050444 0.045463
C105  C     C_R   0.985945 0.730167 0.331857 -0.095584
C106  C     C_R   0.542600 0.996095 0.410011 0.024129
C107  C     C_R   0.457399 0.003906 0.589989 0.024130
C108  C     C_R   0.994997 0.410396 0.543203 0.023825
C109  C     C_R   0.005004 0.589603 0.456797 0.023826
C110  C     C_R   0.410328 0.543198 0.994922 0.029926
C111  C     C_R   0.589672 0.456802 0.005078 0.029926
C112  C     C_R   0.582913 0.022059 0.450790 0.029934
C113  C     C_R   0.417087 0.977942 0.549210 0.029933
C114  C     C_R   0.450407 0.583066 0.022123 0.024694
H1    H     H_    0.283907 0.934868 0.283382 0.202673
H2    H     H_    0.040181 0.056105 0.684962 0.369387
H3    H     H_    0.937758 0.242402 0.018937 0.348836
H4    H     H_    0.062241 0.757596 0.981066 0.348838
H5    H     H_    0.112971 0.874335 0.792230 0.359357
H6    H     H_    0.887031 0.125660 0.207764 0.359358
H7    H     H_    0.842786 0.092312 0.934743 0.379489
H8    H     H_    0.157213 0.907688 0.065255 0.379490
H9    H     H_    0.783450 0.799296 0.194144 0.338101
H10   H     H_    0.216552 0.200705 0.805855 0.338100
H11   H     H_    0.404735 0.074989 0.769036 0.181271
H12   H     H_    0.716093 0.065132 0.716618 0.202673
H13   H     H_    0.595265 0.925012 0.230964 0.181271
H14   H     H_    0.076519 0.768245 0.405022 0.187863
H15   H     H_    0.923482 0.231755 0.594978 0.187865
H16   H     H_    0.770334 0.405417 0.073090 0.208557
H17   H     H_    0.229666 0.594583 0.926910 0.208554
H18   H     H_    0.238701 0.904094 0.594600 0.195881
H19   H     H_    0.761300 0.095905 0.405400 0.195870
H20   H     H_    0.594758 0.234809 0.910029 0.195481
H21   H     H_    0.405242 0.765191 0.089971 0.195483
H22   H     H_    0.907992 0.595339 0.235675 0.186882
H23   H     H_    0.934818 0.283807 0.283652 0.196467
H24   H     H_    0.092008 0.404661 0.764325 0.186883
H25   H     H_    0.065181 0.716193 0.716348 0.196467
H26   H     H_    0.284014 0.284241 0.933664 0.194450
H27   H     H_    0.715986 0.715758 0.066336 0.194450
H28   H     H_    0.310412 0.952204 0.949810 0.336142
H29   H     H_    0.689583 0.047801 0.050190 0.336144
H30   H     H_    0.959817 0.943894 0.315041 0.369387
O1    O     O_R   0.982940 0.138950 0.510160 -0.610437
O2    O     O_R   0.982940 0.510160 0.138950 -0.628865
O3    O     O_R   0.861050 0.017060 0.489840 -0.602880
O4    O     O_R   0.138950 0.982940 0.510160 -0.602875
O5    O     O_R   0.867700 0.025880 0.612340 -0.624295
O6    O     O_R   0.132300 0.974120 0.387660 -0.624296
O7    O     O_R   0.025880 0.612340 0.867700 -0.619618
O8    O     O_R   0.974120 0.387660 0.132300 -0.619617
O9    O     O_R   0.612340 0.867700 0.025880 -0.627575
O10   O     O_R   0.387660 0.132300 0.974120 -0.627576
O11   O     O_R   0.387660 0.974120 0.132300 -0.624497
O12   O     O_R   0.017060 0.861050 0.489840 -0.610439
O13   O     O_R   0.612340 0.025880 0.867700 -0.624498
O14   O     O_R   0.132300 0.387660 0.974120 -0.623320
O15   O     O_R   0.867700 0.612340 0.025880 -0.623320
O16   O     O_R   0.974120 0.132300 0.387660 -0.625233
O17   O     O_R   0.025880 0.867700 0.612340 -0.625231
O18   O     O_2   0.209658 0.010829 0.857298 -0.548571
O19   O     O_R   0.346543 0.945246 0.886743 -0.773930
O20   O     O_2   0.790340 0.989175 0.142700 -0.548568
O21   O     O_R   0.653453 0.054758 0.113257 -0.773930
O22   O     O_2   0.025294 0.854649 0.211032 -0.532584
O23   O     O_R   0.138950 0.510160 0.982940 -0.636952
O24   O     O_R   0.943653 0.884679 0.346450 -0.768772
O25   O     O_2   0.974705 0.145352 0.788970 -0.532583
O26   O     O_R   0.056345 0.115320 0.653552 -0.768773
O27   O     O_2   0.881900 0.319243 0.887862 -0.610911
O28   O     O_R   0.868884 0.258962 0.039002 -0.763049
O29   O     O_2   0.118101 0.680753 0.112140 -0.610915
O30   O     O_R   0.131114 0.741037 0.961001 -0.763046
O31   O     O_2   0.260000 0.823246 0.814925 -0.580706
O32   O     O_R   0.149576 0.917458 0.746004 -0.808194
O33   O     O_2   0.739992 0.176764 0.185087 -0.580719
O34   O     O_R   0.861050 0.489840 0.017060 -0.636953
O35   O     O_R   0.850427 0.082535 0.253988 -0.808179
O36   O     O_2   0.755164 0.218255 0.840375 -0.640611
O37   O     O_R   0.807181 0.143047 0.964663 -0.716075
O38   O     O_2   0.244836 0.781747 0.159622 -0.640614
O39   O     O_R   0.192817 0.856952 0.035336 -0.716068
O40   O     O_2   0.938591 0.796705 0.153588 -0.519782
O41   O     O_R   0.809965 0.757054 0.246484 -0.828329
O42   O     O_2   0.061411 0.203294 0.846411 -0.519779
O43   O     O_R   0.190036 0.242947 0.753516 -0.828330
O44   O     O_R   0.510160 0.982940 0.138950 -0.606183
O45   O     O_R   0.489840 0.017060 0.861050 -0.606182
O46   O     O_R   0.489840 0.861050 0.017060 -0.617773
O47   O     O_R   0.510160 0.138950 0.982940 -0.617773
O48   O     O_R   0.017060 0.489840 0.861050 -0.628865
Zn1   Zn    Zn3+2 0.004880 0.004880 0.583590 1.015092
Zn2   Zn    Zn3+2 0.995120 0.995120 0.416410 1.015086
Zn3   Zn    Zn3+2 0.004880 0.583590 0.004880 0.997613
Zn4   Zn    Zn3+2 0.995120 0.416410 0.995120 0.997613
Zn5   Zn    Zn3+2 0.583590 0.004880 0.004880 0.993448
Zn6   Zn    Zn3+2 0.416410 0.995120 0.995120 0.993450

loop_
_geom_bond_atom_site_label_1
_geom_bond_atom_site_label_2
_ccdc_geom_bond_type
O45   Zn6   S    
C96   C105  A    
C38   C70   A    
C35   O48   A    
C18   C95   S    
C89   C102  A    
C3    C85   A    
C91   C105  A    
C9    O25   D    
C53   C74   A    
H3    O28   S    
C77   H26   S    
C40   C93   A    
C2    C65   A    
C8    C105  S    
C88   C101  A    
C3    C24   A    
C16   O39   S    
C22   C108  A    
C106  C112  A    
C28   C57   S    
C33   C52   S    
O15   Zn3   S    
C4    C108  A    
C39   O6    A    
O47   Zn5   S    
C34   C51   S    
C7    C99   S    
C79   C112  A    
H30   O24   S    
C84   C97   A    
O48   Zn4   S    
C57   C76   A    
H7    O37   S    
C34   O47   A    
C67   H19   S    
H6    O35   S    
C38   C42   A    
C20   C113  A    
O10   Zn6   S    
C16   O38   D    
C1    C46   A    
O9    Zn5   S    
C41   C82   A    
C10   O28   S    
C18   O43   S    
C23   C43   A    
O3    Zn2   S    
C64   C104  A    
C87   C100  A    
O7    Zn3   S    
C69   C71   A    
O6    Zn2   S    
C54   C93   A    
C85   C98   A    
C8    O24   S    
C1    C40   A    
O5    Zn1   S    
H29   O21   S    
C5    C22   A    
C6    O18   D    
C31   O44   A    
C19   C63   A    
C49   C72   A    
C39   O4    A    
C28   O17   A    
C59   C82   A    
C26   O16   A    
C37   C47   S    
C110  C114  A    
C38   C48   A    
C72   C81   A    
C19   C42   A    
C12   O32   S    
C88   C110  A    
C72   H24   S    
C7    O21   S    
C69   H21   S    
C15   O36   D    
C70   H22   S    
C68   C85   A    
C6    O19   S    
C48   C75   A    
C12   C94   S    
C9    O26   S    
C86   C106  A    
C35   O7    A    
C64   C89   A    
C52   C78   A    
C65   H17   S    
C95   C103  A    
C58   C75   A    
C20   C106  A    
C34   O10   A    
C19   C58   A    
C30   O15   A    
C23   C109  A    
C11   O29   D    
C4    C81   A    
H2    O26   S    
C107  C113  A    
C10   C102  S    
C24   C110  A    
C11   C101  S    
C75   H23   S    
C78   H27   S    
C2    C44   A    
H28   O19   S    
C55   C78   A    
O8    Zn4   S    
C43   C49   A    
C10   O27   D    
C98   C102  A    
O34   Zn4   S    
C55   C104  A    
C18   O42   D    
O14   Zn4   S    
C56   C77   A    
C33   O46   A    
C6    C100  S    
H9    O41   S    
C26   O1    A    
O12   Zn2   S    
C51   C77   A    
C86   C99   A    
C45   C104  A    
C50   C76   A    
H5    O32   S    
C54   C73   A    
C27   C41   A    
C46   C73   A    
C94   C100  A    
C9    C103  S    
C28   O12   A    
C62   C91   A    
C35   C50   S    
C1    C66   A    
C30   O34   A    
O17   Zn1   S    
O1    Zn1   S    
C61   H13   S    
C17   C96   S    
C37   O3    A    
C70   C83   A    
C26   C58   S    
C14   C92   S    
C79   C92   A    
C21   C107  A    
O11   Zn6   S    
C8    O22   D    
C12   O31   D    
C21   C41   A    
C13   C62   A    
C36   O2    A    
H8    O39   S    
C64   H16   S    
C39   C46   S    
C24   C44   A    
C15   C98   S    
C80   C94   A    
C81   C95   A    
C25   C45   A    
C32   C53   S    
C13   C43   A    
C21   C112  A    
C45   C71   A    
O46   Zn6   S    
C65   C88   A    
O16   Zn2   S    
C32   O13   A    
C30   C55   S    
C76   H25   S    
C27   C47   A    
C4    C23   A    
C11   O30   S    
C84   C114  A    
O23   Zn3   S    
C36   O8    A    
C14   O35   S    
C47   C74   A    
C37   O5    A    
C87   C107  A    
H10   O43   S    
C31   O11   A    
C5    C83   A    
C29   O14   A    
C29   C56   S    
C59   H11   S    
C66   C80   A    
C7    O20   D    
C89   C111  A    
C17   O41   S    
C73   H1    S    
C66   H18   S    
C91   C109  A    
C68   H20   S    
C33   O9    A    
C90   C108  A    
C69   C84   A    
C2    C56   A    
C25   C114  A    
C62   H14   S    
C17   O40   D    
C29   O23   A    
C74   H12   S    
C5    C109  A    
O44   Zn5   S    
C44   C60   A    
C20   C40   A    
C83   C96   A    
C15   O37   S    
C63   C90   A    
C32   O45   A    
C36   C48   S    
O13   Zn5   S    
C63   H15   S    
C31   C54   S    
C16   C97   S    
C59   C87   A    
C90   C103  A    
C14   O33   D    
C27   C67   A    
C61   C86   A    
C25   C111  A    
C3    C111  A    
O4    Zn1   S    
C13   C57   A    
C80   C113  A    
C60   C68   A    
C49   C50   A    
C22   C42   A    
C52   C71   A    
C53   C82   A    
H4    O30   S    
C51   C60   A    
O2    Zn3   S    
C61   C93   A    
C67   C79   A    
C97   C101  A    
C92   C99   A    
