data_str_m4_o14_o22_f0_acs.sym.110
_audit_creation_date              2012-12-11T14:22:56-0500
_audit_creation_method            fapswitch 2.2
_symmetry_space_group_name_H-M    P1
_symmetry_Int_Tables_number       1
_space_group_crystal_system       triclinic
_cell_length_a                    11.107129
_cell_length_b                    10.905178
_cell_length_c                    18.619366
_cell_angle_alpha                 89.836242
_cell_angle_beta                  89.717428
_cell_angle_gamma                 60.416279
_cell_volume                      1961.24232835

loop_
_atom_site_label
_atom_site_type_symbol
_atom_type_description
_atom_site_fract_x
_atom_site_fract_y
_atom_site_fract_z
_atom_type_partial_charge
C1    C     C_R   0.240439 0.643420 0.611294 0.553257
C2    C     C_3   0.640678 0.616686 0.802915 0.111133
C3    C     C_3   0.724975 0.696471 0.806987 0.026123
C4    C     C_3   0.680958 0.659413 0.672383 0.000878
C5    C     C_3   0.838811 0.580684 0.689243 -0.293929
C6    C     C_3   0.610817 0.600793 0.723983 -0.225118
C7    C     C_R   0.691732 0.164245 0.824680 0.011715
C8    C     C_R   0.807878 0.136435 0.780705 -0.028465
C9    C     C_R   0.796529 0.130226 0.704771 0.037350
C10   C     C_R   0.551565 0.209260 0.720362 -0.130028
C11   C     C_R   0.563891 0.210900 0.792925 -0.108544
C12   C     C_R   0.656274 0.625811 0.598773 0.555083
C13   C     C_R   0.933322 0.117027 0.809229 -0.100555
C14   C     C_R   0.044801 0.087018 0.764282 -0.180606
C15   C     C_R   0.036741 0.071118 0.690987 -0.134160
C16   C     C_R   0.916437 0.082819 0.661087 0.269660
C17   C     C_R   0.664617 0.173287 0.675172 0.007675
C18   C     C_R   0.199639 0.654434 0.839678 0.012053
C19   C     C_R   0.206063 0.538485 0.802778 -0.016361
C20   C     C_R   0.198663 0.541087 0.726746 -0.005881
C21   C     C_R   0.231649 0.745788 0.728738 -0.155482
C22   C     C_R   0.226178 0.748968 0.802575 -0.155351
C23   C     C_R   0.628089 0.226482 0.602106 0.603031
C24   C     C_R   0.218785 0.420990 0.840648 -0.104516
C25   C     C_R   0.212784 0.311473 0.805268 0.236853
C26   C     C_R   0.187812 0.322308 0.731556 -0.085170
C27   C     C_R   0.179719 0.435977 0.692587 -0.170566
C28   C     C_R   0.210675 0.648779 0.688979 0.014930
C29   C     C_R   0.714957 0.706303 0.186067 -0.002870
C30   C     C_R   0.806886 0.584884 0.227021 0.012788
C31   C     C_R   0.816281 0.601955 0.301203 0.010182
C32   C     C_R   0.601956 0.815710 0.299625 -0.166825
C33   C     C_R   0.623183 0.827445 0.225348 -0.168222
C34   C     C_R   0.282629 0.622260 0.391569 0.547681
C35   C     C_R   0.877830 0.444971 0.201325 -0.162672
C36   C     C_R   0.959550 0.334964 0.248181 -0.118868
C37   C     C_R   0.987194 0.360810 0.317676 0.248194
C38   C     C_R   0.929074 0.499973 0.340078 -0.076728
C39   C     C_R   0.692460 0.692441 0.336386 0.000220
C40   C     C_R   0.629743 0.210220 0.163391 0.042783
C41   C     C_R   0.508209 0.237575 0.199021 0.072791
C42   C     C_R   0.516705 0.208129 0.273176 -0.018510
C43   C     C_R   0.730589 0.217985 0.276468 -0.156975
C44   C     C_R   0.731544 0.220471 0.201763 -0.175906
C45   C     C_R   0.649476 0.632211 0.397734 0.520847
C46   C     C_R   0.384770 0.276101 0.160965 0.290544
C47   C     C_R   0.284573 0.251605 0.192590 -0.137004
C48   C     C_R   0.304876 0.197228 0.261625 -0.205995
C49   C     C_R   0.416799 0.178430 0.302359 -0.129135
C50   C     C_R   0.626616 0.206255 0.313720 -0.004359
C51   C     C_R   0.066589 0.722969 0.196447 -0.004156
C52   C     C_R   0.105509 0.814028 0.230752 0.044470
C53   C     C_R   0.213115 0.753998 0.279508 0.043811
C54   C     C_R   0.174155 0.556769 0.293001 -0.140586
C55   C     C_R   0.101191 0.593947 0.228726 -0.140778
C56   C     C_R   0.611197 0.237462 0.391584 0.550213
C57   C     C_R   0.067859 0.949373 0.205086 -0.077287
C58   C     C_R   0.168982 0.987840 0.199595 -0.102147
C59   C     C_R   0.289518 0.913632 0.238026 -0.105462
C60   C     C_R   0.307973 0.803236 0.282463 -0.072495
C61   C     C_R   0.228928 0.639328 0.319303 -0.001510
C62   C     C_R   0.703312 0.103484 0.896502 0.551265
C63   C     C_R   0.754540 0.711844 0.882959 0.587153
C64   C     C_R   0.123604 0.702414 0.907790 0.561101
C65   C     C_R   0.671113 0.118024 0.099722 0.561741
C66   C     C_R   0.730998 0.714935 0.106587 0.544668
C67   C     C_3   0.644253 0.843298 0.767225 0.102097
C68   C     C_R   0.029074 0.746070 0.120188 0.541505
C69   C     C_3   0.626629 0.820055 0.685966 0.119776
C70   C     C_3   0.864160 0.612133 0.766246 -0.302528
Cr1   Cr    Cr6+3 0.392940 0.397950 0.502230 1.009895
Cr2   Cr    Cr6+3 0.398400 0.708500 0.501260 1.032191
Cr3   Cr    Cr6+3 0.708640 0.393530 0.496460 1.046820
Cr4   Cr    Cr6+3 0.937880 0.938320 0.007620 0.998515
Cr5   Cr    Cr6+3 0.625560 0.937220 0.994510 1.057373
Cr6   Cr    Cr6+3 0.938080 0.625010 0.001190 1.000891
H1    H     H_    0.647332 0.487813 0.711599 0.149952
H2    H     H_    0.933567 0.511515 0.793872 0.177034
H3    H     H_    0.883363 0.464521 0.683889 0.161314
H4    H     H_    0.449823 0.242204 0.699659 0.186083
H5    H     H_    0.945413 0.132064 0.865403 0.178123
H6    H     H_    0.474145 0.236217 0.825068 0.182738
H7    H     H_    0.126982 0.043206 0.657819 0.109530
H8    H     H_    0.256309 0.819011 0.702832 0.123933
H9    H     H_    0.242129 0.409573 0.897475 0.128912
H10   H     H_    0.234435 0.831328 0.830569 0.137549
H11   H     H_    0.178733 0.240414 0.703690 0.143746
H12   H     H_    0.156359 0.439991 0.636225 0.146259
H13   H     H_    0.858917 0.415123 0.149321 0.161610
H14   H     H_    0.561014 0.926201 0.197585 0.141405
H15   H     H_    0.193370 0.270788 0.163012 0.091390
H16   H     H_    0.235968 0.165138 0.283442 0.198135
H17   H     H_    0.190927 0.462758 0.320925 0.159926
H18   H     H_    0.074508 0.521842 0.203620 0.146456
H19   H     H_    0.694164 0.849628 0.654628 0.147479
H20   H     H_    0.155928 0.071842 0.163905 0.093790
H21   H     H_    0.365857 0.944065 0.232915 0.119017
H22   H     H_    0.401586 0.747258 0.312747 0.136614
H23   H     H_    0.918791 0.674407 0.764805 0.110972
H24   H     H_    0.540228 0.678784 0.831283 0.166169
H25   H     H_    0.497904 0.655676 0.715320 0.091788
O1    O     O_R   0.507340 0.255690 0.581430 -0.522370
O2    O     O_R   0.524510 0.695820 0.424050 -0.527141
O3    O     O_R   0.736370 0.504260 0.414810 -0.508299
O4    O     O_R   0.691220 0.277270 0.422180 -0.475768
O5    O     O_3   0.499990 0.499990 0.499980 -0.285635
O6    O     O_R   0.089570 0.825450 0.930590 -0.508373
O7    O     O_R   0.818700 0.054260 0.929860 -0.514774
O8    O     O_R   0.606310 0.077010 0.915520 -0.484240
O9    O     O_R   0.646730 0.806540 0.917560 -0.450391
O10   O     O_R   0.837290 0.593240 0.915240 -0.470813
O11   O     O_R   0.065320 0.635310 0.931580 -0.525521
O12   O     O_R   0.280360 0.527380 0.578910 -0.512402
O13   O     O_R   0.068470 0.828620 0.091850 -0.502091
O14   O     O_R   0.799150 0.057200 0.079350 -0.548350
O15   O     O_R   0.585220 0.080180 0.076770 -0.491287
O16   O     O_R   0.627170 0.809480 0.067050 -0.480341
O17   O     O_R   0.816200 0.596410 0.076500 -0.525822
O18   O     O_R   0.045770 0.638240 0.081070 -0.508389
O19   O     O_3   0.833840 0.833520 0.001110 -0.320155
O20   O     O_R   0.260600 0.739610 0.584580 -0.523040
O21   O     O_R   0.532370 0.695050 0.573830 -0.473067
O22   O     O_R   0.744850 0.503430 0.576380 -0.538590
O23   O     O_R   0.699080 0.276500 0.571950 -0.450811
O24   O     O_R   0.498860 0.256520 0.419860 -0.534966
O25   O     O_R   0.272490 0.528150 0.429140 -0.508717
O26   O     O_R   0.252110 0.740440 0.423010 -0.494300
H26   H     H_    0.709421 0.894546 0.770111 0.129477
H27   H     H_    0.141473 0.067528 0.786565 0.193878
O27   O     O_3   0.917016 0.039798 0.591220 -0.687257
H28   H     H_    0.009103 0.008616 0.569158 0.335305
O28   O     O_3   0.517336 0.937765 0.800272 -0.628084
H29   H     H_    0.454900 0.897386 0.798423 0.322789
O29   O     O_3   0.235189 0.191683 0.841355 -0.713516
H30   H     H_    0.252501 0.200251 0.892805 0.326080
H31   H     H_    0.513180 0.897287 0.327341 0.121523
H32   H     H_    0.994805 0.229619 0.231855 0.117434
O30   O     O_3   0.054957 0.249776 0.364910 -0.719782
H33   H     H_    0.063937 0.286842 0.411968 0.319334
O31   O     O_3   0.491091 0.909550 0.661192 -0.666550
H34   H     H_    0.429496 0.876722 0.681372 0.323195
H35   H     H_    0.945028 0.522303 0.394865 0.114340
H36   H     H_    0.811982 0.223390 0.305279 0.184503
O32   O     O_3   0.366620 0.334340 0.093089 -0.672588
H37   H     H_    0.275227 0.354338 0.074381 0.320950
H38   H     H_    0.815229 0.222166 0.173229 0.110260
H39   H     H_    0.427144 0.131761 0.354696 0.165008
H40   H     H_    0.975574 0.007085 0.174426 0.141035
H41   H     H_    0.894416 0.613404 0.650594 0.124647
O33   O     O_3   0.707761 0.484637 0.837715 -0.674007
H42   H     H_    0.790896 0.420245 0.809323 0.334249

loop_
_geom_bond_atom_site_label_1
_geom_bond_atom_site_label_2
_ccdc_geom_bond_type
C2    O33   S    
C8    C13   A    
C29   C33   A    
Cr2   O20   S    
C70   H2    S    
C38   H35   S    
C41   C42   A    
C34   O26   A    
C43   H36   S    
C35   C36   A    
Cr5   O16   S    
C57   C58   A    
C7    C8    A    
C52   C53   A    
C7    C11   A    
C62   O8    A    
C49   H39   S    
C26   C27   A    
C17   C23   S    
C30   C35   A    
C19   C24   A    
C36   C37   A    
C9    C16   A    
C60   H22   S    
C68   O18   A    
C30   C31   A    
C6    H25   S    
C23   O1    A    
C62   O7    A    
C10   C17   A    
C15   C16   A    
Cr4   O13   S    
C13   H5    S    
C5    H41   S    
Cr1   O12   S    
C18   C19   A    
C32   C39   A    
C58   H20   S    
C54   H17   S    
C45   O2    A    
Cr4   O6    S    
C54   C55   A    
C53   C61   A    
Cr3   O3    S    
C67   O28   S    
C26   H11   S    
Cr3   O22   S    
C66   O16   A    
C1    C28   S    
C44   H38   S    
C41   C46   A    
Cr1   O25   S    
C5    H3    S    
C16   O27   S    
C24   H9    S    
C34   O25   A    
C39   C45   S    
C69   O31   S    
C2    H24   S    
C59   C60   A    
C13   C14   A    
C65   O14   A    
C2    C6    S    
C1    O12   A    
C55   H18   S    
C4    C69   S    
C53   C60   A    
C1    O20   A    
C11   H6    S    
Cr5   O8    S    
Cr6   O18   S    
Cr2   O26   S    
C51   C52   A    
C37   O30   S    
C3    C70   S    
O31   H34   S    
C4    C6    S    
O30   H33   S    
C32   H31   S    
C10   H4    S    
C8    C9    A    
C6    H1    S    
C15   H7    S    
C20   C28   A    
C58   C59   A    
C34   C61   S    
Cr6   O17   S    
Cr2   O2    S    
C67   C69   S    
C37   C38   A    
C43   C44   A    
C7    C62   S    
C29   C30   A    
C45   O3    A    
Cr3   O4    S    
C47   C48   A    
C14   C15   A    
C21   H8    S    
Cr6   O11   S    
Cr3   O23   S    
C67   H26   S    
Cr6   O19   S    
C56   O24   A    
C24   C25   A    
C25   O29   S    
C23   O23   A    
C42   C50   A    
C35   H13   S    
C9    C17   A    
C48   C49   A    
C54   C61   A    
Cr1   O1    S    
Cr2   O5    S    
C40   C65   S    
C48   H16   S    
C59   H21   S    
C65   O15   A    
Cr1   O5    S    
C4    C12   S    
C70   H23   S    
C64   O6    A    
C36   H32   S    
C46   C47   A    
C40   C41   A    
Cr5   O9    S    
Cr2   O21   S    
C18   C22   A    
C47   H15   S    
C21   C28   A    
C3    C67   S    
Cr5   O19   S    
C4    C5    S    
C69   H19   S    
C5    C70   S    
C46   O32   S    
C43   C50   A    
O29   H30   S    
C20   C27   A    
C3    C63   S    
Cr4   O19   S    
C31   C38   A    
O32   H37   S    
C10   C11   A    
C32   C33   A    
C19   C20   A    
O27   H28   S    
C25   C26   A    
C33   H14   S    
C18   C64   S    
Cr3   O5    S    
C12   O22   A    
C63   O9    A    
Cr6   O10   S    
Cr4   O14   S    
C31   C39   A    
O28   H29   S    
C51   C55   A    
C51   C68   S    
C22   H10   S    
C63   O10   A    
C27   H12   S    
C50   C56   S    
C56   O4    A    
C64   O11   A    
C52   C57   A    
C42   C49   A    
Cr4   O7    S    
C29   C66   S    
C40   C44   A    
C12   O21   A    
C66   O17   A    
C57   H40   S    
O33   H42   S    
Cr1   O24   S    
C2    C3    S    
Cr5   O15   S    
C21   C22   A    
C68   O13   A    
C14   H27   S    
