data_str_m3_o41_o41_f0_fof.sym.68
_audit_creation_date              2012-12-10T16:39:37-0500
_audit_creation_method            fapswitch 2.2
_symmetry_space_group_name_H-M    P1
_symmetry_Int_Tables_number       1
_space_group_crystal_system       triclinic
_cell_length_a                    16.859533
_cell_length_b                    16.612812
_cell_length_c                    16.737195
_cell_angle_alpha                 65.621038
_cell_angle_beta                  65.790526
_cell_angle_gamma                 65.888685
_cell_volume                      3729.32132852

loop_
_atom_site_label
_atom_site_type_symbol
_atom_type_description
_atom_site_fract_x
_atom_site_fract_y
_atom_site_fract_z
_atom_type_partial_charge
C1    C     C_R   0.305279 0.023439 0.433486 0.038259
C2    C     C_R   0.307954 0.429412 0.017994 0.026316
C3    C     C_R   0.540674 0.407787 0.007109 0.037520
C4    C     C_R   0.910501 0.485447 0.620832 0.023387
C5    C     C_R   0.905727 0.572274 0.437287 0.024414
C6    C     C_R   0.936767 0.713747 0.580043 0.033328
C7    C     C_R   0.906930 0.334992 0.469497 -0.040241
C8    C     C_R   0.442763 0.041594 0.432495 -0.059822
C9    C     C_R   0.546338 0.038777 0.530635 -0.065162
C10   C     C_R   0.906260 0.479177 0.478428 -0.060363
C11   C     C_R   0.918252 0.575779 0.577155 -0.058565
C12   C     C_R   0.446875 0.443087 0.018176 -0.057326
C13   C     C_R   0.534111 0.529453 0.057889 -0.064136
C14   C     C_R   0.958582 0.179701 0.439261 0.877161
C15   C     C_R   0.671943 0.074130 0.534571 -0.026956
C16   C     C_R   0.991488 0.839132 0.575788 0.985746
C17   C     C_R   0.174703 0.428836 0.985065 1.010932
C18   C     C_R   0.820531 0.561673 0.038994 0.937618
C19   C     C_R   0.425022 0.007124 0.161679 0.959301
C20   C     C_R   0.569653 0.020599 0.822931 0.966655
C21   C     C_R   0.561001 0.820149 0.040717 0.931363
C22   C     C_R   0.438344 0.180026 0.961758 0.938943
C23   C     C_R   0.990625 0.575817 0.839787 0.974977
C24   C     C_R   0.957394 0.439900 0.179666 0.974326
C25   C     C_R   0.821227 0.042862 0.559830 0.858009
C26   C     C_R   0.909186 0.470652 0.333934 0.038576
C27   C     C_R   0.175554 0.983112 0.430044 0.954307
C28   C     C_R   0.391844 0.038245 0.385233 -0.075535
C29   C     C_R   0.594690 0.041417 0.580705 -0.050189
C30   C     C_R   0.907551 0.428341 0.427247 -0.046882
C31   C     C_R   0.931700 0.621852 0.623695 -0.073719
C32   C     C_R   0.403460 0.400480 0.997326 -0.085530
C33   C     C_R   0.580052 0.576105 0.070171 -0.052706
C34   C     C_R   0.261355 0.005756 0.387282 -0.104863
C35   C     C_R   0.722896 0.066107 0.589218 -0.118591
C36   C     C_R   0.926729 0.413102 0.280206 -0.079526
C37   C     C_R   0.936850 0.577567 0.714939 0.037149
C38   C     C_R   0.964541 0.620853 0.754414 -0.089647
C39   C     C_R   0.407086 0.279024 0.948299 -0.054992
C40   C     C_R   0.588916 0.719001 0.069957 -0.136095
C41   C     C_R   0.607233 0.027136 0.726326 -0.096122
C42   C     C_R   0.382322 0.027136 0.249063 -0.077143
C43   C     C_R   0.721561 0.588642 0.065343 -0.066096
C44   C     C_R   0.267778 0.391571 0.986176 -0.094701
C45   C     C_R   0.965023 0.753444 0.621939 -0.092371
C46   C     C_R   0.926493 0.280616 0.412286 -0.132246
C47   C     C_R   0.500796 0.960561 0.721654 0.386833
C48   C     C_R   0.454966 0.326106 0.959323 0.068138
C49   C     C_R   0.501319 0.089285 0.240209 0.373043
C50   C     C_R   0.907572 0.763635 0.499808 0.374694
C51   C     C_R   0.884954 0.301047 0.567173 0.397578
C52   C     C_R   0.709390 0.439064 0.072964 0.427786
C53   C     C_R   0.257002 0.492554 0.071198 0.393721
C54   C     C_R   0.266962 0.029239 0.524887 0.398520
C55   C     C_R   0.695769 0.111424 0.436806 0.392928
C56   C     C_R   0.551263 0.300063 0.936210 0.409244
C57   C     C_R   0.437486 0.694458 0.106105 0.390995
C58   C     C_R   0.891023 0.568346 0.298994 0.373017
C59   C     C_R   0.534634 0.664915 0.082050 -0.036523
C60   C     C_R   0.911166 0.494154 0.763359 0.365723
C61   C     C_R   0.300288 0.008738 0.297064 -0.330851
C62   C     C_R   0.683609 0.056711 0.680967 -0.286255
C63   C     C_R   0.929294 0.321859 0.321583 -0.274404
C64   C     C_R   0.974858 0.707782 0.708398 -0.332850
C65   C     C_R   0.318099 0.319206 0.950138 -0.353369
C66   C     C_R   0.678539 0.677873 0.069378 -0.280086
C67   C     C_R   0.648536 0.105505 0.387140 0.062436
C68   C     C_R   0.325886 0.006111 0.575745 -0.023201
C69   C     C_R   0.902791 0.445737 0.715342 0.023605
C70   C     C_R   0.567057 0.009030 0.677717 0.030748
C71   C     C_R   0.894527 0.618406 0.348537 0.008337
C72   C     C_R   0.391377 0.645775 0.096472 0.067180
C73   C     C_R   0.592578 0.332863 0.970655 0.007149
C74   C     C_R   0.550464 0.096617 0.287942 0.013988
C75   C     C_R   0.442303 0.973766 0.673959 -0.014921
C76   C     C_R   0.300702 0.545471 0.078234 -0.002325
C77   C     C_R   0.671929 0.402405 0.038752 0.007407
C78   C     C_R   0.890125 0.349330 0.616450 0.074644
C79   C     C_R   0.902927 0.715745 0.449340 -0.004872
C80   C     C_R   0.672135 0.139083 0.290912 -0.148150
C81   C     C_R   0.426109 0.051630 0.289974 0.040546
C82   C     C_R   0.298369 0.975696 0.671919 -0.212856
C83   C     C_R   0.883139 0.360153 0.759999 -0.226527
C84   C     C_R   0.884733 0.713973 0.312987 -0.187799
C85   C     C_R   0.296196 0.674023 0.117326 -0.142393
C86   C     C_R   0.683533 0.290887 0.972399 -0.223166
C87   C     C_R   0.624103 0.134933 0.242202 -0.239624
C88   C     C_R   0.357578 0.955902 0.720490 -0.194296
C89   C     C_R   0.251465 0.623888 0.109712 -0.250923
C90   C     C_R   0.721620 0.323275 0.009001 -0.214504
C91   C     C_R   0.877529 0.312759 0.711336 -0.160528
C92   C     C_R   0.671844 0.533962 0.069594 0.042643
C93   C     C_R   0.890167 0.761209 0.361822 -0.204705
C94   C     C_R   0.523560 0.067195 0.384659 0.026002
C95   C     C_R   0.467454 0.009723 0.577710 0.032304
C96   C     C_R   0.904171 0.437257 0.571403 -0.006288
C97   C     C_R   0.910741 0.620795 0.487240 0.030569
C98   C     C_R   0.396063 0.518974 0.053433 0.029513
C99   C     C_R   0.582541 0.446997 0.033689 0.031288
C100  C     C_R   0.573602 0.069532 0.434074 -0.011504
C101  C     C_R   0.412877 0.017450 0.528665 0.040294
C102  C     C_R   0.440781 0.565967 0.067379 -0.004739
H1    H     H_    0.266860 0.993405 0.264060 0.203902
H2    H     H_    0.864114 0.246476 0.748660 0.183897
H3    H     H_    0.791531 0.288627 0.009711 0.134437
H4    H     H_    0.178201 0.649130 0.125597 0.154903
H5    H     H_    0.232208 0.964370 0.709554 0.149127
H6    H     H_    0.728230 0.168815 0.252402 0.185432
H7    H     H_    0.724679 0.230260 0.949566 0.141770
H8    H     H_    0.255654 0.734852 0.140050 0.192266
H9    H     H_    0.874173 0.754176 0.246624 0.136590
H10   H     H_    0.872658 0.327453 0.832692 0.143623
H11   H     H_    0.470542 0.850310 0.815676 0.329220
H12   H     H_    0.718172 0.063564 0.719058 0.209306
H13   H     H_    0.584839 0.111786 0.118268 0.329076
H14   H     H_    0.823395 0.879429 0.452400 0.325456
H15   H     H_    0.818396 0.222793 0.580373 0.317385
H16   H     H_    0.775411 0.317024 0.136337 0.321026
H17   H     H_    0.152615 0.513887 0.177066 0.326771
H18   H     H_    0.165495 0.094679 0.608943 0.323318
H19   H     H_    0.762786 0.186582 0.429877 0.318167
H20   H     H_    0.662567 0.260361 0.843680 0.331883
H21   H     H_    0.421853 0.768124 0.178958 0.335655
H22   H     H_    0.886104 0.662876 0.183051 0.326512
H23   H     H_    0.942480 0.279668 0.279917 0.207219
H24   H     H_    0.908992 0.401993 0.881106 0.326667
H25   H     H_    0.994376 0.739676 0.739646 0.197205
H26   H     H_    0.285481 0.287907 0.931458 0.195121
H27   H     H_    0.718164 0.718970 0.062909 0.200448
H28   H     H_    0.334206 0.932294 0.794627 0.152356
H29   H     H_    0.645521 0.163152 0.168559 0.159294
H30   H     H_    0.886286 0.833592 0.329035 0.153841
O1    O     O_R   0.982940 0.138950 0.510160 -0.558700
O2    O     O_R   0.982940 0.510160 0.138950 -0.580133
O3    O     O_R   0.861050 0.017060 0.489840 -0.558920
O4    O     O_R   0.138950 0.982940 0.510160 -0.562146
O5    O     O_R   0.867700 0.025880 0.612340 -0.643216
O6    O     O_R   0.132300 0.974120 0.387660 -0.632423
O7    O     O_R   0.025880 0.612340 0.867700 -0.640796
O8    O     O_R   0.974120 0.387660 0.132300 -0.635364
O9    O     O_R   0.612340 0.867700 0.025880 -0.637787
O10   O     O_R   0.387660 0.132300 0.974120 -0.666352
O11   O     O_R   0.387660 0.974120 0.132300 -0.634788
O12   O     O_R   0.017060 0.861050 0.489840 -0.571121
O13   O     O_R   0.612340 0.025880 0.867700 -0.631077
O14   O     O_R   0.132300 0.387660 0.974120 -0.643716
O15   O     O_R   0.867700 0.612340 0.025880 -0.662941
O16   O     O_R   0.974120 0.132300 0.387660 -0.629923
O17   O     O_R   0.025880 0.867700 0.612340 -0.646495
O18   O     O_3   0.500703 0.895027 0.806203 -0.750106
O19   O     O_3   0.518309 0.128324 0.146742 -0.759586
O20   O     O_3   0.874443 0.858420 0.478086 -0.749517
O21   O     O_3   0.849584 0.226981 0.616873 -0.763384
O22   O     O_3   0.772988 0.382285 0.120158 -0.748438
O23   O     O_R   0.138950 0.510160 0.982940 -0.576741
O24   O     O_3   0.168477 0.493475 0.123221 -0.761220
O25   O     O_3   0.176888 0.078604 0.553627 -0.730683
O26   O     O_3   0.759438 0.159924 0.388613 -0.762841
O27   O     O_3   0.602501 0.248604 0.875172 -0.760917
O28   O     O_3   0.385737 0.763717 0.147579 -0.758560
O29   O     O_3   0.856297 0.614081 0.225085 -0.755645
O30   O     O_3   0.881047 0.469021 0.857630 -0.750846
O31   O     O_R   0.861050 0.489840 0.017060 -0.558184
O32   O     O_R   0.510160 0.982940 0.138950 -0.613654
O33   O     O_R   0.489840 0.017060 0.861050 -0.580399
O34   O     O_R   0.489840 0.861050 0.017060 -0.557727
O35   O     O_R   0.510160 0.138950 0.982940 -0.555766
O36   O     O_R   0.017060 0.489840 0.861050 -0.603164
Zn1   Zn    Zn3+2 0.004880 0.004880 0.583590 1.019714
Zn2   Zn    Zn3+2 0.995120 0.995120 0.416410 1.025647
Zn3   Zn    Zn3+2 0.004880 0.583590 0.004880 0.976778
Zn4   Zn    Zn3+2 0.995120 0.416410 0.995120 0.985739
Zn5   Zn    Zn3+2 0.583590 0.004880 0.004880 0.982049
Zn6   Zn    Zn3+2 0.416410 0.995120 0.995120 1.009497

loop_
_geom_bond_atom_site_label_1
_geom_bond_atom_site_label_2
_ccdc_geom_bond_type
C13   C99   A    
H17   O24   S    
C6    C45   A    
O14   Zn4   S    
O6    Zn2   S    
C32   C48   A    
C74   C94   A    
C79   C93   A    
C88   H28   S    
C91   H2    S    
C50   C79   A    
C20   C41   S    
C75   C95   A    
O10   Zn6   S    
C24   O8    A    
C20   O33   A    
C24   C36   S    
O23   Zn3   S    
O17   Zn1   S    
C27   O4    A    
C23   O7    A    
C16   O12   A    
C62   H12   S    
C80   C87   A    
C58   C71   A    
C57   C59   A    
C54   C68   A    
H21   O28   S    
C76   C98   A    
C14   O16   A    
C2    C32   A    
O3    Zn2   S    
C49   C81   A    
O1    Zn1   S    
C3    C12   A    
C4    C96   A    
C55   O26   S    
C78   C96   A    
C89   H4    S    
C1    C28   A    
C60   O30   S    
H20   O27   S    
O7    Zn3   S    
C16   O17   A    
C10   C96   A    
C74   C87   A    
C93   H30   S    
C8    C101  A    
C9    C95   A    
C12   C98   A    
C19   C42   S    
C9    C29   A    
C76   C89   A    
O35   Zn5   S    
C66   H27   S    
C6    C31   A    
C11   C31   A    
C33   C59   A    
C7    C30   A    
C40   C66   A    
C12   C32   A    
O9    Zn5   S    
C39   C65   A    
C44   C65   A    
C42   C81   A    
C41   C62   A    
C3    C73   A    
O2    Zn3   S    
C15   C35   A    
C4    C69   A    
O15   Zn3   S    
C1    C34   A    
C15   C29   A    
C38   C64   A    
C27   C34   S    
C83   H10   S    
C77   C90   A    
O34   Zn6   S    
C84   H9    S    
C49   O19   S    
C27   O6    A    
C7    C46   A    
C86   H7    S    
C8    C94   A    
C68   C101  A    
C14   C46   S    
C18   O15   A    
C86   C90   A    
C33   C92   A    
C2    C44   A    
C85   C89   A    
O33   Zn6   S    
C98   C102  A    
C34   C61   A    
C21   O34   A    
C31   C37   A    
C15   C55   A    
C71   C84   A    
C77   C99   A    
C25   O5    A    
C1    C54   A    
C65   H26   S    
C47   C70   A    
C13   C33   A    
C37   C38   A    
C69   C83   A    
C3    C99   A    
C18   O31   A    
C10   C30   A    
O16   Zn2   S    
C47   O18   S    
C94   C100  A    
C64   H25   S    
C22   O10   A    
O32   Zn5   S    
C82   H5    S    
C6    C50   A    
C4    C11   A    
O31   Zn4   S    
C26   C58   A    
C42   C61   A    
C63   H23   S    
C87   H29   S    
C67   C100  A    
C25   C35   S    
C22   O35   A    
C26   C36   A    
C57   O28   S    
O13   Zn5   S    
C85   H8    S    
C9    C100  A    
H19   O26   S    
H15   O21   S    
H18   O25   S    
C8    C28   A    
C52   C92   A    
C53   C76   A    
C52   C77   A    
C36   C63   A    
H14   O20   S    
O12   Zn2   S    
C29   C70   A    
C24   O2    A    
C48   C56   A    
C80   H6    S    
C51   O21   S    
C19   O11   A    
C56   C73   A    
C61   H1    S    
C28   C81   A    
C20   O13   A    
O5    Zn1   S    
H11   O18   S    
C79   C97   A    
C67   C80   A    
C90   H3    S    
C5    C97   A    
C2    C53   A    
C16   C45   S    
C84   C93   A    
C55   C67   A    
C26   C30   A    
C14   O1    A    
C78   C91   A    
C56   O27   S    
C23   C38   S    
C83   C91   A    
H22   O29   S    
C45   C64   A    
C43   C92   A    
C46   C63   A    
C11   C97   A    
C68   C82   A    
C17   O14   A    
C17   C44   S    
C7    C51   A    
C5    C10   A    
C5    C71   A    
C18   C43   S    
C54   O25   S    
C72   C85   A    
C21   C40   S    
C72   C102  A    
C60   C69   A    
C43   C66   A    
C82   C88   A    
C22   C39   S    
C21   O9    A    
H16   O22   S    
C35   C62   A    
C19   O32   A    
C57   C72   A    
C25   O3    A    
C73   C86   A    
C51   C78   A    
C37   C60   A    
C47   C75   A    
C23   O36   A    
C50   O20   S    
C75   C88   A    
O36   Zn4   S    
O4    Zn1   S    
C53   O24   S    
O8    Zn4   S    
H13   O19   S    
C40   C59   A    
C49   C74   A    
C41   C70   A    
O11   Zn6   S    
C13   C102  A    
H24   O30   S    
C58   O29   S    
C52   O22   S    
C95   C101  A    
C39   C48   A    
C17   O23   A    
