data_str_m4_o1_o11_f0_acs.sym.89
_audit_creation_date              2012-12-11T14:42:24-0500
_audit_creation_method            fapswitch 2.2
_symmetry_space_group_name_H-M    P1
_symmetry_Int_Tables_number       1
_space_group_crystal_system       triclinic
_cell_length_a                    18.986631
_cell_length_b                    11.054709
_cell_length_c                    18.694834
_cell_angle_alpha                 90.040971
_cell_angle_beta                  91.239249
_cell_angle_gamma                 89.94045
_cell_volume                      3922.9692797

loop_
_atom_site_label
_atom_site_type_symbol
_atom_type_description
_atom_site_fract_x
_atom_site_fract_y
_atom_site_fract_z
_atom_type_partial_charge
C1    C     C_R   0.729774 0.949763 0.850843 0.548483
C2    C     C_R   0.257043 0.383787 0.914398 0.016932
C3    C     C_3   0.392797 0.654360 0.460558 -0.470820
C4    C     C_3   0.129194 0.038249 0.568739 -0.275784
C5    C     C_3   0.133972 0.172646 0.553745 -0.454677
C6    C     C_3   0.871477 0.031938 0.428409 -0.262144
C7    C     C_3   0.892779 0.154328 0.460600 -0.470833
C8    C     C_2   0.815626 0.201781 0.105716 0.246627
C9    C     C_2   0.184746 0.201780 0.894159 0.247153
C10   C     C_2   0.315630 0.701788 0.105716 0.246648
C11   C     C_2   0.684789 0.701743 0.894164 0.247065
C12   C     C_3   0.854227 0.234563 0.945899 -0.260924
C13   C     C_R   0.242976 0.883615 0.085629 0.017177
C14   C     C_3   0.916211 0.191513 0.991055 -0.493471
C15   C     C_3   0.145961 0.234515 0.053939 -0.260671
C16   C     C_3   0.084053 0.191525 0.008690 -0.493278
C17   C     C_3   0.354229 0.734564 0.945898 -0.260928
C18   C     C_3   0.416215 0.691516 0.991051 -0.493474
C19   C     C_3   0.645970 0.734491 0.053929 -0.260624
C20   C     C_3   0.584072 0.691497 0.008664 -0.493214
C21   C     C_R   0.757044 0.883794 0.914400 0.016828
C22   C     C_R   0.785631 0.293868 0.056562 0.047077
C23   C     C_R   0.214498 0.294013 0.943374 0.046923
C24   C     C_R   0.285631 0.793873 0.056561 0.047085
C25   C     C_R   0.714506 0.794010 0.943375 0.046924
C26   C     C_R   0.788220 0.282132 0.981767 -0.000020
C27   C     C_R   0.211883 0.282260 0.018157 -0.000018
C28   C     C_R   0.288224 0.782144 0.981766 -0.000053
C29   C     C_R   0.270220 0.949666 0.149180 0.547848
C30   C     C_R   0.711894 0.782247 0.018157 0.000106
C31   C     C_R   0.730670 0.330646 0.939593 0.033181
C32   C     C_R   0.269313 0.330825 0.060415 0.032938
C33   C     C_R   0.230678 0.830669 0.939592 0.033105
C34   C     C_R   0.769319 0.830820 0.060417 0.032944
C35   C     C_R   0.501516 0.275958 0.534699 -0.121779
C36   C     C_R   0.507814 0.274531 0.462773 -0.124167
C37   C     C_R   0.001501 0.775966 0.534700 -0.121650
C38   C     C_R   0.007813 0.774528 0.462775 -0.124188
C39   C     C_R   0.500544 0.166252 0.425687 0.053632
C40   C     C_R   0.229775 0.449761 0.850841 0.548550
C41   C     C_R   0.502345 0.168004 0.572908 0.058763
C42   C     C_R   0.000543 0.666250 0.425689 0.053622
C43   C     C_R   0.002335 0.668009 0.572911 0.058872
C44   C     C_R   0.498544 0.055907 0.462699 -0.151466
C45   C     C_R   0.499747 0.056788 0.536910 -0.152880
C46   C     C_R   0.998538 0.555907 0.462702 -0.151467
C47   C     C_R   0.999739 0.556790 0.536913 -0.152882
C48   C     C_R   0.814871 0.413515 0.547827 -0.156637
C49   C     C_R   0.183177 0.422480 0.450468 -0.149937
C50   C     C_R   0.314883 0.913513 0.547830 -0.156629
C51   C     C_R   0.770220 0.449666 0.149179 0.547831
C52   C     C_R   0.683177 0.922466 0.450468 -0.149967
C53   C     C_R   0.821011 0.423393 0.474934 -0.170714
C54   C     C_R   0.176886 0.435143 0.523434 -0.174572
C55   C     C_R   0.321020 0.923404 0.474937 -0.170703
C56   C     C_R   0.676881 0.935120 0.523435 -0.174554
C57   C     C_R   0.530324 0.177744 0.850699 0.553111
C58   C     C_R   0.469682 0.177630 0.149304 0.552353
C59   C     C_R   0.030324 0.677744 0.850699 0.553115
C60   C     C_R   0.969682 0.677630 0.149304 0.552354
C61   C     C_R   0.761341 0.438162 0.430403 0.034830
C62   C     C_R   0.682810 0.419610 0.046985 -0.152339
C63   C     C_R   0.236958 0.443419 0.568183 0.021918
C64   C     C_R   0.261348 0.938174 0.430409 0.034844
C65   C     C_R   0.736951 0.943390 0.568187 0.021952
C66   C     C_R   0.695300 0.461997 0.460894 0.024895
C67   C     C_R   0.303688 0.460894 0.537771 0.022874
C68   C     C_R   0.195308 0.962003 0.460903 0.024915
C69   C     C_R   0.803680 0.960828 0.537784 0.022913
C70   C     C_R   0.691368 0.471470 0.536307 -0.005076
C71   C     C_R   0.307215 0.474750 0.462576 -0.013802
C72   C     C_R   0.191383 0.971499 0.536316 -0.005127
C73   C     C_R   0.317107 0.419872 0.953128 -0.152318
C74   C     C_R   0.807222 0.974700 0.462595 -0.013760
C75   C     C_R   0.749377 0.427404 0.578768 0.028572
C76   C     C_R   0.249167 0.431947 0.419986 0.025197
C77   C     C_R   0.249389 0.927416 0.578773 0.028531
C78   C     C_R   0.749172 0.931929 0.419993 0.025200
C79   C     C_R   0.725174 0.312598 0.860635 0.582440
C80   C     C_R   0.274813 0.312680 0.139356 0.581480
C81   C     C_R   0.225177 0.812606 0.860637 0.582397
C82   C     C_R   0.774815 0.812677 0.139358 0.581487
C83   C     C_R   0.725197 0.961627 0.644612 0.600757
C84   C     C_R   0.182818 0.919635 0.046981 -0.152391
C85   C     C_R   0.274098 0.959798 0.354646 0.601805
C86   C     C_R   0.225199 0.461630 0.644611 0.600805
C87   C     C_R   0.774095 0.459792 0.354642 0.601795
C88   C     C_R   0.528804 0.176009 0.645177 0.575450
C89   C     C_R   0.471675 0.175722 0.354405 0.572898
C90   C     C_R   0.028802 0.676010 0.645178 0.575499
C91   C     C_R   0.971675 0.675722 0.354405 0.572908
C92   C     C_R   0.739330 0.366590 0.647559 0.564278
C93   C     C_R   0.260288 0.367399 0.352142 0.560181
C94   C     C_R   0.239333 0.866593 0.647562 0.564269
C95   C     C_R   0.817109 0.919880 0.953130 -0.152297
C96   C     C_R   0.760289 0.867395 0.352145 0.560191
C97   C     C_2   0.497819 0.168619 0.920626 -0.098606
C98   C     C_2   0.502152 0.168305 0.079363 -0.098851
C99   C     C_2   0.997819 0.668619 0.920626 -0.098598
C100  C     C_2   0.002152 0.668305 0.079363 -0.098849
C101  C     C_2   0.491453 0.070194 0.038032 -0.156031
C102  C     C_2   0.508179 0.070219 0.961754 -0.155780
C103  C     C_2   0.991453 0.570194 0.038032 -0.156027
C104  C     C_2   0.008179 0.570219 0.961754 -0.155774
C105  C     C_R   0.675292 0.388561 0.974796 -0.121526
C106  C     C_R   0.742975 0.383609 0.085629 0.017159
C107  C     C_R   0.324612 0.388867 0.025301 -0.121124
C108  C     C_R   0.175303 0.888602 0.974791 -0.121633
C109  C     C_R   0.824616 0.888868 0.025303 -0.121089
C110  C     C_2   0.630788 0.474622 0.414624 0.221594
C111  C     C_2   0.369033 0.458452 0.583226 0.226584
C112  C     C_2   0.130791 0.974573 0.414639 0.221604
C113  C     C_2   0.869005 0.958337 0.583263 0.226616
C114  C     C_3   0.629170 0.538210 0.568717 -0.275788
C115  C     C_3   0.633985 0.672613 0.553780 -0.454661
C116  C     C_3   0.371458 0.531988 0.428364 -0.262136
Cr1   Cr    Cr6+3 0.769270 0.163730 0.750710 1.031592
Cr2   Cr    Cr6+3 0.385840 0.322500 0.252290 1.034155
Cr3   Cr    Cr6+3 0.114160 0.822500 0.747710 1.032159
Cr4   Cr    Cr6+3 0.885840 0.822500 0.252290 1.034156
Cr5   Cr    Cr6+3 0.230730 0.163730 0.249290 1.034275
Cr6   Cr    Cr6+3 0.269270 0.663730 0.750710 1.031736
Cr7   Cr    Cr6+3 0.730730 0.663730 0.249290 1.034278
Cr8   Cr    Cr6+3 0.612620 0.009790 0.748780 1.004231
Cr9   Cr    Cr6+3 0.387380 0.009790 0.251220 1.003721
Cr10  Cr    Cr6+3 0.112620 0.509790 0.748780 1.004256
Cr11  Cr    Cr6+3 0.887380 0.509790 0.251220 1.003720
Cr12  Cr    Cr6+3 0.614160 0.322500 0.747710 1.032158
H1    H     H_    0.468952 0.988170 0.059835 0.150215
H2    H     H_    0.473694 0.249381 0.942557 0.106120
H3    H     H_    0.026509 0.748838 0.057583 0.106352
H4    H     H_    0.973694 0.749381 0.942557 0.106117
H5    H     H_    0.628199 0.415998 0.945480 0.135803
H6    H     H_    0.371635 0.416413 0.054671 0.136323
H7    H     H_    0.128215 0.916058 0.945472 0.135804
H8    H     H_    0.871638 0.916412 0.054672 0.136327
H9    H     H_    0.641921 0.470427 0.072460 0.118111
H10   H     H_    0.357954 0.470657 0.927718 0.117852
H11   H     H_    0.141930 0.970456 0.072455 0.118128
H12   H     H_    0.530402 0.987966 0.939783 0.150120
H13   H     H_    0.857954 0.970665 0.927720 0.117845
H14   H     H_    0.501909 0.362650 0.560788 0.133346
H15   H     H_    0.511101 0.360274 0.435917 0.143451
H16   H     H_    0.001882 0.862668 0.560784 0.133348
H17   H     H_    0.011112 0.860263 0.435914 0.143440
H18   H     H_    0.493526 0.970546 0.434609 0.113933
H19   H     H_    0.500760 0.971855 0.565770 0.111913
H20   H     H_    0.993516 0.470544 0.434613 0.113933
H21   H     H_    0.000755 0.471855 0.565773 0.111903
H22   H     H_    0.861077 0.388873 0.579650 0.134077
H23   H     H_    0.968952 0.488169 0.059835 0.150217
H24   H     H_    0.136967 0.398791 0.418444 0.132641
H25   H     H_    0.361087 0.888854 0.579651 0.134074
H26   H     H_    0.636967 0.898794 0.418439 0.132641
H27   H     H_    0.588601 0.535691 0.428452 0.083706
H28   H     H_    0.415473 0.507671 0.568394 0.090276
H29   H     H_    0.088579 0.035581 0.428483 0.083685
H30   H     H_    0.915399 0.007803 0.568559 0.090291
H31   H     H_    0.682569 0.708320 0.580194 0.189506
H32   H     H_    0.635567 0.691187 0.495612 0.148614
H33   H     H_    0.587550 0.719582 0.576019 0.134959
H34   H     H_    0.030402 0.487966 0.939783 0.150111
H35   H     H_    0.578837 0.503471 0.546764 0.110885
H36   H     H_    0.625933 0.533063 0.627266 0.195981
H37   H     H_    0.354211 0.685917 0.500116 0.174606
H38   H     H_    0.445716 0.648610 0.486839 0.113679
H39   H     H_    0.396651 0.722782 0.417405 0.157683
H40   H     H_    0.416039 0.468545 0.432421 0.145556
H41   H     H_    0.361121 0.551314 0.370982 0.187950
H42   H     H_    0.182602 0.208368 0.580059 0.189474
H43   H     H_    0.135444 0.191173 0.495566 0.148547
H44   H     H_    0.087582 0.219643 0.576060 0.134996
H45   H     H_    0.873108 0.416744 0.453294 0.136380
H46   H     H_    0.078848 0.003459 0.546842 0.110958
H47   H     H_    0.126027 0.033173 0.627298 0.195975
H48   H     H_    0.854113 0.185949 0.500062 0.174647
H49   H     H_    0.945646 0.148588 0.486989 0.113679
H50   H     H_    0.896732 0.222703 0.417431 0.157611
H51   H     H_    0.916061 0.968520 0.432508 0.145532
H52   H     H_    0.861173 0.051238 0.371020 0.187956
H53   H     H_    0.867749 0.212898 0.129711 0.112285
H54   H     H_    0.132743 0.212971 0.869875 0.112374
H55   H     H_    0.367762 0.712891 0.129692 0.112268
H56   H     H_    0.124832 0.430354 0.545399 0.141575
H57   H     H_    0.632836 0.712988 0.869775 0.112468
H58   H     H_    0.935869 0.265739 0.026192 0.142294
H59   H     H_    0.903741 0.109798 0.022137 0.154825
H60   H     H_    0.957607 0.164199 0.953416 0.137253
H61   H     H_    0.839553 0.159482 0.910040 0.186980
H62   H     H_    0.876065 0.310035 0.913937 0.187584
H63   H     H_    0.064323 0.265796 0.973637 0.142256
H64   H     H_    0.096641 0.109876 0.977500 0.155093
H65   H     H_    0.042676 0.164126 0.046270 0.137406
H66   H     H_    0.160779 0.159367 0.089663 0.187180
H67   H     H_    0.373119 0.916760 0.453296 0.136355
H68   H     H_    0.123990 0.309874 0.086022 0.187501
H69   H     H_    0.435876 0.765742 0.026186 0.142292
H70   H     H_    0.403747 0.609800 0.022133 0.154802
H71   H     H_    0.457609 0.664204 0.953410 0.137260
H72   H     H_    0.339550 0.659480 0.910042 0.186985
H73   H     H_    0.376067 0.810031 0.913932 0.187582
H74   H     H_    0.564350 0.765763 0.973603 0.142260
H75   H     H_    0.596669 0.609851 0.977475 0.155196
H76   H     H_    0.542687 0.664093 0.046233 0.137374
H77   H     H_    0.660787 0.659345 0.089653 0.187169
H78   H     H_    0.624826 0.930335 0.545397 0.141577
H79   H     H_    0.623991 0.809844 0.086011 0.187467
H80   H     H_    0.526509 0.248838 0.057583 0.106344
O1    O     O_R   0.784320 0.290430 0.830510 -0.533150
O2    O     O_R   0.456080 0.282180 0.333210 -0.508032
O3    O     O_R   0.043920 0.782180 0.666790 -0.507891
O4    O     O_R   0.956080 0.782180 0.333210 -0.508027
O5    O     O_R   0.679040 0.374160 0.674430 -0.510403
O6    O     O_R   0.320960 0.374160 0.325570 -0.509612
O7    O     O_R   0.179040 0.874160 0.674430 -0.510400
O8    O     O_R   0.820960 0.874160 0.325570 -0.509606
O9    O     O_3   0.665350 0.165340 0.749070 -0.282868
O10   O     O_3   0.334650 0.165340 0.250930 -0.281927
O11   O     O_3   0.165350 0.665340 0.749070 -0.282895
O12   O     O_R   0.215680 0.290430 0.169490 -0.533523
O13   O     O_3   0.834650 0.665340 0.250930 -0.281927
O14   O     O_R   0.762640 0.040960 0.825200 -0.525074
O15   O     O_R   0.237360 0.040960 0.174800 -0.524580
O16   O     O_R   0.262640 0.540960 0.825200 -0.525075
O17   O     O_R   0.737360 0.540960 0.174800 -0.524576
O18   O     O_R   0.667400 0.923970 0.829950 -0.534412
O19   O     O_R   0.332600 0.923970 0.170050 -0.534883
O20   O     O_R   0.167400 0.423970 0.829950 -0.534358
O21   O     O_R   0.832600 0.423970 0.170050 -0.534894
O22   O     O_R   0.553960 0.081340 0.821780 -0.498508
O23   O     O_R   0.284320 0.790430 0.830510 -0.533147
O24   O     O_R   0.446040 0.081340 0.178220 -0.499124
O25   O     O_R   0.053960 0.581340 0.821780 -0.498515
O26   O     O_R   0.946040 0.581340 0.178220 -0.499123
O27   O     O_R   0.543180 0.283240 0.826740 -0.523818
O28   O     O_R   0.456820 0.283240 0.173260 -0.522791
O29   O     O_R   0.043180 0.783240 0.826740 -0.523825
O30   O     O_R   0.956820 0.783240 0.173260 -0.522795
O31   O     O_R   0.678360 0.375140 0.822710 -0.458733
O32   O     O_R   0.321640 0.375140 0.177290 -0.458724
O33   O     O_R   0.178360 0.875140 0.822710 -0.458729
O34   O     O_R   0.715680 0.790430 0.169490 -0.533519
O35   O     O_R   0.821640 0.875140 0.177290 -0.458727
O36   O     O_R   0.785050 0.289380 0.670560 -0.517424
O37   O     O_R   0.214950 0.289380 0.329440 -0.515857
O38   O     O_R   0.285050 0.789380 0.670560 -0.517390
O39   O     O_R   0.714950 0.789380 0.329440 -0.515863
O40   O     O_R   0.763320 0.039990 0.676930 -0.460485
O41   O     O_R   0.236680 0.039990 0.323070 -0.459830
O42   O     O_R   0.263320 0.539990 0.676930 -0.460273
O43   O     O_R   0.736680 0.539990 0.323070 -0.459843
O44   O     O_R   0.668130 0.922920 0.670000 -0.535061
O45   O     O_R   0.554640 0.080370 0.673500 -0.514367
O46   O     O_R   0.331870 0.922920 0.330000 -0.536036
O47   O     O_R   0.168130 0.422920 0.670000 -0.535070
O48   O     O_R   0.831870 0.422920 0.330000 -0.536025
O49   O     O_2   0.623013 0.412760 0.360856 -0.500738
O50   O     O_2   0.372628 0.396182 0.637127 -0.499704
O51   O     O_2   0.123032 0.912721 0.360864 -0.500737
O52   O     O_2   0.872618 0.895791 0.637052 -0.499789
O53   O     O_2   0.780492 0.113817 0.121378 -0.491361
O54   O     O_2   0.219928 0.113522 0.878844 -0.490612
O55   O     O_2   0.280485 0.613847 0.121403 -0.491343
O56   O     O_R   0.445360 0.080370 0.326500 -0.514064
O57   O     O_2   0.719935 0.613370 0.878997 -0.490685
O58   O     O_R   0.054640 0.580370 0.673500 -0.514390
O59   O     O_R   0.945360 0.580370 0.326500 -0.514058
O60   O     O_R   0.543920 0.282180 0.666790 -0.507896

loop_
_geom_bond_atom_site_label_1
_geom_bond_atom_site_label_2
_ccdc_geom_bond_type
C8    H53   S    
Cr4   O4    S    
C55   H67   S    
Cr8   O45   S    
C65   C69   A    
C86   O42   A    
Cr4   O13   S    
C57   O22   A    
C37   H16   S    
C48   H22   S    
C83   O44   A    
C51   O21   A    
C59   C99   S    
Cr5   O10   S    
C19   C20   S    
C58   C98   S    
C58   O24   A    
C79   O31   A    
Cr9   O24   S    
C114  C115  S    
C100  H3    S    
C53   H45   S    
C62   C105  A    
C66   C70   A    
C85   O41   A    
C70   C114  S    
Cr12  O31   S    
C1    C21   S    
Cr6   O23   S    
Cr7   O13   S    
C13   C84   A    
C82   O34   A    
C94   O7    A    
C101  C102  S    
Cr11  O59   S    
C99   H4    S    
C40   O16   A    
C64   C68   A    
C13   C29   S    
C59   O29   A    
C36   H15   S    
C97   H2    S    
C38   C42   A    
C107  H6    S    
C58   O28   A    
C3    C116  S    
C112  O51   D    
C104  H34   S    
C90   O3    A    
C6    H51   S    
C52   C78   A    
C73   C107  A    
Cr6   O42   S    
C54   C63   A    
C11   C25   S    
C50   H25   S    
C52   H26   S    
C49   C54   A    
C77   C94   S    
Cr11  O21   S    
C10   O55   D    
C7    H49   S    
C17   H72   S    
C79   O1    A    
C42   C91   S    
C68   C112  S    
C81   O33   A    
Cr10  O25   S    
C22   C26   A    
C9    H54   S    
C61   C87   S    
C72   C77   A    
C46   C47   A    
C15   H66   S    
C53   C61   A    
C61   C66   A    
C46   H20   S    
C47   H21   S    
C84   H11   S    
C78   C96   S    
C4    H47   S    
C83   O40   A    
C51   O17   A    
C44   H18   S    
C116  H41   S    
C19   H79   S    
Cr1   O9    S    
Cr3   O7    S    
C110  H27   S    
C113  O52   D    
C23   C27   A    
C113  H30   S    
C16   H64   S    
C111  H28   S    
C111  O50   D    
C74   C78   A    
C97   C102  D    
C4    H46   S    
C103  H23   S    
Cr12  O5    S    
Cr6   O38   S    
C6    H52   S    
Cr9   O10   S    
Cr12  O27   S    
Cr5   O37   S    
C99   C104  D    
C93   O6    A    
C26   C31   A    
Cr3   O29   S    
C9    O54   D    
C109  H8    S    
Cr3   O11   S    
C10   H55   S    
C31   C105  A    
C48   C75   A    
C98   H80   S    
Cr1   O14   S    
C59   O25   A    
C33   C108  A    
Cr2   O28   S    
C91   O59   A    
C115  H33   S    
C57   O27   A    
Cr4   O35   S    
C103  C104  S    
C6    C74   S    
C6    C7    S    
C55   C64   A    
Cr5   O15   S    
C48   C53   A    
C63   C67   A    
C43   C90   S    
C112  H29   S    
C30   C34   A    
C3    H39   S    
Cr11  O48   S    
C69   C74   A    
C60   O26   A    
C20   H76   S    
C108  H7    S    
C95   C109  A    
C116  H40   S    
C81   O23   A    
C9    C23   S    
C21   C95   A    
C10   C24   S    
C86   O47   A    
C22   C106  A    
C8    C22   S    
C32   C107  A    
C100  C103  D    
C13   C24   A    
C12   C26   S    
C1    O14   A    
C15   C27   S    
C35   C36   A    
C40   O20   A    
C87   O43   A    
C38   H17   S    
Cr2   O10   S    
C37   C38   A    
C12   H61   S    
C16   H63   S    
C85   O46   A    
C76   C93   S    
C32   C80   S    
C14   H60   S    
C56   C65   A    
Cr5   O41   S    
C1    O18   A    
C5    H42   S    
C57   C97   S    
C7    H48   S    
C2    C23   A    
C18   H69   S    
C17   C18   S    
Cr12  O60   S    
C49   C76   A    
C92   O5    A    
Cr2   O6    S    
C89   O56   A    
C102  H12   S    
C66   C110  S    
Cr10  O47   S    
C17   H73   S    
Cr3   O33   S    
C16   H65   S    
C2    C73   A    
C93   O37   A    
C75   C92   S    
C94   O38   A    
Cr7   O17   S    
C15   H68   S    
C7    H50   S    
C67   C111  S    
C87   O48   A    
C12   C14   S    
C28   C33   A    
C95   H13   S    
C63   C86   S    
C42   C46   A    
Cr5   O12   S    
C54   H56   S    
C37   C43   A    
C60   O30   A    
C29   O19   A    
C39   C44   A    
C50   C77   A    
C64   C85   S    
C4    C72   S    
Cr10  O11   S    
C3    H37   S    
C105  H5    S    
Cr1   O40   S    
Cr2   O32   S    
C25   C30   A    
C29   O15   A    
C41   C88   S    
C21   C25   A    
Cr8   O9    S    
Cr11  O26   S    
C5    H43   S    
C96   O39   A    
C49   H24   S    
C90   O58   A    
C27   C32   A    
C45   H19   S    
C17   C28   S    
C36   C39   A    
C88   O60   A    
C44   C45   A    
C24   C28   A    
C20   H75   S    
C91   O4    A    
C60   C100  S    
C80   O12   A    
Cr8   O18   S    
C31   C79   S    
C88   O45   A    
C62   C106  A    
C68   C72   A    
Cr4   O8    S    
C98   C101  D    
C12   H62   S    
Cr3   O3    S    
C50   C55   A    
C96   O8    A    
C115  H32   S    
Cr2   O2    S    
C11   O57   D    
Cr1   O1    S    
C20   H74   S    
C71   C116  S    
Cr8   O44   S    
Cr7   O39   S    
C14   H59   S    
C92   O36   A    
C80   O32   A    
C114  H35   S    
C71   C76   A    
C43   C47   A    
C51   C106  S    
C14   H58   S    
C15   C16   S    
Cr9   O56   S    
C84   C108  A    
C5    H44   S    
C11   H57   S    
C82   O35   A    
C67   C71   A    
C62   H9    S    
Cr9   O46   S    
C35   C41   A    
C65   C83   S    
Cr11  O13   S    
C35   H14   S    
Cr10  O20   S    
Cr1   O36   S    
C2    C40   S    
C114  H36   S    
C4    C5    S    
C56   H78   S    
C70   C75   A    
C110  O49   D    
C69   C113  S    
C73   H10   S    
C115  H31   S    
C18   H71   S    
C19   H77   S    
C34   C109  A    
C41   C45   A    
Cr10  O58   S    
Cr7   O43   S    
Cr6   O16   S    
C34   C82   S    
C8    O53   D    
Cr9   O19   S    
C19   C30   S    
C33   C81   S    
Cr12  O9    S    
C39   C89   S    
Cr7   O34   S    
Cr8   O22   S    
C18   H70   S    
C52   C56   A    
C3    H38   S    
Cr4   O30   S    
Cr6   O11   S    
C89   O2    A    
C101  H1    S    
