data_str_m2_o10_o28_f0_pcu.sym.150
_audit_creation_date              2012-12-10T16:50:09-0500
_audit_creation_method            fapswitch 2.2
_symmetry_space_group_name_H-M    P1
_symmetry_Int_Tables_number       1
_space_group_crystal_system       triclinic
_cell_length_a                    23.455757
_cell_length_b                    8.681142
_cell_length_c                    7.433723
_cell_angle_alpha                 103.057075
_cell_angle_beta                  93.782532
_cell_angle_gamma                 92.241091
_cell_volume                      1469.05483534

loop_
_atom_site_label
_atom_site_type_symbol
_atom_type_description
_atom_site_fract_x
_atom_site_fract_y
_atom_site_fract_z
_atom_type_partial_charge
C1    C     C_R   0.498181 0.199633 0.453174 0.901308
C2    C     C_R   0.501666 0.800352 0.546828 0.890172
C3    C     C_R   0.243321 0.630039 0.586534 -0.086876
C4    C     C_R   0.760014 0.403023 0.601543 -0.096527
C5    C     C_R   0.302708 0.632189 0.586048 -0.299593
C6    C     C_R   0.700784 0.407744 0.599862 -0.317488
C7    C     C_R   0.329480 0.493978 0.509190 -0.102256
C8    C     C_R   0.671049 0.495562 0.490931 -0.122685
C9    C     C_R   0.296931 0.352058 0.433519 0.383209
C10   C     C_R   0.701135 0.579359 0.381766 0.393575
C11   C     C_R   0.237413 0.349092 0.442656 -0.189703
C12   C     C_R   0.761168 0.580075 0.392236 -0.190371
C13   C     C_R   0.210299 0.488419 0.515381 0.292039
C14   C     C_R   0.790519 0.489812 0.498522 0.287573
C15   C     C_2   0.497230 0.031689 0.426805 -0.349174
C16   C     C_2   0.502395 0.968268 0.573175 -0.358876
C17   C     C_R   0.391352 0.499223 0.503025 0.858118
C18   C     C_R   0.608877 0.500622 0.497037 0.844765
C19   C     C_R   0.883974 0.542398 0.666722 0.545732
C20   C     C_R   0.116570 0.435865 0.348972 0.540828
C21   C     C_R   0.876769 0.430633 0.340573 0.550522
C22   C     C_R   0.123819 0.536040 0.677296 0.546420
C23   C     C_R   0.936483 0.429446 0.339695 -0.016127
C24   C     C_R   0.064085 0.539087 0.678030 -0.019208
C25   C     C_R   0.970180 0.485248 0.507555 -0.018108
C26   C     C_R   0.030368 0.485100 0.509942 -0.016282
C27   C     C_R   0.943855 0.541616 0.672891 -0.020802
C28   C     C_R   0.056683 0.431314 0.344105 -0.020819
C29   C     C_R   0.963158 0.373818 0.175486 -0.167826
C30   C     C_R   0.037394 0.594668 0.842285 -0.169777
C31   C     C_R   0.022655 0.375229 0.177589 -0.182076
C32   C     C_R   0.977904 0.596659 0.839583 -0.180041
Cu1   Cu    Cu3+1 0.506340 0.517380 0.684380 0.949385
Cu2   Cu    Cu3+1 0.493660 0.482620 0.315620 0.968193
H1    H     H_    0.938210 0.330130 0.044616 0.194585
H2    H     H_    0.062349 0.637258 0.973334 0.197325
H3    H     H_    0.041849 0.332190 0.048359 0.194845
H4    H     H_    0.958726 0.640891 0.968570 0.193898
H5    H     H_    0.222915 0.738641 0.641679 0.161324
H6    H     H_    0.782311 0.332943 0.684218 0.175611
H7    H     H_    0.327752 0.742152 0.642134 0.157686
H8    H     H_    0.677991 0.341883 0.683022 0.172042
H9    H     H_    0.212154 0.238738 0.392657 0.156540
H10   H     H_    0.785291 0.652671 0.319778 0.166657
H11   H     H_    0.492347 0.959922 0.285809 0.172939
H12   H     H_    0.507244 0.040033 0.714169 0.173857
H13   H     H_    0.455560 0.377851 0.948672 0.229402
H14   H     H_    0.544023 0.622781 0.051862 0.233831
N1    N     N_R   0.851748 0.487270 0.502273 -0.457787
N2    N     N_R   0.148932 0.486444 0.514088 -0.458338
N3    N     N_2   0.484110 0.456420 0.038520 -0.219922
N4    N     N_2   0.515890 0.543580 0.961480 -0.224828
O1    O     O_R   0.504120 0.286130 0.619770 -0.586242
O2    O     O_R   0.495880 0.713870 0.380230 -0.579955
O3    O     O_R   0.493410 0.256770 0.308360 -0.593090
O4    O     O_R   0.506590 0.743230 0.691640 -0.591681
O5    O     O_R   0.423230 0.514630 0.655730 -0.585599
O6    O     O_R   0.576770 0.485370 0.344270 -0.567799
O7    O     O_R   0.412530 0.485280 0.344320 -0.575534
O8    O     O_R   0.587470 0.514720 0.655680 -0.599292
O9    O     O_2   0.858176 0.599393 0.823289 -0.532585
O10   O     O_2   0.142274 0.391921 0.189515 -0.526616
O11   O     O_2   0.843903 0.374563 0.181347 -0.537428
O12   O     O_2   0.156508 0.580999 0.838571 -0.516143
O13   O     O_3   0.324160 0.214518 0.365760 -0.595977
C33   C     C_3   0.311942 0.167368 0.171956 0.087243
H15   H     H_    0.321453 0.266514 0.103747 0.158736
H16   H     H_    0.266323 0.124637 0.137328 0.162694
C34   C     C_3   0.349111 0.032093 0.093836 -0.760202
H17   H     H_    0.340633 0.930619 0.158212 0.256323
H18   H     H_    0.339372 0.992643 0.941696 0.197887
H19   H     H_    0.395037 0.071976 0.122329 0.248348
O14   O     O_3   0.672677 0.678995 0.289252 -0.589851
C35   C     C_3   0.677886 0.630313 0.096360 0.064935
H20   H     H_    0.646170 0.530562 0.035491 0.164739
H21   H     H_    0.721218 0.591540 0.060155 0.165130
C36   C     C_3   0.665873 0.768632 0.007592 -0.713637
H22   H     H_    0.697297 0.869180 0.067248 0.250094
H23   H     H_    0.669758 0.732701 0.856084 0.216863
H24   H     H_    0.622075 0.808129 0.032787 0.231754

loop_
_geom_bond_atom_site_label_1
_geom_bond_atom_site_label_2
_ccdc_geom_bond_type
C33   H16   S    
O14   C35   S    
C21   N1    A    
C36   H22   S    
Cu1   N4    S    
Cu2   N3    S    
C35   H21   S    
C23   C29   A    
C24   C26   A    
C8    C10   A    
C10   O14   S    
C33   C34   S    
C15   C16   D    
C34   H18   S    
C1    O1    A    
C20   N2    A    
C18   O6    A    
C4    H6    S    
C7    C17   S    
C35   C36   S    
C11   H9    S    
C1    C15   S    
C32   H4    S    
C2    C16   S    
C3    C13   A    
C22   N2    A    
Cu1   O4    S    
C33   H15   S    
C3    H5    S    
Cu2   O3    S    
C4    C14   A    
C9    O13   S    
C36   H23   S    
Cu1   O1    S    
C35   H20   S    
N3    N4    D    
C4    C6    A    
C2    O2    A    
C16   H12   S    
C5    C7    A    
C6    C8    A    
C20   C28   A    
C25   C26   A    
C8    C18   S    
C31   H3    S    
C34   H19   S    
C19   N1    A    
Cu1   Cu2   S    
C9    C11   A    
C10   C12   A    
C17   O7    A    
C18   O8    A    
C12   C14   A    
Cu2   O2    S    
Cu1   O8    S    
C21   C23   A    
Cu2   O7    S    
C22   C24   A    
C15   H11   S    
C19   C27   A    
C36   H24   S    
C7    C9    A    
C5    H7    S    
Cu1   O5    S    
C27   C32   A    
C28   C31   A    
C3    C5    A    
H13   N3    S    
C25   C27   A    
C29   H1    S    
C26   C28   A    
C30   H2    S    
C1    O3    A    
C29   C31   A    
C2    O4    A    
C30   C32   A    
C11   C13   A    
C19   O9    S    
C23   C25   A    
C20   O10   S    
C34   H17   S    
C24   C30   A    
C21   O11   S    
C22   O12   S    
C13   N2    S    
C14   N1    S    
H14   N4    S    
C12   H10   S    
O13   C33   S    
C6    H8    S    
Cu2   O6    S    
C17   O5    A    
