data_str_m9_o18_o24_f0_sra.sym.24
_audit_creation_date              2012-12-11T15:31:33-0500
_audit_creation_method            fapswitch 2.2
_symmetry_space_group_name_H-M    P1
_symmetry_Int_Tables_number       1
_space_group_crystal_system       triclinic
_cell_length_a                    6.960057
_cell_length_b                    14.739274
_cell_length_c                    21.330262
_cell_angle_alpha                 74.992875
_cell_angle_beta                  90.144342
_cell_angle_gamma                 90.704688
_cell_volume                      2113.39867436

loop_
_atom_site_label
_atom_site_type_symbol
_atom_type_description
_atom_site_fract_x
_atom_site_fract_y
_atom_site_fract_z
_atom_type_partial_charge
O1    O     O_R   0.648150 0.130050 0.214300 -0.538700
O2    O     O_R   0.351850 0.869950 0.785700 -0.538700
O3    O     O_R   0.320490 0.006660 0.340150 -0.546397
O4    O     O_R   0.679510 0.993340 0.659850 -0.546397
O5    O     O_R   0.146100 0.869940 0.285700 -0.538549
O6    O     O_R   0.853900 0.130060 0.714300 -0.538549
C1    C     C_R   0.488784 0.001530 0.367044 0.697484
C2    C     C_R   0.511216 0.998470 0.632956 0.697484
O7    O     O_R   0.318690 0.137980 0.218120 -0.540923
O8    O     O_R   0.681310 0.862020 0.781880 -0.540924
O9    O     O_R   0.144280 0.002190 0.162800 -0.541729
O10   O     O_R   0.855720 0.997810 0.837200 -0.541729
C3    C     C_R   0.488467 0.175509 0.205835 0.696014
C4    C     C_R   0.511533 0.824491 0.794165 0.696014
O11   O     O_R   0.649960 0.997790 0.337200 -0.536971
O12   O     O_R   0.350040 0.002210 0.662800 -0.536971
O13   O     O_3   0.479300 0.955290 0.231990 -0.369748
O14   O     O_3   0.520700 0.044710 0.768010 -0.369748
V1    V     V_3+5 0.206040 0.008290 0.253340 1.413386
V2    V     V_3+5 0.793960 0.991710 0.746660 1.413386
O15   O     O_R   0.814320 0.993320 0.159850 -0.539735
O16   O     O_R   0.185680 0.006680 0.840150 -0.539735
C5    C     C_R   0.982598 0.999513 0.132757 0.695519
C6    C     C_R   0.017402 0.000487 0.867243 0.695519
O17   O     O_R   0.816120 0.862000 0.281880 -0.539966
O18   O     O_R   0.183880 0.138000 0.718120 -0.539966
C7    C     C_R   0.983748 0.824415 0.294232 0.695846
C8    C     C_R   0.016251 0.175585 0.705768 0.695846
V3    V     V_3+5 0.705540 0.991700 0.246660 1.416295
V4    V     V_3+5 0.294460 0.008300 0.753340 1.416295
O19   O     O_3   0.982150 0.044700 0.268010 -0.370742
O20   O     O_3   0.017850 0.955300 0.731990 -0.370742
C9    C     C_R   0.987317 0.722820 0.321888 -0.033370
C10   C     C_R   0.012683 0.277180 0.678112 -0.033370
C11   C     C_R   0.941163 0.565786 0.309823 -0.163129
C12   C     C_R   0.058837 0.434214 0.690177 -0.163129
C13   C     C_R   0.952073 0.662249 0.282498 -0.174865
C14   C     C_R   0.047926 0.337751 0.717502 -0.174866
C15   C     C_R   0.010519 0.687037 0.388867 -0.214295
C16   C     C_R   0.989481 0.312963 0.611133 -0.214294
C17   C     C_R   0.995042 0.589313 0.418319 0.085635
C18   C     C_R   0.004958 0.410687 0.581681 0.085635
C19   C     C_R   0.960770 0.528976 0.377138 0.142437
C20   C     C_R   0.039230 0.471024 0.622862 0.142437
C21   C     C_R   0.009625 0.549769 0.486957 0.060642
C22   C     C_R   0.990375 0.450231 0.513042 0.060642
C23   C     C_R   0.958166 0.393597 0.469620 -0.190933
C24   C     C_R   0.041834 0.606402 0.530380 -0.190933
C25   C     C_R   0.943899 0.432381 0.403250 -0.206001
C26   C     C_R   0.056101 0.567619 0.596750 -0.206001
H1    H     H_    0.918032 0.386035 0.371978 0.120331
H2    H     H_    0.081968 0.613965 0.628022 0.120331
H3    H     H_    0.964441 0.262124 0.583664 0.095463
H4    H     H_    0.035558 0.737876 0.416336 0.095463
H5    H     H_    0.068151 0.310223 0.769315 0.100835
H6    H     H_    0.931848 0.689777 0.230685 0.100835
H7    H     H_    0.914295 0.519857 0.278366 0.113372
H8    H     H_    0.085705 0.480143 0.721634 0.113372
H9    H     H_    0.942475 0.318397 0.485117 0.123980
H10   H     H_    0.057525 0.681603 0.514883 0.123980
C27   C     C_3   0.852981 0.948475 0.985710 -0.171874
C28   C     C_3   0.147019 0.051525 0.014290 -0.171874
C29   C     C_3   0.010511 0.911261 0.037402 -0.190521
C30   C     C_3   0.989489 0.088739 0.962598 -0.190521
H11   H     H_    0.020429 0.838259 0.068395 0.111111
H12   H     H_    0.979571 0.161741 0.931605 0.111111
H13   H     H_    0.738802 0.903372 0.973204 0.118170
H14   H     H_    0.261198 0.096628 0.026796 0.118170
C31   C     C_3   0.990884 0.000268 0.062188 -0.049839
C32   C     C_3   0.009116 0.999732 0.937812 -0.049839
C33   C     C_3   0.835333 0.037200 0.011114 0.234842
C34   C     C_3   0.164667 0.962800 0.988885 0.234842
C35   C     C_3   0.590349 0.078126 0.464739 -0.187989
C36   C     C_3   0.409651 0.921874 0.535261 -0.187989
C37   C     C_3   0.412085 0.075356 0.508291 0.210651
C38   C     C_3   0.587915 0.924644 0.491709 0.210651
H15   H     H_    0.663517 0.142656 0.435672 0.110548
H16   H     H_    0.336483 0.857343 0.564328 0.110548
C39   C     C_3   0.504306 0.998957 0.562479 -0.047869
C40   C     C_3   0.495694 0.001043 0.437521 -0.047869
C41   C     C_3   0.684076 0.000725 0.519593 -0.156275
C42   C     C_3   0.315924 0.999275 0.480407 -0.156275
H17   H     H_    0.835906 0.000542 0.535755 0.119847
H18   H     H_    0.164094 0.999458 0.464245 0.119847
C43   C     C_R   0.501510 0.276875 0.177961 -0.032181
C44   C     C_R   0.498490 0.723125 0.822039 -0.032181
C45   C     C_R   0.566300 0.432571 0.189939 -0.162467
C46   C     C_R   0.433700 0.567429 0.810061 -0.162468
C47   C     C_R   0.545394 0.336469 0.217334 -0.176390
C48   C     C_R   0.454606 0.663531 0.782666 -0.176389
C49   C     C_R   0.479410 0.313119 0.111001 -0.217156
C50   C     C_R   0.520590 0.686881 0.888999 -0.217156
C51   C     C_R   0.502993 0.410443 0.081562 0.085317
C52   C     C_R   0.497007 0.589557 0.918438 0.085317
C53   C     C_R   0.546438 0.469886 0.122669 0.141742
C54   C     C_R   0.453562 0.530114 0.877331 0.141742
C55   C     C_R   0.486589 0.450437 0.013034 0.059110
C56   C     C_R   0.513411 0.549563 0.986966 0.059110
C57   C     C_R   0.555126 0.605347 0.030284 -0.190942
C58   C     C_R   0.444874 0.394653 0.969716 -0.190942
C59   C     C_R   0.571194 0.566094 0.096554 -0.204641
C60   C     C_R   0.428806 0.433906 0.903446 -0.204641
H19   H     H_    0.604160 0.611772 0.127756 0.120858
H20   H     H_    0.395840 0.388228 0.872244 0.120858
H21   H     H_    0.553178 0.737092 0.916384 0.092047
H22   H     H_    0.446822 0.262908 0.083616 0.092047
H23   H     H_    0.435953 0.691515 0.730823 0.101567
H24   H     H_    0.564047 0.308485 0.269176 0.101568
H25   H     H_    0.599844 0.477822 0.221346 0.113671
H26   H     H_    0.400156 0.522178 0.778654 0.113671
H27   H     H_    0.576839 0.680227 0.014795 0.122146
H28   H     H_    0.423160 0.319773 0.985205 0.122146
C61   C     C_3   0.650243 0.082937 0.023201 -0.805593
H29   H     H_    0.570150 0.106415 0.976912 0.204632
H30   H     H_    0.562598 0.031596 0.059397 0.221592
H31   H     H_    0.683253 0.144746 0.042176 0.199555
C62   C     C_3   0.349756 0.917063 0.976799 -0.805593
H32   H     H_    0.429850 0.893585 0.023088 0.204632
H33   H     H_    0.316747 0.855254 0.957824 0.199555
H34   H     H_    0.437402 0.968404 0.940603 0.221592
C63   C     C_3   0.309917 0.161529 0.517660 -0.806345
H35   H     H_    0.258945 0.204814 0.470072 0.208003
H36   H     H_    0.184836 0.139260 0.550443 0.203355
H37   H     H_    0.410348 0.203972 0.539358 0.210127
C64   C     C_3   0.690083 0.838470 0.482340 -0.806345
H38   H     H_    0.741054 0.795186 0.529928 0.208004
H39   H     H_    0.589652 0.796027 0.460642 0.210127
H40   H     H_    0.815164 0.860740 0.449557 0.203355

loop_
_geom_bond_atom_site_label_1
_geom_bond_atom_site_label_2
_ccdc_geom_bond_type
C27   C32   S    
C29   H11   S    
C54   C60   A    
O13   V3    S    
C5    C31   S    
O4    C2    A    
V1    O19   S    
C46   C54   A    
C55   C56   A    
C43   C49   A    
C6    C32   S    
C23   C25   A    
C21   C22   A    
C7    C9    S    
O9    V1    S    
C9    C15   A    
C36   C38   S    
C10   C16   A    
C11   C13   A    
C48   H23   S    
C12   H8    S    
C62   H33   S    
C15   H4    S    
C52   C56   A    
O12   V4    S    
C33   C61   S    
C31   C33   S    
C18   C22   A    
C30   C33   S    
C27   C29   S    
O7    C3    A    
C63   H37   S    
C28   C30   S    
O5    C7    A    
C13   H6    S    
O7    V1    S    
O6    C8    A    
C14   H5    S    
C29   C31   S    
O8    V2    S    
C25   H1    S    
C45   C53   A    
C34   C62   S    
C2    C39   S    
C26   H2    S    
O3    V1    S    
O14   V4    S    
C30   C32   S    
C11   C19   A    
C17   C19   A    
C61   H31   S    
C46   H26   S    
C27   C33   S    
C24   C26   A    
C8    C10   S    
C2    O12   A    
C10   C14   A    
C38   C64   S    
C35   C37   S    
C49   H22   S    
C24   H10   S    
C18   C20   A    
C36   C42   S    
C35   C41   S    
C41   H17   S    
O11   V3    S    
O17   V3    S    
C4    C44   S    
C40   C42   S    
C44   C48   A    
C62   H34   S    
C39   C41   S    
C43   C47   A    
C19   C25   A    
C1    O11   A    
O15   V3    S    
C9    C13   A    
C28   C31   S    
C30   H12   S    
C60   H20   S    
C49   C51   A    
C27   H13   S    
C57   H27   S    
O10   V2    S    
O1    V3    S    
C28   C34   S    
C52   C54   A    
C63   H35   S    
C45   H25   S    
C57   C59   A    
C58   C60   A    
C46   C48   A    
C58   H28   S    
C42   H18   S    
C36   C39   S    
C45   C47   A    
O8    C4    A    
C64   H38   S    
O16   C6    A    
C12   C20   A    
O1    C3    A    
O2    V4    S    
C12   C14   A    
C51   C55   A    
C55   C58   A    
C61   H29   S    
V2    O20   S    
C21   C24   A    
C20   C26   A    
C22   C23   A    
C35   H15   S    
O16   V4    S    
C37   C63   S    
O18   C8    A    
C38   C40   S    
C16   C18   A    
C38   C41   S    
C16   H3    S    
C37   C42   S    
O18   V4    S    
O5    V1    S    
O17   C7    A    
O6    V2    S    
O10   C6    A    
O3    C1    A    
C28   H14   S    
C11   H7    S    
O15   C5    A    
V3    O19   S    
C44   C50   A    
C62   H32   S    
V4    O20   S    
C50   C52   A    
C51   C53   A    
C64   H40   S    
C47   H24   S    
O9    C5    A    
O13   V1    S    
C35   C40   S    
O14   V2    S    
O2    C4    A    
C63   H36   S    
C23   H9    S    
O4    V2    S    
C50   H21   S    
C29   C34   S    
C15   C17   A    
C59   H19   S    
C56   C57   A    
C36   H16   S    
C3    C43   S    
C64   H39   S    
C17   C21   A    
C32   C34   S    
C37   C39   S    
C53   C59   A    
C1    C40   S    
C61   H30   S    
