data_str_m2_o10_o28_f0_pcu.sym.243
_audit_creation_date              2012-12-10T16:50:16-0500
_audit_creation_method            fapswitch 2.2
_symmetry_space_group_name_H-M    P1
_symmetry_Int_Tables_number       1
_space_group_crystal_system       triclinic
_cell_length_a                    23.491358
_cell_length_b                    8.680746
_cell_length_c                    7.43561
_cell_angle_alpha                 102.954883
_cell_angle_beta                  94.304615
_cell_angle_gamma                 92.351499
_cell_volume                      1470.9117945

loop_
_atom_site_label
_atom_site_type_symbol
_atom_type_description
_atom_site_fract_x
_atom_site_fract_y
_atom_site_fract_z
_atom_type_partial_charge
C1    C     C_R   0.498280 0.199654 0.453221 0.878746
C2    C     C_R   0.501719 0.800346 0.546779 0.878799
C3    C     C_R   0.232787 0.473492 0.348572 -0.229186
C4    C     C_R   0.767218 0.526939 0.651475 -0.229056
C5    C     C_R   0.291834 0.474036 0.341611 0.634777
C6    C     C_R   0.708171 0.526373 0.658425 0.634709
C7    C     C_R   0.328167 0.498339 0.506759 -0.287616
C8    C     C_R   0.671833 0.501706 0.493248 -0.287543
C9    C     C_R   0.303870 0.521578 0.677492 -0.336745
C10   C     C_R   0.696126 0.478139 0.322496 -0.336687
C11   C     C_R   0.244638 0.521265 0.683453 0.722571
C12   C     C_R   0.755358 0.478472 0.316545 0.722529
C13   C     C_R   0.209081 0.497205 0.518710 0.117342
C14   C     C_R   0.790920 0.502887 0.481318 0.117339
C15   C     C_2   0.497454 0.031788 0.426821 -0.339755
C16   C     C_2   0.502546 0.968212 0.573179 -0.339770
C17   C     C_R   0.390862 0.499334 0.502093 0.877098
C18   C     C_R   0.609138 0.500678 0.497909 0.877122
C19   C     C_R   0.883428 0.643297 0.519982 0.588651
C20   C     C_R   0.116576 0.356793 0.480052 0.588827
C21   C     C_R   0.876790 0.360170 0.441404 0.619179
C22   C     C_R   0.123213 0.639920 0.558636 0.618989
C23   C     C_R   0.936513 0.356305 0.449221 -0.035407
C24   C     C_R   0.063491 0.643785 0.550818 -0.035364
C25   C     C_R   0.969916 0.500475 0.494580 -0.010578
C26   C     C_R   0.030087 0.499615 0.505460 -0.010572
C27   C     C_R   0.943290 0.645499 0.529494 -0.028026
C28   C     C_R   0.056714 0.354590 0.470546 -0.028058
C29   C     C_R   0.963499 0.212399 0.414883 -0.150060
C30   C     C_R   0.036505 0.787691 0.585158 -0.150080
C31   C     C_R   0.023009 0.211546 0.425476 -0.162046
C32   C     C_R   0.976994 0.788543 0.574564 -0.162047
Cu1   Cu    Cu3+1 0.506340 0.517380 0.684380 1.007748
Cu2   Cu    Cu3+1 0.493660 0.482620 0.315620 1.007731
H1    H     H_    0.938757 0.100076 0.379840 0.196217
H2    H     H_    0.061246 0.900014 0.620200 0.196223
H3    H     H_    0.042465 0.098592 0.397792 0.187444
H4    H     H_    0.957539 0.901497 0.602247 0.187453
H5    H     H_    0.205185 0.455107 0.221287 0.226450
H6    H     H_    0.794822 0.545604 0.778784 0.226317
H7    H     H_    0.330623 0.540383 0.806526 0.243131
H8    H     H_    0.669369 0.459045 0.193438 0.242968
H9    H     H_    0.492655 0.960177 0.285767 0.183243
H10   H     H_    0.507345 0.039823 0.714233 0.183231
H11   H     H_    0.454905 0.379224 0.948621 0.240607
H12   H     H_    0.545095 0.620776 0.051379 0.240655
N1    N     N_R   0.851698 0.502123 0.477505 -0.437363
N2    N     N_R   0.148305 0.497967 0.522531 -0.437356
N3    N     N_2   0.484110 0.456420 0.038520 -0.206996
N4    N     N_2   0.515890 0.543580 0.961480 -0.206982
O1    O     O_R   0.504120 0.286130 0.619770 -0.589577
O2    O     O_R   0.495880 0.713870 0.380230 -0.589547
O3    O     O_R   0.493410 0.256770 0.308360 -0.583851
O4    O     O_R   0.506590 0.743230 0.691640 -0.583815
O5    O     O_R   0.423230 0.514630 0.655730 -0.601123
O6    O     O_R   0.576770 0.485370 0.344270 -0.601124
O7    O     O_R   0.412530 0.485280 0.344320 -0.514506
O8    O     O_R   0.587470 0.514720 0.655680 -0.514507
O9    O     O_2   0.857050 0.780799 0.553663 -0.494742
O10   O     O_2   0.142955 0.219293 0.446357 -0.494731
O11   O     O_2   0.844009 0.223488 0.400299 -0.482208
O12   O     O_2   0.155995 0.776601 0.599753 -0.482289
F1    F     F_    0.312931 0.450394 0.173143 -0.618272
F2    F     F_    0.687076 0.550372 0.826911 -0.618290
F3    F     F_    0.221807 0.543981 0.849023 -0.615120
F4    F     F_    0.778184 0.455429 0.150952 -0.615104

loop_
_geom_bond_atom_site_label_1
_geom_bond_atom_site_label_2
_ccdc_geom_bond_type
C22   O12   S    
Cu1   O5    S    
Cu2   O7    S    
C22   N2    A    
C30   H2    S    
Cu2   O6    S    
Cu1   O8    S    
C1    C15   S    
C32   H4    S    
C11   F3    S    
Cu1   O1    S    
C9    H7    S    
C2    C16   S    
C29   H1    S    
C17   O5    A    
C21   O11   S    
C3    C13   A    
H11   N3    S    
Cu1   O4    S    
C4    H6    S    
C7    C9    A    
Cu2   N3    S    
C23   C25   A    
Cu1   Cu2   S    
C25   C26   A    
C15   H9    S    
C29   C31   A    
C21   N1    A    
C30   C32   A    
C18   O6    A    
C9    C11   A    
C24   C26   A    
C20   N2    A    
C2    O2    A    
Cu1   N4    S    
C10   C12   A    
C8    C10   A    
C12   C14   A    
C19   N1    A    
C21   C23   A    
C4    C14   A    
C22   C24   A    
C20   O10   S    
C24   C30   A    
C25   C27   A    
C3    H5    S    
C15   C16   D    
C23   C29   A    
C11   C13   A    
C19   C27   A    
C1    O3    A    
C5    F1    S    
Cu2   O3    S    
C4    C6    A    
N3    N4    D    
C2    O4    A    
C1    O1    A    
C6    F2    S    
C12   F4    S    
C5    C7    A    
H12   N4    S    
C10   H8    S    
C6    C8    A    
Cu2   O2    S    
C20   C28   A    
C19   O9    S    
C27   C32   A    
C14   N1    S    
C26   C28   A    
C16   H10   S    
C28   C31   A    
C8    C18   S    
C31   H3    S    
C17   O7    A    
C18   O8    A    
C3    C5    A    
C13   N2    S    
C7    C17   S    
