data_str_m3_o14_o18_f0_pcu.sym.15
_audit_creation_date              2013-03-05T15:53:05-0500
_audit_creation_method            fapswitch 2.2
_symmetry_space_group_name_H-M    P1
_symmetry_Int_Tables_number       1
_space_group_crystal_system       triclinic
_cell_length_a                    10.016361
_cell_length_b                    10.721194
_cell_length_c                    15.334996
_cell_angle_alpha                 96.928607
_cell_angle_beta                  67.760251
_cell_angle_gamma                 95.284431
_cell_volume                      1511.21184298

loop_
_atom_site_label
_atom_site_type_symbol
_atom_site_description
_atom_site_fract_x
_atom_site_fract_y
_atom_site_fract_z
_atom_type_partial_charge
O1    O     O_R   0.385310 0.683220 0.500000 -0.645790
O2    O     O_R   0.614640 0.683250 0.500010 -0.538192
C1    C     C_R   0.509247 0.739614 0.495456 0.906973
O3    O     O_R   0.319840 0.499980 0.632240 -0.647897
O4    O     O_R   0.549160 0.500000 0.632250 -0.566180
C2    C     C_R   0.407474 0.492032 0.675642 0.923363
Zn1   Zn    Zn3+2 0.346880 0.499980 0.499990 1.002241
Zn2   Zn    Zn3+2 0.653120 0.500020 0.500010 1.016799
O5    O     O_R   0.385360 0.316750 0.499990 -0.547977
O6    O     O_R   0.614690 0.316780 0.500000 -0.623083
O7    O     O_R   0.450840 0.500000 0.367750 -0.594603
O8    O     O_R   0.680160 0.500020 0.367760 -0.628849
C3    C     C_R   0.498421 0.258587 0.491748 0.873239
C4    C     C_R   0.590862 0.494705 0.323755 0.867864
C5    C     C_R   0.344914 0.468611 0.776538 -0.096396
C6    C     C_R   0.644831 0.465099 0.221342 -0.085519
C7    C     C_R   0.157770 0.487665 0.933539 -0.176010
C8    C     C_R   0.199095 0.487923 0.836025 -0.020798
C9    C     C_R   0.436506 0.424743 0.814560 -0.174346
C10   C     C_R   0.396863 0.424592 0.912374 0.096645
C11   C     C_R   0.257656 0.463780 0.972092 0.175840
C12   C     C_R   0.495924 0.397220 0.952590 0.078668
C13   C     C_R   0.462666 0.431184 0.050125 0.090647
C14   C     C_R   0.321246 0.466011 0.108291 -0.202700
C15   C     C_R   0.219623 0.479549 0.069693 -0.144056
C16   C     C_R   0.627114 0.338836 0.899200 -0.178824
C17   C     C_R   0.723184 0.316683 0.941040 -0.144040
C18   C     C_R   0.695500 0.357592 0.036302 0.023641
C19   C     C_R   0.570270 0.425630 0.087734 0.090046
C20   C     C_R   0.789402 0.334228 0.081948 0.287245
C21   C     C_R   0.762803 0.389479 0.174578 -0.267423
C22   C     C_R   0.555352 0.487891 0.175670 -0.200280
H1    H     H_    0.112258 0.506544 0.116259 0.153568
H2    H     H_    0.469993 0.551942 0.211877 0.136525
H3    H     H_    0.827730 0.366204 0.212469 0.188565
H4    H     H_    0.821628 0.271583 0.896772 0.200345
H5    H     H_    0.048058 0.508876 0.979741 0.140386
H6    H     H_    0.543484 0.400915 0.766841 0.175295
H7    H     H_    0.284995 0.478876 0.184580 0.158711
H8    H     H_    0.655423 0.303927 0.825809 0.161804
C23   C     C_R   0.485511 0.826372 0.330892 -0.118780
H9    H     H_    0.513949 0.730103 0.323036 0.130718
C24   C     C_R   0.452647 0.866997 0.259473 -0.201790
H10   H     H_    0.450375 0.801774 0.200302 0.163417
C25   C     C_R   0.418277 0.990498 0.265759 -0.124238
H11   H     H_    0.382891 0.018905 0.212862 0.189282
C26   C     C_R   0.418375 0.075259 0.342941 0.335658
C27   C     C_R   0.464665 0.038917 0.412972 -0.026322
C28   C     C_R   0.491892 0.910602 0.407540 0.046671
C29   C     C_R   0.536744 0.869566 0.474913 -0.206158
C30   C     C_R   0.595008 0.956148 0.528146 0.338549
H12   H     H_    0.584041 0.142364 0.593441 0.201646
C31   C     C_R   0.551910 0.077475 0.544040 -0.259638
C32   C     C_R   0.490837 0.122050 0.486400 -0.142303
H13   H     H_    0.929738 0.365849 0.383132 0.154115
C33   C     C_R   0.819929 0.690331 0.628688 0.362597
C34   C     C_R   0.888494 0.788192 0.670432 -0.021583
C35   C     C_R   0.026702 0.777942 0.664735 -0.299525
H14   H     H_    0.074302 0.845487 0.704716 0.181761
C36   C     C_R   0.098568 0.672884 0.618414 -0.112834
H15   H     H_    0.193878 0.662508 0.630797 0.221164
C37   C     C_R   0.048474 0.585572 0.560821 0.131734
C38   C     C_R   0.903409 0.589337 0.562598 0.026617
N1    N     N_R   0.856800 0.501200 0.500850 -0.113699
C39   C     C_R   0.957791 0.426210 0.436130 -0.078176
H16   H     H_    0.179582 0.380685 0.375571 0.221002
C40   C     C_R   0.100838 0.430439 0.434125 -0.010762
N2    N     N_R   0.142390 0.501280 0.500880 -0.115417
N3    N     N_R   0.900686 0.244912 0.040465 0.196981
O9    O     O_R   0.011116 0.253484 0.066241 -0.400187
O10   O     O_R   0.876712 0.140568 0.994557 -0.382498
N4    N     N_R   0.720218 0.931677 0.546560 0.236700
O11   O     O_R   0.761154 0.011038 0.603849 -0.408203
O12   O     O_R   0.816478 0.859325 0.485057 -0.379262
N5    N     N_R   0.343442 0.185803 0.357233 0.184235
O13   O     O_R   0.213281 0.186698 0.421099 -0.382461
O14   O     O_R   0.377768 0.255501 0.287352 -0.455450
N6    N     N_R   0.670008 0.677702 0.682936 0.207913
O15   O     O_R   0.583775 0.756362 0.676210 -0.407265
O16   O     O_R   0.634973 0.632222 0.764035 -0.439316
C41   C     C_1   0.807838 0.885148 0.739854 0.414818
N7    N     N_1   0.743705 0.962252 0.795725 -0.135082
C42   C     C_1   0.086599 0.502149 0.801446 0.197771
N8    N     N_1   0.993383 0.511321 0.775909 -0.187846

loop_
_geom_bond_atom_site_label_1
_geom_bond_atom_site_label_2
_geom_bond_distance
_ccdc_geom_bond_type
C5    C8    1.417702 A    
C23   H9    1.076616 S    
C9    C10   1.399004 A    
N5    O13   1.300961 A    
C41   N7    1.157758 T    
C31   C32   1.396053 A    
C6    C21   1.400920 A    
C27   C32   1.438507 A    
C8    C42   1.441385 S    
C16   C17   1.392939 A    
C13   C19   1.410121 A    
C18   C19   1.417189 A    
C19   C22   1.391042 A    
C20   C21   1.406856 A    
O7    C4    1.309423 A    
N6    O16   1.300760 A    
C35   C36   1.364055 A    
C14   H7    1.080851 S    
C33   N6    1.417558 S    
C33   C34   1.421361 A    
C36   C37   1.399117 A    
N3    O10   1.301237 A    
O5    C3    1.300001 A    
C2    C5    1.476653 S    
C26   C27   1.425214 A    
C39   C40   1.418089 A    
C13   C14   1.414989 A    
H16   C40   1.067126 S    
Zn1   N2    2.044441 S    
C23   C24   1.382718 A    
O3    Zn1   1.941796 S    
C23   C28   1.411129 A    
H13   C39   1.082005 S    
C1    C29   1.444211 S    
C29   C30   1.395224 A    
C25   C26   1.402822 A    
C40   N2    1.369191 A    
C14   C15   1.382580 A    
N4    O12   1.301447 A    
N6    O15   1.300192 A    
C35   H14   1.085455 S    
C25   H11   1.083279 S    
C7    C11   1.395553 A    
C36   H15   1.059089 S    
C30   C31   1.372979 A    
C22   H2    1.080584 S    
C5    C9    1.397624 A    
C24   H10   1.082800 S    
C37   C38   1.447144 A    
C9    H6    1.077357 S    
N5    O14   1.300739 A    
Zn1   O7    1.896919 S    
C42   N8    1.156613 T    
Zn2   O8    1.941793 S    
C7    C8    1.392747 A    
C33   C38   1.469438 A    
C7    H5    1.085864 S    
C24   C25   1.381684 A    
Zn2   N1    2.043909 S    
O3    C2    1.300172 A    
C27   C28   1.413538 A    
C10   C12   1.418262 A    
C21   H3    1.083403 S    
C30   N4    1.438060 S    
C20   N3    1.441174 S    
H12   C31   1.085181 S    
C3    C32   1.452789 S    
Zn1   O5    2.036433 S    
C11   C15   1.390344 A    
O1    Zn1   1.966803 S    
O2    Zn2   2.036435 S    
O8    C4    1.302638 A    
N4    O11   1.300740 A    
O6    C3    1.311569 A    
O4    Zn2   1.896918 S    
C17   H4    1.081135 S    
C6    C22   1.382152 A    
C37   N2    1.359474 A    
N1    C39   1.360876 A    
C18   C20   1.421771 A    
O2    C1    1.291489 A    
C26   N5    1.411619 S    
C16   H8    1.078647 S    
C34   C35   1.367578 A    
O4    C2    1.319349 A    
C4    C6    1.458819 S    
N3    O9    1.300629 A    
C34   C41   1.450241 S    
C38   N1    1.430025 A    
C10   C11   1.416994 A    
Zn2   O6    1.966802 S    
C28   C29   1.400094 A    
C12   C16   1.415040 A    
C17   C18   1.401609 A    
C12   C13   1.412260 A    
O1    C1    1.310691 A    
C15   H1    1.084598 S    
