data_str_m2_o9_o18_f0_pcu.sym.89
_audit_creation_date              2012-12-10T19:45:49-0500
_audit_creation_method            fapswitch 2.2
_symmetry_space_group_name_H-M    P1
_symmetry_Int_Tables_number       1
_space_group_crystal_system       triclinic
_cell_length_a                    11.109106
_cell_length_b                    14.890346
_cell_length_c                    15.474713
_cell_angle_alpha                 63.551611
_cell_angle_beta                  106.826357
_cell_angle_gamma                 101.540712
_cell_volume                      2186.18926492

loop_
_atom_site_label
_atom_site_type_symbol
_atom_type_description
_atom_site_fract_x
_atom_site_fract_y
_atom_site_fract_z
_atom_type_partial_charge
C1    C     C_R   0.482064 0.119959 0.314233 0.813045
C2    C     C_R   0.516390 0.880157 0.685574 0.787404
C3    C     C_R   0.875220 0.986707 0.516728 -0.159656
C4    C     C_R   0.131714 0.994030 0.511386 -0.163331
C5    C     C_R   0.917136 0.910911 0.503315 -0.080974
C6    C     C_R   0.088659 0.068695 0.525779 -0.093968
C7    C     C_R   0.474993 0.189530 0.209241 -0.067849
C8    C     C_R   0.518765 0.811124 0.790077 -0.077984
C9    C     C_R   0.433914 0.218309 0.037304 -0.082744
C10   C     C_R   0.553140 0.783271 0.961269 -0.083643
C11   C     C_R   0.460272 0.153445 0.137350 -0.150912
C12   C     C_R   0.534793 0.848304 0.861371 -0.185274
C13   C     C_R   0.484760 0.293744 0.180567 -0.219582
C14   C     C_R   0.501892 0.706719 0.818643 -0.215930
C15   C     C_R   0.475323 0.361923 0.080327 0.059566
C16   C     C_R   0.507367 0.639086 0.918599 0.058293
C17   C     C_R   0.434416 0.322660 0.007543 0.017234
C18   C     C_R   0.547618 0.678484 0.991477 0.012959
C19   C     C_R   0.502950 0.467628 0.050454 0.008142
C20   C     C_R   0.477338 0.533524 0.948265 0.006239
C21   C     C_R   0.417111 0.492428 0.879038 -0.312714
C22   C     C_R   0.561727 0.508642 0.119742 -0.291540
C23   C     C_R   0.263758 0.998869 0.502943 0.843241
C24   C     C_R   0.738385 0.995270 0.505984 0.826630
C25   C     C_R   0.395724 0.388857 0.907526 0.398727
C26   C     C_R   0.581892 0.612009 0.091975 0.414855
C27   C     C_R   0.675712 0.267601 0.687042 -0.316065
C28   C     C_R   0.315693 0.733043 0.313285 -0.283127
C29   C     C_R   0.664545 0.194825 0.651883 0.583264
C30   C     C_R   0.333090 0.806934 0.348079 0.541058
C31   C     C_R   0.526643 0.291754 0.501979 -0.081755
C32   C     C_R   0.468366 0.706294 0.498164 -0.063758
C33   C     C_R   0.541275 0.369981 0.535217 -0.028857
C34   C     C_R   0.443527 0.626164 0.466481 -0.022329
C35   C     C_R   0.611688 0.352101 0.632126 0.033802
C36   C     C_R   0.370919 0.644306 0.370204 0.046780
C37   C     C_R   0.483250 0.462129 0.479383 0.032009
C38   C     C_R   0.494452 0.531487 0.523695 0.048873
C39   C     C_R   0.555335 0.503892 0.623819 -0.128091
C40   C     C_R   0.412894 0.486497 0.381727 -0.223690
C41   C     C_R   0.615592 0.416597 0.676318 -0.050049
C42   C     C_R   0.354413 0.574783 0.329394 -0.073980
C43   C     C_R   0.323155 0.225567 0.641283 -0.122814
C44   C     C_R   0.692798 0.788303 0.348547 -0.082602
C45   C     C_R   0.267888 0.144664 0.618517 -0.137619
C46   C     C_R   0.759036 0.861799 0.379793 -0.143547
C47   C     C_R   0.167441 0.157622 0.535694 0.112160
C48   C     C_R   0.829338 0.834202 0.477463 0.123547
C49   C     C_R   0.121596 0.253161 0.477118 -0.200510
C50   C     C_R   0.833286 0.732355 0.543705 -0.183878
C51   C     C_R   0.172277 0.333849 0.503640 0.265050
C52   C     C_R   0.780970 0.657641 0.508365 0.248749
C53   C     C_R   0.274303 0.319350 0.585483 -0.065481
C54   C     C_R   0.706053 0.686893 0.411716 -0.098760
C55   C     C_R   0.969199 0.052138 0.546915 0.169465
C56   C     C_R   0.047012 0.909254 0.511241 0.205661
Cu1   Cu    Cu3+1 0.466270 0.918260 0.475690 1.011724
Cu2   Cu    Cu3+1 0.533730 0.081740 0.524310 1.001441
H1    H     H_    0.316605 0.381198 0.605227 0.221929
H2    H     H_    0.656742 0.630243 0.386424 0.205085
H3    H     H_    0.416156 0.185939 0.984205 0.216193
H4    H     H_    0.569939 0.816154 0.013835 0.215210
H5    H     H_    0.384073 0.540059 0.801887 0.181716
H6    H     H_    0.594574 0.460802 0.196604 0.167408
H7    H     H_    0.665886 0.399340 0.752588 0.152962
H8    H     H_    0.299063 0.590410 0.254621 0.162972
H9    H     H_    0.533959 0.701135 0.566567 0.142354
H10   H     H_    0.464171 0.295890 0.432888 0.147075
H11   H     H_    0.733506 0.256977 0.760262 0.206894
H12   H     H_    0.257022 0.744785 0.240102 0.207920
H13   H     H_    0.558776 0.548881 0.663268 0.130418
H14   H     H_    0.401157 0.438944 0.343493 0.133623
H15   H     H_    0.403385 0.213893 0.703106 0.206406
H16   H     H_    0.635012 0.810968 0.274196 0.216298
H17   H     H_    0.300569 0.070844 0.667810 0.142515
H18   H     H_    0.756418 0.940252 0.327951 0.138883
H19   H     H_    0.041363 0.262777 0.414886 0.146291
H20   H     H_    0.887810 0.712914 0.618934 0.136198
H21   H     H_    0.489132 0.679384 0.762461 0.152398
H22   H     H_    0.495742 0.320198 0.237109 0.146691
H23   H     H_    0.534594 0.927786 0.840067 0.207626
H24   H     H_    0.467868 0.075011 0.158365 0.201908
N1    N     N_R   0.584450 0.204570 0.560790 -0.249530
N2    N     N_R   0.415550 0.795430 0.439210 -0.252193
O1    O     O_R   0.455540 0.022090 0.338120 -0.519434
O2    O     O_R   0.544460 0.977910 0.661880 -0.532945
O3    O     O_R   0.512510 0.160150 0.379180 -0.611108
O4    O     O_R   0.487490 0.839850 0.620820 -0.605968
O5    O     O_R   0.291160 0.930970 0.479480 -0.493854
O6    O     O_R   0.708840 0.069030 0.520520 -0.519244
O7    O     O_R   0.348130 0.069020 0.520540 -0.606224
O8    O     O_R   0.651870 0.930980 0.479460 -0.598784
S1    S     S_3+6 0.235918 0.907846 0.262467 0.001710
O9    O     O_2   0.286331 0.959676 0.170405 -0.312406
O10   O     O_2   0.106445 0.860674 0.233805 -0.297958
O11   O     O_3   0.216990 0.994811 0.297275 -0.524557
H25   H     H_    0.164932 0.044106 0.237729 0.365821
S2    S     S_3+6 0.759341 0.094972 0.739954 0.000365
O12   O     O_2   0.890213 0.142912 0.762555 -0.295872
O13   O     O_2   0.712427 0.051161 0.833608 -0.331279
O14   O     O_3   0.769287 0.001053 0.711368 -0.510149
H26   H     H_    0.778866 0.940148 0.774803 0.352506
N3    N     N_2   0.120134 0.428793 0.449336 -0.427177
H27   H     H_    0.177915 0.487174 0.462189 0.264107
C57   C     C_3   0.992114 0.428168 0.454930 -0.608999
H28   H     H_    0.960251 0.505252 0.410995 0.267920
H29   H     H_    0.987639 0.403830 0.533169 0.230963
H30   H     H_    0.926960 0.377178 0.424005 0.227664
N4    N     N_2   0.806039 0.554322 0.565512 -0.426845
H31   H     H_    0.785571 0.511283 0.525284 0.262990
C58   C     C_3   0.918372 0.528795 0.644835 -0.709498
H32   H     H_    0.927054 0.446569 0.676402 0.246416
H33   H     H_    0.911677 0.546643 0.705584 0.231863
H34   H     H_    0.003641 0.569371 0.616313 0.226452
N5    N     N_2   0.955682 0.081700 0.619111 -0.345010
H35   H     H_    0.945766 0.157338 0.593197 0.276676
C59   C     C_3   0.042704 0.039462 0.715987 -0.434046
H36   H     H_    0.103546 0.100725 0.733715 0.240331
H37   H     H_    0.103074 0.985797 0.720130 0.160008
H38   H     H_    0.991554 0.996032 0.775541 0.264091
N6    N     N_2   0.094764 0.818842 0.529075 -0.440630
H39   H     H_    0.095474 0.760686 0.597953 0.230182
C60   C     C_3   0.070071 0.789772 0.447613 -0.445807
H40   H     H_    0.159111 0.770530 0.444692 0.228645
H41   H     H_    0.029435 0.850888 0.376269 0.271093
H42   H     H_    0.004863 0.720942 0.459865 0.195835
S3    S     S_3+6 0.319405 0.345444 0.815154 -0.054792
O15   O     O_2   0.419234 0.306679 0.796411 -0.351618
O16   O     O_2   0.220066 0.261426 0.849575 -0.267864
O17   O     O_3   0.252636 0.439230 0.710397 -0.577132
H43   H     H_    0.181476 0.454619 0.726675 0.345851
S4    S     S_3+6 0.651085 0.653829 0.186568 -0.047224
O18   O     O_2   0.748802 0.740225 0.155145 -0.237206
O19   O     O_2   0.546982 0.688253 0.205396 -0.384890
O20   O     O_3   0.720649 0.560203 0.290346 -0.561303
H44   H     H_    0.651100 0.516551 0.320990 0.326177

loop_
_geom_bond_atom_site_label_1
_geom_bond_atom_site_label_2
_ccdc_geom_bond_type
C1    O3    A    
C43   H15   S    
S1    O9    D    
Cu1   O8    S    
C27   C29   A    
C5    C56   A    
C36   C42   A    
C58   H32   S    
C18   C26   A    
C6    C55   A    
Cu2   O3    S    
C46   H18   S    
C53   H1    S    
O20   H44   S    
C39   C41   A    
C54   H2    S    
C7    C11   A    
C57   H29   S    
O14   H26   S    
Cu1   O5    S    
C29   S2    S    
C9    H3    S    
C29   N1    A    
C37   C40   A    
C59   H37   S    
C38   C39   A    
C60   H41   S    
C51   N3    S    
N5    H35   S    
Cu2   O2    S    
C31   N1    A    
C3    C55   A    
N3    C57   S    
C19   C20   A    
C27   C35   A    
C44   C46   A    
S4    O18   D    
C49   C51   A    
C50   C52   A    
C23   O5    A    
C2    O4    A    
C14   C16   A    
Cu2   O7    S    
C27   H11   S    
C8    C12   A    
C40   C42   A    
C13   H22   S    
S1    O10   D    
C1    C7    S    
C4    C56   A    
C3    C24   S    
C10   H4    S    
C24   O8    A    
C47   C49   A    
C5    C48   S    
C52   C54   A    
C45   C47   A    
C11   H24   S    
C1    O1    A    
C31   H10   S    
C32   N2    A    
C57   H30   S    
C46   C48   A    
N6    C60   S    
C6    C47   S    
C60   H40   S    
C19   C22   A    
C4    C6    A    
N4    H31   S    
C59   H38   S    
C4    C23   S    
C60   H42   S    
C41   H7    S    
N5    C59   S    
C43   C53   A    
C33   C37   A    
C51   C53   A    
C32   C34   A    
C15   C19   A    
S3    O16   D    
C37   C38   A    
C43   C45   A    
C16   C20   A    
O11   H25   S    
C31   C33   A    
Cu1   N2    S    
C58   H33   S    
C16   C18   A    
C14   H21   S    
C44   H16   S    
C48   C50   A    
C9    C11   A    
N6    H39   S    
C10   C12   A    
Cu2   O6    S    
C32   H9    S    
C9    C17   A    
S1    O11   S    
S2    O13   D    
C13   C15   A    
C23   O7    A    
S3    O15   D    
C50   H20   S    
C26   S4    S    
C15   C17   A    
C21   C25   A    
C8    C14   A    
C40   H14   S    
C34   C38   A    
C28   H12   S    
C3    C5    A    
C24   O6    A    
C30   S1    S    
S2    O14   S    
C57   H28   S    
Cu1   O4    S    
C45   H17   S    
C17   C25   A    
C56   N6    S    
N4    C58   S    
O17   H43   S    
C25   S3    S    
S3    O17   S    
C59   H36   S    
Cu1   Cu2   S    
C55   N5    S    
C52   N4    S    
C10   C18   A    
S4    O20   S    
C28   C30   A    
C33   C35   A    
C49   H19   S    
C12   H23   S    
C2    O2    A    
C58   H34   S    
C34   C36   A    
C30   N2    A    
C35   C41   A    
C21   H5    S    
C22   H6    S    
C44   C54   A    
C7    C13   A    
C20   C21   A    
C28   C36   A    
S4    O19   D    
S2    O12   D    
C22   C26   A    
C2    C8    S    
N3    H27   S    
C42   H8    S    
C39   H13   S    
Cu2   N1    S    
Cu1   O1    S    
