data_str_m2_o14_o16_f0_pcu.sym.216
_audit_creation_date              2013-03-05T15:50:33-0500
_audit_creation_method            fapswitch 2.2
_symmetry_space_group_name_H-M    P1
_symmetry_Int_Tables_number       1
_space_group_crystal_system       triclinic
_cell_length_a                    9.576877
_cell_length_b                    10.86264
_cell_length_c                    13.453492
_cell_angle_alpha                 92.467606
_cell_angle_beta                  73.397154
_cell_angle_gamma                 89.890588
_cell_volume                      1339.82741123

loop_
_atom_site_label
_atom_site_type_symbol
_atom_site_description
_atom_site_fract_x
_atom_site_fract_y
_atom_site_fract_z
_atom_type_partial_charge
O1    O     O_R   0.381190 0.680360 0.500010 -0.590383
O2    O     O_R   0.618760 0.680340 0.500000 -0.586001
C1    C     C_R   0.501542 0.737330 0.493136 0.806644
O3    O     O_R   0.323240 0.499990 0.650990 -0.566663
O4    O     O_R   0.560820 0.499960 0.650980 -0.584242
C2    C     C_R   0.422776 0.503526 0.699778 0.782633
Cu1   Cu    Cu3+1 0.359340 0.500010 0.500010 0.964882
Cu2   Cu    Cu3+1 0.640660 0.499990 0.499990 0.941186
O5    O     O_R   0.381240 0.319660 0.500000 -0.622980
O6    O     O_R   0.618810 0.319640 0.499990 -0.600875
O7    O     O_R   0.439180 0.500040 0.349020 -0.557647
O8    O     O_R   0.676760 0.500010 0.349010 -0.599457
C3    C     C_R   0.496285 0.262838 0.507314 0.778080
C4    C     C_R   0.576649 0.508474 0.300920 0.829251
C5    C     C_R   0.795633 0.585529 0.029083 0.338183
H1    H     H_    0.846991 0.544946 0.170360 0.220085
H2    H     H_    0.797677 0.681623 0.841885 0.185797
C6    C     C_R   0.616269 0.530636 0.189245 -0.219522
C7    C     C_R   0.257782 0.427309 0.860012 -0.088299
C8    C     C_R   0.229886 0.395577 0.962618 -0.101767
C9    C     C_R   0.324356 0.431957 0.019439 -0.111289
C10   C     C_R   0.443859 0.508082 0.976668 0.118131
C11   C     C_R   0.472106 0.541401 0.872562 0.095029
C12   C     C_R   0.544217 0.541423 0.032098 -0.069709
C13   C     C_R   0.684060 0.583599 0.978666 0.011000
C14   C     C_R   0.702668 0.629914 0.880077 -0.144729
C15   C     C_R   0.594186 0.615086 0.830465 -0.200485
C16   C     C_R   0.505385 0.542297 0.140375 0.254667
C17   C     C_R   0.761475 0.550080 0.132511 -0.296832
C18   C     C_R   0.380074 0.497227 0.813182 -0.093829
H3    H     H_    0.188205 0.390638 0.815291 0.161579
H4    H     H_    0.308293 0.393257 0.094373 0.164066
H5    H     H_    0.138827 0.337102 0.996605 0.142012
H6    H     H_    0.609401 0.659167 0.757790 0.152813
H7    H     H_    0.723679 0.888401 0.490180 0.162712
C19   C     C_R   0.251112 0.884006 0.459319 -0.116936
H8    H     H_    0.260272 0.796838 0.416285 0.211954
C20   C     C_R   0.116834 0.945097 0.482320 -0.148841
H9    H     H_    0.026078 0.901787 0.462398 0.144104
C21   C     C_R   0.098509 0.060081 0.533721 -0.145498
H10   H     H_    0.992432 0.105110 0.556695 0.137642
C22   C     C_R   0.218059 0.119015 0.552601 -0.158727
H11   H     H_    0.196997 0.206409 0.595898 0.162097
C23   C     C_R   0.359093 0.063640 0.518963 0.094036
C24   C     C_R   0.370190 0.937770 0.487577 0.089565
C25   C     C_R   0.499327 0.871674 0.486625 -0.103468
C26   C     C_R   0.623092 0.936189 0.493078 -0.199338
H12   H     H_    0.720216 0.110528 0.500235 0.165308
C27   C     C_R   0.619946 0.063385 0.502113 -0.210708
C28   C     C_R   0.489546 0.128677 0.514272 -0.109573
H13   H     H_    0.825713 0.645435 0.612241 0.125783
C29   C     C_R   0.910076 0.333128 0.364605 -0.149682
H14   H     H_    0.803734 0.328621 0.355596 0.200933
C30   C     C_R   0.008133 0.249304 0.300214 -0.210705
H15   H     H_    0.972634 0.185920 0.248288 0.161974
C31   C     C_R   0.151610 0.247948 0.301084 -0.190637
H16   H     H_    0.228477 0.183704 0.249666 0.158787
C32   C     C_R   0.197954 0.330700 0.366086 -0.077221
H17   H     H_    0.311573 0.325336 0.356821 0.189989
C33   C     C_R   0.101148 0.416390 0.434613 0.239662
C34   C     C_R   0.951636 0.417100 0.434128 0.214241
N1    N     N_R   0.852480 0.498790 0.499000 -0.200100
C35   C     C_R   0.901118 0.579646 0.561961 -0.049807
H18   H     H_    0.084024 0.644838 0.612746 0.157795
C36   C     C_R   0.049078 0.579558 0.562018 -0.046437
N2    N     N_R   0.148360 0.498710 0.498970 -0.205416
N3    N     N_R   0.943175 0.618436 0.976856 0.115681
O9    O     O_R   0.000618 0.588950 0.878872 -0.411186
O10   O     O_R   0.026512 0.664572 0.029932 -0.325175
N4    N     N_R   0.371132 0.604394 0.196044 0.153057
O11   O     O_R   0.251316 0.544604 0.232408 -0.376930
O12   O     O_R   0.369354 0.723754 0.209316 -0.360263

loop_
_geom_bond_atom_site_label_1
_geom_bond_atom_site_label_2
_geom_bond_distance
_ccdc_geom_bond_type
O4    Cu2   1.955362 S    
C20   C21   1.387272 A    
C35   C36   1.417218 A    
C6    C16   1.407716 A    
N4    O11   1.298928 A    
C11   C15   1.411569 A    
C12   C16   1.396280 A    
C22   H11   1.079687 S    
C4    C6    1.471359 S    
C1    C25   1.466194 S    
C16   N4    1.439409 S    
C7    C8    1.387907 A    
Cu2   O8    1.960629 S    
C5    N3    1.440217 S    
H18   C36   1.081836 S    
C29   C30   1.387566 A    
C21   C22   1.392898 A    
O2    C1    1.308985 A    
C13   C14   1.402449 A    
C7    H3    1.083584 S    
C19   C24   1.420315 A    
C26   C27   1.381315 A    
C6    C17   1.403374 A    
O1    Cu1   1.970619 S    
C24   C25   1.425453 A    
C8    C9    1.389119 A    
Cu1   N2    2.024645 S    
Cu1   O7    1.955362 S    
C7    C18   1.402980 A    
C14   C15   1.392291 A    
N1    C35   1.367063 A    
C22   C23   1.419528 A    
C19   H8    1.078386 S    
O3    Cu1   1.960629 S    
H2    C14   1.080291 S    
C19   C20   1.393374 A    
C21   H10   1.082799 S    
C2    C18   1.467026 S    
O8    C4    1.305949 A    
C5    C17   1.406401 A    
C30   C31   1.377499 A    
C29   C34   1.416314 A    
C31   C32   1.387594 A    
C15   H6    1.079644 S    
O4    C2    1.296876 A    
Cu2   O6    1.970618 S    
C9    H4    1.079271 S    
C10   C12   1.413750 A    
C5    C13   1.419602 A    
C34   N1    1.381064 A    
C8    H5    1.082719 S    
N3    O10   1.301689 A    
C33   N2    1.382856 A    
N3    O9    1.300585 A    
C11   C18   1.419950 A    
Cu1   O5    1.969864 S    
Cu1   Cu2   2.694089 S    
H13   C35   1.080286 S    
C12   C13   1.414483 A    
O3    C2    1.302489 A    
C27   C28   1.399723 A    
C25   C26   1.400110 A    
C23   C28   1.423407 A    
O7    C4    1.295794 A    
C31   H16   1.083009 S    
O5    C3    1.291951 A    
C30   H15   1.082987 S    
H12   C27   1.083573 S    
N4    O12   1.300583 A    
O2    Cu2   1.969865 S    
H1    C17   1.083375 S    
C9    C10   1.411721 A    
C32   H17   1.060452 S    
C32   C33   1.417827 A    
C36   N2    1.366226 A    
C10   C11   1.411847 A    
H7    C26   1.083441 S    
C23   C24   1.408233 A    
C3    C28   1.464727 S    
Cu2   N1    2.024822 S    
C29   H14   1.060423 S    
C33   C34   1.433751 A    
O1    C1    1.291026 A    
O6    C3    1.307380 A    
C20   H9    1.082790 S    
