data_str_m2_o4_o17_f0_pcu.sym.241
_audit_creation_date              2012-12-10T19:00:48-0500
_audit_creation_method            fapswitch 2.2
_symmetry_space_group_name_H-M    P1
_symmetry_Int_Tables_number       1
_space_group_crystal_system       triclinic
_cell_length_a                    14.986706
_cell_length_b                    10.865088
_cell_length_c                    9.687556
_cell_angle_alpha                 89.677577
_cell_angle_beta                  89.145863
_cell_angle_gamma                 97.490575
_cell_volume                      1563.76217537

loop_
_atom_site_label
_atom_site_type_symbol
_atom_type_description
_atom_site_fract_x
_atom_site_fract_y
_atom_site_fract_z
_atom_type_partial_charge
C1    C     C_R   0.502895 0.263473 0.500243 0.858992
C2    C     C_R   0.915742 0.613118 0.553560 0.004019
C3    C     C_R   0.935162 0.298152 0.403363 0.413869
C4    C     C_R   0.027913 0.298126 0.410420 -0.194535
C5    C     C_R   0.083428 0.401428 0.459167 0.025565
C6    C     C_R   0.046802 0.507761 0.504780 0.063895
C7    C     C_R   0.104220 0.613472 0.549544 0.008811
C8    C     C_R   0.067368 0.720584 0.593143 -0.153056
C9    C     C_R   0.972632 0.717822 0.604482 0.394573
C10   C     C_R   0.175858 0.399630 0.460949 -0.099721
C11   C     C_R   0.232766 0.503543 0.502825 -0.050169
C12   C     C_R   0.329276 0.501572 0.500858 0.879061
C13   C     C_R   0.197853 0.609658 0.546695 -0.200427
C14   C     C_R   0.520820 0.064066 0.616635 0.124494
C15   C     C_R   0.503533 0.130441 0.499061 -0.099001
C16   C     C_R   0.485762 0.062419 0.376395 -0.174357
C17   C     C_R   0.484550 0.933112 0.375883 -0.118846
C18   C     C_R   0.501934 0.869588 0.497888 -0.087105
C19   C     C_R   0.519814 0.939509 0.615875 -0.001480
C20   C     C_3   0.551293 0.931959 0.760811 -0.221630
C21   C     C_3   0.552610 0.075385 0.762358 -0.313856
C22   C     C_R   0.559570 0.580987 0.071009 0.185646
C23   C     C_R   0.501416 0.736964 0.499524 0.788589
C24   C     C_R   0.435040 0.422558 0.078756 0.329724
C25   C     C_R   0.431764 0.426596 0.927946 0.326236
C26   C     C_R   0.560580 0.578418 0.925444 0.102301
C27   C     C_3   0.660176 0.586146 0.916628 -0.473620
C28   C     C_3   0.660158 0.590184 0.073566 0.245027
C29   C     C_R   0.670953 0.504499 0.499163 0.798033
C30   C     C_R   0.821734 0.610076 0.550300 -0.080279
C31   C     C_R   0.767577 0.507756 0.497644 -0.093011
C32   C     C_R   0.804404 0.406597 0.446319 -0.158100
C33   C     C_R   0.897169 0.403506 0.449995 0.015421
C34   C     C_R   0.953309 0.508411 0.502695 -0.032196
Cu1   Cu    Cu3+1 0.500000 0.499980 0.640670 1.024504
Cu2   Cu    Cu3+1 0.500000 0.500020 0.359330 1.067277
H1    H     H_    0.788859 0.687560 0.584162 0.197973
H2    H     H_    0.470270 0.883670 0.280322 0.215990
H3    H     H_    0.619365 0.901972 0.765587 0.186735
H4    H     H_    0.621611 0.126762 0.768801 0.145137
H5    H     H_    0.683042 0.500090 0.875299 0.187348
H6    H     H_    0.689846 0.672902 0.863720 0.252679
H7    H     H_    0.684730 0.508046 0.121756 0.107524
H8    H     H_    0.758913 0.330004 0.406732 0.186854
H9    H     H_    0.057586 0.217770 0.375535 0.216039
H10   H     H_    0.202979 0.316614 0.430510 0.188566
H11   H     H_    0.244958 0.688184 0.578034 0.112179
H12   H     H_    0.473045 0.108357 0.280790 0.213913
N1    N     N_R   0.500570 0.500930 0.147930 -0.303561
N2    N     N_R   0.500570 0.500890 0.852020 -0.269705
O1    O     O_R   0.500000 0.319640 0.618810 -0.556122
O2    O     O_R   0.500010 0.319680 0.381230 -0.542373
O3    O     O_R   0.370250 0.499950 0.618800 -0.500970
O4    O     O_R   0.370260 0.499990 0.381220 -0.511920
O5    O     O_R   0.499990 0.680320 0.618770 -0.613224
O6    O     O_R   0.500000 0.680360 0.381190 -0.545840
O7    O     O_R   0.629740 0.500010 0.618780 -0.598390
O8    O     O_R   0.629750 0.500050 0.381200 -0.570355
C35   C     C_2   0.482588 0.857370 0.853891 0.530668
H13   H     H_    0.421101 0.808689 0.812112 0.089341
O9    O     O_2   0.495040 0.852600 0.977845 -0.518296
C36   C     C_2   0.486077 0.124276 0.858445 0.569425
H14   H     H_    0.509917 0.192696 0.935023 0.026657
O10   O     O_2   0.405866 0.086324 0.852648 -0.447296
S1    S     S_3+6 0.351880 0.310466 0.168872 0.073089
O11   O     O_2   0.261089 0.349141 0.140480 -0.223045
O12   O     O_2   0.360398 0.186326 0.105994 -0.279439
O13   O     O_3   0.346308 0.278539 0.338103 -0.536903
H15   H     H_    0.312045 0.194424 0.347697 0.362422
S2    S     S_3+6 0.329134 0.349876 0.843192 0.117035
O14   O     O_2   0.347112 0.292515 0.707445 -0.261648
O15   O     O_2   0.271400 0.246077 0.916181 -0.134941
O16   O     O_3   0.262095 0.461385 0.822443 -0.523718
H16   H     H_    0.203838 0.417634 0.791091 0.374905
S3    S     S_3+6 0.712652 0.735564 0.139020 0.064849
O17   O     O_2   0.686644 0.748731 0.287986 -0.268494
O18   O     O_2   0.813037 0.738941 0.127056 -0.208658
O19   O     O_3   0.680893 0.853983 0.047595 -0.529375
H17   H     H_    0.717412 0.929189 0.083475 0.379021
S4    S     S_3+6 0.869295 0.165356 0.334634 0.051771
O20   O     O_2   0.927166 0.068111 0.293545 -0.182149
O21   O     O_2   0.801175 0.111745 0.441578 -0.278161
O22   O     O_3   0.815445 0.208628 0.194842 -0.540995
H18   H     H_    0.763579 0.143203 0.183569 0.363274
C37   C     C_2   0.128377 0.836408 0.620499 0.529413
H19   H     H_    0.182088 0.836655 0.694407 0.071303
O23   O     O_2   0.120306 0.931748 0.557200 -0.459348
S5    S     S_3+6 0.925106 0.841248 0.688753 0.057535
O24   O     O_2   0.993331 0.926513 0.766757 -0.210645
O25   O     O_2   0.883050 0.914999 0.581714 -0.207944
O26   O     O_3   0.845430 0.780868 0.802575 -0.545801
H20   H     H_    0.815384 0.852272 0.833021 0.393021

loop_
_geom_bond_atom_site_label_1
_geom_bond_atom_site_label_2
_ccdc_geom_bond_type
Cu1   O3    S    
O16   H16   S    
C19   C20   S    
C16   H12   S    
C23   O6    A    
C37   H19   S    
C26   C27   S    
C5    C6    A    
C14   C21   S    
C28   S3    S    
C18   C19   A    
Cu2   O8    S    
C26   N2    A    
C9    S5    S    
C30   C31   A    
C3    C33   A    
C15   C16   A    
C8    C37   S    
C25   N2    A    
C36   O10   D    
O13   H15   S    
C31   C32   A    
C8    C9    A    
S1    O12   D    
C10   H10   S    
S2    O14   D    
C1    C15   S    
C12   O3    A    
Cu2   O2    S    
C2    C34   A    
C35   H13   S    
C22   C28   S    
S2    O16   S    
S4    O22   S    
C3    S4    S    
S3    O19   S    
C33   C34   A    
C4    H9    S    
C37   O23   D    
C35   O9    D    
Cu1   O5    S    
C18   C23   S    
C7    C8    A    
C24   C25   A    
S4    O21   D    
O26   H20   S    
C13   H11   S    
C20   H3    S    
O19   H17   S    
S4    O20   D    
C6    C34   A    
C30   H1    S    
Cu1   Cu2   S    
S3    O17   D    
C36   H14   S    
Cu2   O6    S    
C1    O1    A    
C27   H5    S    
O22   H18   S    
S5    O26   S    
S1    O13   S    
C20   C21   S    
Cu1   N2    S    
C17   C18   A    
C32   H8    S    
C29   O8    A    
C20   C35   S    
S3    O18   D    
C21   C36   S    
C24   S1    S    
C22   N1    A    
S5    O25   D    
Cu1   O1    S    
C3    C4    A    
C24   N1    A    
C14   C19   A    
C29   O7    A    
C4    C5    A    
C11   C12   S    
C23   O5    A    
C6    C7    A    
C28   H7    S    
Cu1   O7    S    
C2    C30   A    
C32   C33   A    
C5    C10   A    
C29   C31   S    
C11   C13   A    
C27   H6    S    
C16   C17   A    
C21   H4    S    
C17   H2    S    
C1    O2    A    
Cu2   O4    S    
C10   C11   A    
C7    C13   A    
S5    O24   D    
S1    O11   D    
C22   C26   A    
C27   C28   S    
C14   C15   A    
S2    O15   D    
C25   S2    S    
C2    C9    A    
C12   O4    A    
Cu2   N1    S    
