data_str_m2_o41_o41_f0_fof.sym.60
_audit_creation_date              2012-10-26T17:13:07-0400
_audit_creation_method            fapswitch 2.2
_symmetry_space_group_name_H-M    P1
_symmetry_Int_Tables_number       1
_space_group_crystal_system       triclinic
_cell_length_a                    16.800325
_cell_length_b                    16.800325
_cell_length_c                    16.800325
_cell_angle_alpha                 67.607983
_cell_angle_beta                  67.607984
_cell_angle_gamma                 67.607986
_cell_volume                      3896.48723208

loop_
_atom_site_label
_atom_site_type_symbol
_atom_type_description
_atom_site_fract_x
_atom_site_fract_y
_atom_site_fract_z
_atom_type_partial_charge
C1    C     C_R   0.323462 0.957769 0.448825 0.039163
C2    C     C_R   0.309013 0.430476 0.010429 0.039671
C3    C     C_R   0.546185 0.426244 0.963137 0.014990
C4    C     C_R   0.036862 0.453815 0.573756 0.014990
C5    C     C_R   0.963137 0.546185 0.426244 0.014990
C6    C     C_1   0.358660 0.859836 0.831458 0.248243
C7    C     C_1   0.641339 0.140163 0.168542 0.248243
C8    C     C_1   0.859836 0.831458 0.358660 0.248243
C9    C     C_1   0.140163 0.168542 0.641339 0.248243
C10   C     C_1   0.831458 0.358660 0.859836 0.248243
C11   C     C_1   0.168542 0.641339 0.140163 0.248243
C12   C     C_1   0.258397 0.849719 0.734900 0.257093
C13   C     C_R   0.989571 0.690987 0.569524 0.039671
C14   C     C_1   0.741603 0.150281 0.265100 0.257093
C15   C     C_1   0.734900 0.258397 0.849719 0.257093
C16   C     C_1   0.265100 0.741603 0.150281 0.257093
C17   C     C_1   0.849719 0.734900 0.258397 0.257093
C18   C     C_1   0.150281 0.265100 0.741603 0.257093
C19   C     C_R   0.010429 0.309013 0.430476 0.039671
C20   C     C_R   0.450665 0.993864 0.451752 -0.019891
C21   C     C_R   0.549335 0.006136 0.548248 -0.019891
C22   C     C_R   0.993864 0.451752 0.450665 -0.019891
C23   C     C_R   0.006136 0.548248 0.549335 -0.019891
C24   C     C_R   0.451752 0.450665 0.993864 -0.019891
C25   C     C_R   0.548248 0.549335 0.006136 -0.019891
C26   C     C_R   0.013551 0.831676 0.569848 0.805178
C27   C     C_R   0.676538 0.042231 0.551175 0.039163
C28   C     C_R   0.986449 0.168324 0.430151 0.805178
C29   C     C_R   0.831676 0.569848 0.013551 0.805179
C30   C     C_R   0.168324 0.430151 0.986449 0.805178
C31   C     C_R   0.569848 0.013551 0.831676 0.805179
C32   C     C_R   0.430151 0.986449 0.168324 0.805178
C33   C     C_R   0.435171 0.171643 0.972075 0.794941
C34   C     C_R   0.564829 0.828357 0.027925 0.794941
C35   C     C_R   0.972075 0.435171 0.171643 0.794941
C36   C     C_R   0.027925 0.564829 0.828357 0.794941
C37   C     C_R   0.171643 0.972075 0.435171 0.794941
C38   C     C_R   0.957769 0.448825 0.323461 0.039163
C39   C     C_R   0.828357 0.027925 0.564829 0.794941
C40   C     C_R   0.401765 0.986992 0.403290 0.071973
C41   C     C_R   0.598235 0.013008 0.596710 0.071973
C42   C     C_R   0.986992 0.403290 0.401765 0.071973
C43   C     C_R   0.013008 0.596710 0.598235 0.071973
C44   C     C_R   0.403290 0.401765 0.986992 0.071973
C45   C     C_R   0.596710 0.598235 0.013008 0.071973
C46   C     C_R   0.269231 0.962888 0.398245 -0.117170
C47   C     C_R   0.730769 0.037112 0.601754 -0.117170
C48   C     C_R   0.962888 0.398245 0.269231 -0.117170
C49   C     C_R   0.042231 0.551175 0.676538 0.039163
C50   C     C_R   0.037112 0.601754 0.730769 -0.117170
C51   C     C_R   0.398245 0.269231 0.962888 -0.117170
C52   C     C_R   0.601754 0.730769 0.037112 -0.117170
C53   C     C_R   0.610846 0.010437 0.737643 -0.115371
C54   C     C_R   0.389154 0.989563 0.262357 -0.115371
C55   C     C_R   0.737643 0.610846 0.010437 -0.115371
C56   C     C_R   0.262357 0.389154 0.989563 -0.115371
C57   C     C_R   0.010437 0.737643 0.610846 -0.115371
C58   C     C_R   0.989563 0.262357 0.389154 -0.115371
C59   C     C_R   0.502156 0.944660 0.735312 -0.213013
C60   C     C_R   0.448825 0.323461 0.957769 0.039163
C61   C     C_R   0.497843 0.055339 0.264688 -0.213013
C62   C     C_R   0.944660 0.735312 0.502156 -0.213013
C63   C     C_R   0.055340 0.264688 0.497843 -0.213013
C64   C     C_R   0.735312 0.502156 0.944660 -0.213013
C65   C     C_R   0.264688 0.497843 0.055339 -0.213013
C66   C     C_R   0.302658 0.923525 0.542574 -0.201862
C67   C     C_R   0.697342 0.076475 0.457426 -0.201862
C68   C     C_R   0.542574 0.302658 0.923525 -0.201862
C69   C     C_R   0.457426 0.697342 0.076475 -0.201862
C70   C     C_R   0.923525 0.542574 0.302658 -0.201862
C71   C     C_R   0.551175 0.676538 0.042231 0.039163
C72   C     C_R   0.076475 0.457426 0.697342 -0.201862
C73   C     C_R   0.306591 0.970946 0.306890 -0.261588
C74   C     C_R   0.693409 0.029054 0.693110 -0.261588
C75   C     C_R   0.970946 0.306890 0.306591 -0.261588
C76   C     C_R   0.029054 0.693110 0.693409 -0.261588
C77   C     C_R   0.306890 0.306591 0.970946 -0.261588
C78   C     C_R   0.693110 0.693409 0.029054 -0.261588
C79   C     C_R   0.646755 0.074720 0.407939 0.045033
C80   C     C_R   0.353245 0.925280 0.592061 0.045032
C81   C     C_R   0.074720 0.407939 0.646755 0.045033
C82   C     C_R   0.569524 0.989571 0.690987 0.039671
C83   C     C_R   0.925279 0.592061 0.353245 0.045033
C84   C     C_R   0.407939 0.646755 0.074720 0.045033
C85   C     C_R   0.592061 0.353245 0.925279 0.045033
C86   C     C_R   0.546677 0.064148 0.311320 0.034821
C87   C     C_R   0.453323 0.935852 0.688680 0.034821
C88   C     C_R   0.311320 0.546677 0.064148 0.034821
C89   C     C_R   0.688680 0.453323 0.935852 0.034821
C90   C     C_R   0.064148 0.311320 0.546677 0.034821
C91   C     C_R   0.935852 0.688680 0.453323 0.034821
C92   C     C_R   0.667924 0.109689 0.313566 -0.052863
C93   C     C_R   0.430476 0.010429 0.309013 0.039671
C94   C     C_R   0.332076 0.890311 0.686434 -0.052863
C95   C     C_R   0.109689 0.313566 0.667924 -0.052864
C96   C     C_R   0.890311 0.686434 0.332076 -0.052863
C97   C     C_R   0.313566 0.667924 0.109689 -0.052863
C98   C     C_R   0.686434 0.332076 0.890310 -0.052863
C99   C     C_R   0.617853 0.104754 0.265467 -0.066353
C100  C     C_R   0.382147 0.895246 0.734533 -0.066353
C101  C     C_R   0.265467 0.617853 0.104754 -0.066353
C102  C     C_R   0.734533 0.382147 0.895246 -0.066353
C103  C     C_R   0.104754 0.265467 0.617853 -0.066353
C104  C     C_R   0.690987 0.569524 0.989571 0.039671
C105  C     C_R   0.895246 0.734533 0.382147 -0.066353
C106  C     C_R   0.524204 0.031016 0.405581 0.019145
C107  C     C_R   0.475795 0.968984 0.594419 0.019145
C108  C     C_R   0.031016 0.405581 0.524204 0.019145
C109  C     C_R   0.968984 0.594419 0.475795 0.019145
C110  C     C_R   0.405581 0.524204 0.031016 0.019145
C111  C     C_R   0.594419 0.475795 0.968984 0.019145
C112  C     C_R   0.573756 0.036862 0.453815 0.014990
C113  C     C_R   0.426244 0.963137 0.546185 0.014990
C114  C     C_R   0.453815 0.573756 0.036862 0.014990
Cu1   Cu    Cu3+1 0.995180 0.995180 0.424630 0.996180
Cu2   Cu    Cu3+1 0.004820 0.004820 0.575370 0.996180
Cu3   Cu    Cu3+1 0.995180 0.424630 0.995180 0.996180
Cu4   Cu    Cu3+1 0.004820 0.575370 0.004820 0.996180
Cu5   Cu    Cu3+1 0.424630 0.995180 0.995180 0.996180
Cu6   Cu    Cu3+1 0.575370 0.004820 0.004820 0.996180
H1    H     H_    0.269713 0.965375 0.269456 0.199949
H2    H     H_    0.087239 0.193735 0.510162 0.176584
H3    H     H_    0.806265 0.489838 0.912761 0.176584
H4    H     H_    0.193735 0.510162 0.087238 0.176584
H5    H     H_    0.249210 0.891547 0.576987 0.171881
H6    H     H_    0.750790 0.108453 0.423013 0.171881
H7    H     H_    0.576987 0.249209 0.891547 0.171881
H8    H     H_    0.423013 0.750790 0.108453 0.171881
H9    H     H_    0.891547 0.576987 0.249209 0.171881
H10   H     H_    0.108453 0.423013 0.750790 0.171881
H11   H     H_    0.730287 0.034625 0.730544 0.199949
H12   H     H_    0.965375 0.269456 0.269713 0.199949
H13   H     H_    0.034625 0.730544 0.730287 0.199950
H14   H     H_    0.269456 0.269713 0.965375 0.199949
H15   H     H_    0.730544 0.730287 0.034625 0.199949
H16   H     H_    0.489838 0.912761 0.806265 0.176584
H17   H     H_    0.510162 0.087238 0.193735 0.176584
H18   H     H_    0.912761 0.806265 0.489838 0.176584
N1    N     N_1   0.339905 0.831689 0.908634 -0.269344
N2    N     N_1   0.226469 0.800270 0.182615 -0.267506
N3    N     N_1   0.817385 0.773531 0.199730 -0.267506
N4    N     N_1   0.182615 0.226469 0.800270 -0.267506
N5    N     N_1   0.660095 0.168311 0.091366 -0.269344
N6    N     N_1   0.831689 0.908634 0.339905 -0.269344
N7    N     N_1   0.168311 0.091366 0.660095 -0.269344
N8    N     N_1   0.908634 0.339905 0.831689 -0.269344
N9    N     N_1   0.091366 0.660095 0.168311 -0.269344
N10   N     N_1   0.199730 0.817385 0.773531 -0.267506
N11   N     N_1   0.800270 0.182615 0.226469 -0.267506
N12   N     N_1   0.773531 0.199730 0.817385 -0.267506
O1    O     O_R   0.124540 0.978640 0.385460 -0.573970
O2    O     O_R   0.124540 0.385460 0.978640 -0.580279
O3    O     O_R   0.021360 0.875460 0.614540 -0.580280
O4    O     O_R   0.978640 0.124540 0.385460 -0.580279
O5    O     O_R   0.013780 0.867370 0.487190 -0.585629
O6    O     O_R   0.986220 0.132630 0.512810 -0.585629
O7    O     O_R   0.867370 0.487190 0.013780 -0.585629
O8    O     O_R   0.132630 0.512810 0.986220 -0.585629
O9    O     O_R   0.487190 0.013780 0.867370 -0.585629
O10   O     O_R   0.512810 0.986220 0.132630 -0.585628
O11   O     O_R   0.512810 0.132630 0.986220 -0.590005
O12   O     O_R   0.875460 0.021360 0.614540 -0.573970
O13   O     O_R   0.487190 0.867370 0.013780 -0.590004
O14   O     O_R   0.986220 0.512810 0.132630 -0.590004
O15   O     O_R   0.013780 0.487190 0.867370 -0.590005
O16   O     O_R   0.132630 0.986220 0.512810 -0.590005
O17   O     O_R   0.867370 0.013780 0.487190 -0.590004
O18   O     O_R   0.978640 0.385460 0.124540 -0.573970
O19   O     O_R   0.021360 0.614540 0.875460 -0.573970
O20   O     O_R   0.385460 0.124540 0.978640 -0.573970
O21   O     O_R   0.614540 0.875460 0.021360 -0.573970
O22   O     O_R   0.614540 0.021360 0.875460 -0.580280
O23   O     O_R   0.385460 0.978640 0.124540 -0.580279
O24   O     O_R   0.875460 0.614540 0.021360 -0.580280

loop_
_geom_bond_atom_site_label_1
_geom_bond_atom_site_label_2
_ccdc_geom_bond_type
C96   C105  A    
C38   C70   A    
C18   C95   S    
C89   C102  A    
C3    C85   A    
Cu3   Cu4   S    
C91   C105  A    
C53   C74   A    
C59   C82   A    
C40   C93   A    
C2    C65   A    
Cu2   O16   S    
C8    C105  S    
C21   C112  A    
C7    N5    T    
C88   C101  A    
C3    C24   A    
C22   C108  A    
C106  C112  A    
C4    C108  A    
Cu4   O14   S    
C36   O19   A    
C7    C99   S    
C79   C112  A    
C31   O9    A    
C84   C97   A    
C57   C76   A    
Cu2   O12   S    
C38   C42   A    
C16   N2    T    
C20   C113  A    
C81   C95   A    
C61   C93   A    
C1    C46   A    
C15   N12   T    
C13   C57   A    
C31   O22   A    
C33   O20   A    
Cu3   O18   S    
Cu1   Cu2   S    
C59   H16   S    
C23   C43   A    
C63   C90   A    
C64   C104  A    
C65   H4    S    
C6    N1    T    
C69   C71   A    
C107  C113  A    
C54   C93   A    
C85   C98   A    
C1    C40   A    
C13   C62   A    
C69   H8    S    
C19   C63   A    
C49   C72   A    
C78   H15   S    
C110  C114  A    
C38   C48   A    
C72   C81   A    
C19   C42   A    
C88   C110  A    
C74   H11   S    
C28   O4    A    
C68   C85   A    
C48   C75   A    
C12   C94   S    
C26   O5    A    
C86   C106  A    
C64   C89   A    
C37   O1    A    
C83   C96   A    
C52   C78   A    
C35   C48   S    
C32   C54   S    
C26   C57   S    
C95   C103  A    
C58   C75   A    
C35   O18   A    
C20   C106  A    
C19   C58   A    
C23   C109  A    
C5    C22   A    
Cu3   O7    S    
C10   C102  S    
C24   C110  A    
C11   C101  S    
C34   O13   A    
C67   H6    S    
C2    C44   A    
C55   C78   A    
Cu6   O22   S    
C29   O7    A    
C29   C55   S    
Cu4   O19   S    
C98   C102  A    
C30   C56   S    
C55   C104  A    
C11   N9    T    
C70   H9    S    
C62   H18   S    
C56   C77   A    
C53   C82   A    
C6    C100  S    
C33   O11   A    
C51   C77   A    
C86   C99   A    
C45   C104  A    
C50   C76   A    
C54   C73   A    
C27   C41   A    
C30   O2    A    
C20   C40   A    
C94   C100  A    
C9    C103  S    
C28   O6    A    
C62   C91   A    
C1    C66   A    
C79   C92   A    
C67   C79   A    
C8    N6    T    
C17   C96   S    
C31   C53   S    
C39   O12   A    
C70   C83   A    
C68   H7    S    
C14   C92   S    
Cu2   O3    S    
C21   C107  A    
Cu6   O11   S    
C10   N8    T    
C21   C41   A    
C2    C56   A    
C49   C50   A    
C73   H1    S    
Cu1   O4    S    
C24   C44   A    
Cu4   O8    S    
C77   H14   S    
C15   C98   S    
Cu1   O17   S    
C25   C45   A    
C13   C43   A    
C63   H2    S    
C36   C50   S    
C75   H12   S    
C65   C88   A    
C39   C47   S    
C87   C100  A    
C27   C47   A    
C30   O8    A    
C18   N4    T    
C84   C114  A    
Cu1   O5    S    
C43   C49   A    
C47   C74   A    
C76   H13   S    
Cu6   O21   S    
C72   H10   S    
C37   O16   A    
C28   C58   S    
C33   C51   S    
C64   H3    S    
C66   C80   A    
C32   O23   A    
C89   C111  A    
C34   C52   S    
C35   O14   A    
C66   H5    S    
Cu5   O13   S    
C60   C68   A    
C91   C109  A    
C37   C46   S    
C90   C108  A    
Cu3   O15   S    
C69   C84   A    
C52   C71   A    
C12   N10   T    
Cu5   O23   S    
C61   H17   S    
C22   C42   A    
C5    C109  A    
C44   C60   A    
C5    C83   A    
C41   C82   A    
C4    C81   A    
C14   N11   T    
C9    N7    T    
C36   O15   A    
Cu3   O2    S    
C46   C73   A    
C39   O17   A    
C16   C97   S    
C17   N3    T    
C59   C87   A    
C90   C103  A    
Cu2   O6    S    
C27   C67   A    
C61   C86   A    
C25   C111  A    
Cu5   O20   S    
C3    C111  A    
C87   C107  A    
C80   C113  A    
Cu4   O24   S    
Cu5   O9    S    
Cu5   Cu6   S    
Cu1   O1    S    
Cu6   O10   S    
C26   O3    A    
C45   C71   A    
C51   C60   A    
C4    C23   A    
C25   C114  A    
C80   C94   A    
C29   O24   A    
C97   C101  A    
C34   O21   A    
C92   C99   A    
C32   O10   A    
