data_str_m9_o11_o16_f0_sra.sym.78
_audit_creation_date              2012-12-11T14:17:48-0500
_audit_creation_method            fapswitch 2.2
_symmetry_space_group_name_H-M    P1
_symmetry_Int_Tables_number       1
_space_group_crystal_system       triclinic
_cell_length_a                    6.944138
_cell_length_b                    13.629659
_cell_length_c                    20.447641
_cell_angle_alpha                 102.014805
_cell_angle_beta                  90.815404
_cell_angle_gamma                 90.414075
_cell_volume                      1892.6029706

loop_
_atom_site_label
_atom_site_type_symbol
_atom_type_description
_atom_site_fract_x
_atom_site_fract_y
_atom_site_fract_z
_atom_type_partial_charge
O1    O     O_R   0.506860 0.599390 0.449240 -0.536478
O2    O     O_R   0.180220 0.594600 0.586780 -0.541842
O3    O     O_R   0.004500 0.400610 0.550760 -0.539541
C1    C     C_R   0.349580 0.613779 0.614073 0.719125
O4    O     O_R   0.177490 0.611290 0.451970 -0.541059
O5    O     O_R   0.001750 0.417420 0.414990 -0.557632
C2    C     C_R   0.345798 0.637896 0.435133 0.706299
O6    O     O_R   0.509610 0.582580 0.585010 -0.543528
O7    O     O_3   0.337420 0.436370 0.488020 -0.374982
V1    V     V_3+5 0.064680 0.511800 0.502220 1.414363
O8    O     O_R   0.671710 0.405400 0.413220 -0.527848
C3    C     C_R   0.837495 0.385598 0.385987 0.703447
O9    O     O_R   0.674440 0.388710 0.548030 -0.543499
C4    C     C_R   0.843949 0.362102 0.564841 0.691473
V2    V     V_3+5 0.564010 0.488200 0.497780 1.425317
O10   O     O_3   0.841140 0.563630 0.511980 -0.370963
C5    C     C_R   0.949583 0.118539 0.615141 -0.152113
H1    H     H_    0.942077 0.168429 0.522366 0.102622
H2    H     H_    0.010724 0.998724 0.699909 0.132204
H3    H     H_    0.996307 0.044076 0.591405 0.115113
C6    C     C_R   0.857503 0.285218 0.604943 -0.032635
C7    C     C_R   0.797603 0.310787 0.926843 -0.164438
C8    C     C_R   0.766675 0.384736 0.890416 -0.121580
C9    C     C_R   0.789197 0.363870 0.821324 -0.158263
C10   C     C_R   0.845785 0.267532 0.786657 0.078689
C11   C     C_R   0.882973 0.192846 0.824722 0.066405
C12   C     C_R   0.865810 0.242671 0.715612 0.071351
C13   C     C_R   0.925680 0.144566 0.684643 0.136751
C14   C     C_R   0.963895 0.073403 0.723179 -0.179610
C15   C     C_R   0.943429 0.097075 0.792037 -0.185502
C16   C     C_R   0.830151 0.311841 0.674012 -0.213967
C17   C     C_R   0.917686 0.188812 0.575677 -0.174375
C18   C     C_R   0.855878 0.215133 0.894833 -0.074708
H4    H     H_    0.786183 0.387784 0.693624 0.092373
H5    H     H_    0.774475 0.327948 0.980306 0.102137
H6    H     H_    0.760636 0.424914 0.796719 0.102939
H7    H     H_    0.722188 0.458689 0.915835 0.115507
H8    H     H_    0.976904 0.039488 0.819559 0.114911
C19   C     C_2   0.991488 0.297613 0.281545 -0.216312
C20   C     C_2   0.828889 0.325380 0.316388 0.156331
H9    H     H_    0.129436 0.322398 0.304966 0.125327
C21   C     C_2   0.999427 0.239104 0.211192 -0.144403
C22   C     C_2   0.866983 0.169761 0.183281 -0.317089
H10   H     H_    0.124026 0.251665 0.182362 0.138374
H11   H     H_    0.748430 0.150752 0.211941 0.164098
C23   C     C_2   0.218795 0.767860 0.789528 -0.244314
C24   C     C_2   0.362343 0.833048 0.813895 0.319740
H12   H     H_    0.102741 0.756127 0.822229 0.084462
C25   C     C_2   0.207115 0.710475 0.718884 -0.093268
C26   C     C_2   0.362981 0.675222 0.682788 -0.261603
H13   H     H_    0.063861 0.691138 0.697969 0.121789
H14   H     H_    0.505636 0.686592 0.705197 0.155733
C27   C     C_R   0.348548 0.889066 0.387154 -0.160035
H15   H     H_    0.342768 0.838814 0.479817 0.108632
H16   H     H_    0.349333 0.014452 0.304037 0.121540
H17   H     H_    0.345088 0.967433 0.412054 0.111706
C28   C     C_R   0.352813 0.714863 0.395009 -0.034959
C29   C     C_R   0.363163 0.684651 0.071765 -0.168838
C30   C     C_R   0.361895 0.608505 0.107526 -0.119397
C31   C     C_R   0.359197 0.631251 0.177170 -0.157999
C32   C     C_R   0.357427 0.732066 0.213188 0.077731
C33   C     C_R   0.357095 0.809874 0.176066 0.067779
C34   C     C_R   0.356050 0.758252 0.284639 0.071950
C35   C     C_R   0.352412 0.861246 0.317089 0.143854
C36   C     C_R   0.351981 0.935874 0.279563 -0.209767
C37   C     C_R   0.354750 0.910828 0.210246 -0.197337
C38   C     C_R   0.357548 0.685941 0.325287 -0.214993
C39   C     C_R   0.347679 0.816219 0.425839 -0.173038
C40   C     C_R   0.360332 0.784993 0.105239 -0.075708
H18   H     H_    0.360501 0.606521 0.304636 0.099370
H19   H     H_    0.366678 0.665296 0.017633 0.097787
H20   H     H_    0.358568 0.567972 0.201084 0.108445
H21   H     H_    0.363706 0.530963 0.081044 0.116884
H22   H     H_    0.354619 0.971690 0.183626 0.120642
O11   O     O_R   0.203230 0.917310 0.915020 -0.553375
O12   O     O_R   0.535500 0.888690 0.048040 -0.540714
O13   O     O_R   0.711080 0.082610 0.085000 -0.543006
C41   C     C_R   0.367305 0.862398 0.065140 0.689920
O14   O     O_R   0.532630 0.905370 0.913230 -0.545486
O15   O     O_R   0.708190 0.099410 0.949230 -0.535327
C42   C     C_R   0.364419 0.887997 0.885226 0.640787
O16   O     O_R   0.206120 0.900510 0.050790 -0.537611
O17   O     O_3   0.375360 0.063570 0.011990 -0.368400
V3    V     V_3+5 0.648170 0.988200 0.997780 1.414376
O18   O     O_R   0.038240 0.111390 0.951940 -0.542046
C43   C     C_R   0.868843 0.137500 0.934755 0.684887
O19   O     O_R   0.041120 0.094710 0.086750 -0.541274
C44   C     C_R   0.874261 0.113512 0.113800 0.741580
V4    V     V_3+5 0.148810 0.011930 0.002180 1.412084
O20   O     O_3   0.871750 0.936430 0.988010 -0.375580
N1    N     N_2   0.642131 0.308984 0.285290 -0.511368
H23   H     H_    0.630534 0.311684 0.235379 0.265890
C45   C     C_3   0.519014 0.236441 0.307673 -0.564825
H24   H     H_    0.412513 0.204584 0.267706 0.180374
H25   H     H_    0.439024 0.273192 0.352574 0.219479
H26   H     H_    0.604592 0.173748 0.319827 0.185230
O21   O     O_3   0.491191 0.860661 0.769106 -0.544578
C46   C     C_3   0.683591 0.842530 0.786207 -0.215152
H27   H     H_    0.698829 0.774736 0.808320 0.102006
H28   H     H_    0.746168 0.909524 0.820236 0.158766
H29   H     H_    0.769805 0.829635 0.739989 0.143782

loop_
_geom_bond_atom_site_label_1
_geom_bond_atom_site_label_2
_ccdc_geom_bond_type
O19   C44   A    
C45   H24   S    
O15   V3    S    
O12   V3    S    
O21   C46   S    
C19   H9    S    
O18   C43   A    
C7    H5    S    
C6    C16   A    
C23   C25   S    
C9    H6    S    
O16   V4    S    
V3    O20   S    
C22   C44   S    
C4    C6    S    
C13   C14   A    
O12   C41   A    
O5    C3    A    
O14   V3    S    
C27   C35   A    
C29   H19   S    
H15   C39   S    
C31   H20   S    
V2    O10   S    
C46   H27   S    
C5    H3    S    
C15   H8    S    
C32   C34   A    
C27   C39   A    
O15   C43   A    
O8    V2    S    
O13   C44   A    
C25   H13   S    
C26   H14   S    
C8    C9    A    
O1    V2    S    
O7    V1    S    
C30   H21   S    
C1    O6    A    
C30   C31   A    
C45   H25   S    
O9    C4    A    
C40   C41   S    
C21   H10   S    
C28   C38   A    
H16   C36   S    
C19   C21   S    
C23   H12   S    
O17   V4    S    
C6    C17   A    
C34   C38   A    
C33   C37   A    
C12   C16   A    
C9    C10   A    
C19   C20   D    
O14   C42   A    
O18   V4    S    
O11   C42   A    
O6    V2    S    
O13   V3    S    
C29   C30   A    
C8    H7    S    
C33   C40   A    
C1    C26   S    
C31   C32   A    
C3    C20   S    
O2    C1    A    
C18   C43   S    
C14   C15   A    
N1    C45   S    
C37   H22   S    
C41   O16   A    
C11   C18   A    
O17   V3    S    
C16   H4    S    
C22   H11   S    
O3    C4    A    
C11   C15   A    
C45   H26   S    
C46   H28   S    
O9    V2    S    
H1    C17   S    
C21   C22   D    
C28   C39   A    
O2    V1    S    
N1    H23   S    
O4    C2    A    
C27   H17   S    
C7    C18   A    
C23   C24   D    
O1    C2    A    
C5    C13   A    
O5    V1    S    
O8    C3    A    
C29   C40   A    
C10   C12   A    
C46   H29   S    
C24   O21   S    
C38   H18   S    
C35   C36   A    
O19   V4    S    
C10   C11   A    
O4    V1    S    
C36   C37   A    
O3    V1    S    
V1    O10   S    
C24   C42   S    
C20   N1    S    
O7    V2    S    
C32   C33   A    
O11   V4    S    
C34   C35   A    
C25   C26   D    
C12   C13   A    
C5    C17   A    
C7    C8    A    
V4    O20   S    
C2    C28   S    
H2    C14   S    
