data_str_m9_o2_o19_f0_sra.sym.24
_audit_creation_date              2012-12-11T16:28:24-0500
_audit_creation_method            fapswitch 2.2
_symmetry_space_group_name_H-M    P1
_symmetry_Int_Tables_number       1
_space_group_crystal_system       triclinic
_cell_length_a                    16.463247
_cell_length_b                    7.254434
_cell_length_c                    15.319695
_cell_angle_alpha                 90.001253
_cell_angle_beta                  94.579122
_cell_angle_gamma                 90.002768
_cell_volume                      1823.81455269

loop_
_atom_site_label
_atom_site_type_symbol
_atom_type_description
_atom_site_fract_x
_atom_site_fract_y
_atom_site_fract_z
_atom_type_partial_charge
O1    O     O_R   0.663460 0.361760 0.165970 -0.545286
O2    O     O_R   0.336540 0.638240 0.834030 -0.518669
O3    O     O_R   0.836540 0.861760 0.334030 -0.545304
O4    O     O_R   0.163460 0.138240 0.665970 -0.518662
O5    O     O_R   0.827100 0.689870 0.163730 -0.556081
O6    O     O_R   0.172900 0.310130 0.836270 -0.516069
O7    O     O_R   0.672900 0.189870 0.336270 -0.556021
O8    O     O_R   0.327100 0.810130 0.663730 -0.516085
H1    H     H_    0.214137 0.975279 0.505327 0.110401
H2    H     H_    0.785589 0.027898 0.494378 0.109906
H3    H     H_    0.285839 0.475823 0.994639 0.110381
H4    H     H_    0.714419 0.527553 0.005638 0.109884
C1    C     C_R   0.853282 0.522845 0.143630 0.702565
C2    C     C_R   0.146799 0.476989 0.856471 0.703436
C3    C     C_R   0.646719 0.022841 0.356372 0.702500
C4    C     C_R   0.353201 0.976992 0.643529 0.703425
O9    O     O_R   0.663490 0.691370 0.155500 -0.523700
O10   O     O_R   0.336510 0.308630 0.844500 -0.549436
O11   O     O_R   0.836510 0.191370 0.344500 -0.523645
O12   O     O_R   0.163490 0.808630 0.655500 -0.549435
O13   O     O_R   0.671770 0.863320 0.325740 -0.512017
O14   O     O_R   0.328230 0.136680 0.674260 -0.549509
O15   O     O_R   0.828230 0.363320 0.174260 -0.512064
O16   O     O_R   0.171770 0.636680 0.825740 -0.549486
C5    C     C_R   0.633985 0.523597 0.136365 0.776583
C6    C     C_R   0.366057 0.477225 0.863600 0.774072
C7    C     C_R   0.866010 0.023607 0.363641 0.776424
C8    C     C_R   0.133947 0.977215 0.636394 0.774114
O17   O     O_3   0.752910 0.528800 0.305860 -0.377345
O18   O     O_3   0.247090 0.471200 0.694140 -0.375685
O19   O     O_3   0.747090 0.028800 0.194140 -0.377474
O20   O     O_3   0.252910 0.971200 0.805860 -0.375660
V1    V     V_3+5 0.749460 0.803010 0.239640 1.451447
V2    V     V_3+5 0.250540 0.196990 0.760360 1.463790
V3    V     V_3+5 0.750540 0.303010 0.260360 1.451582
V4    V     V_3+5 0.249460 0.696990 0.739640 1.463778
C9    C     C_1   0.468633 0.994185 0.529868 -0.011936
C10   C     C_1   0.531042 0.004724 0.469705 -0.007843
C11   C     C_1   0.031368 0.494181 0.970133 -0.011962
C12   C     C_1   0.968959 0.504728 0.030296 -0.007849
H5    H     H_    0.754776 0.081571 0.642104 0.141220
H6    H     H_    0.247830 0.049415 0.360533 0.143441
H7    H     H_    0.745263 0.581148 0.857915 0.141206
H8    H     H_    0.252163 0.550087 0.139425 0.143484
C13   C     C_R   0.040664 0.060245 0.323267 0.422264
C14   C     C_R   0.960971 0.034813 0.678935 0.424760
C15   C     C_R   0.459335 0.560239 0.176737 0.422303
C16   C     C_R   0.539049 0.534726 0.821070 0.424731
C17   C     C_R   0.123769 0.081500 0.307333 0.146293
C18   C     C_R   0.879315 0.072580 0.696147 0.143786
C19   C     C_R   0.376238 0.581750 0.192657 0.146253
C20   C     C_R   0.620721 0.572370 0.803865 0.143789
C21   C     C_R   0.184081 0.040970 0.373159 -0.201853
C22   C     C_R   0.817831 0.060720 0.628866 -0.202483
C23   C     C_R   0.315911 0.541455 0.126811 -0.201886
C24   C     C_R   0.682198 0.560404 0.871149 -0.202491
C25   C     C_R   0.163861 0.999457 0.456876 -0.186130
C26   C     C_R   0.836466 0.030752 0.543546 -0.186114
C27   C     C_R   0.336123 0.499862 0.043099 -0.186096
C28   C     C_R   0.663546 0.530484 0.956467 -0.186113
C29   C     C_R   0.082017 0.001327 0.478670 0.013112
C30   C     C_R   0.918098 0.017131 0.521681 0.011984
C31   C     C_R   0.417975 0.501494 0.021321 0.013121
C32   C     C_R   0.581907 0.517005 0.978327 0.011992
C33   C     C_R   0.018390 0.024254 0.410473 -0.056385
C34   C     C_R   0.982127 0.012292 0.590339 -0.057230
C35   C     C_R   0.481606 0.524296 0.089527 -0.056446
C36   C     C_R   0.517881 0.512227 0.909663 -0.057226
C37   C     C_R   0.064368 0.990113 0.567891 -0.131974
C38   C     C_R   0.935553 0.016881 0.432309 -0.128526
C39   C     C_R   0.435632 0.490159 0.932106 -0.131933
C40   C     C_R   0.564444 0.516831 0.067697 -0.128636
C41   C     C_1   0.415790 0.985736 0.581257 -0.192620
C42   C     C_1   0.583958 0.013450 0.418414 -0.186937
C43   C     C_1   0.084210 0.485728 0.918743 -0.192635
C44   C     C_1   0.916044 0.513459 0.081587 -0.186906
C45   C     C_3   0.150401 0.152987 0.221674 -0.778533
H9    H     H_    0.193652 0.269271 0.234378 0.204946
H10   H     H_    0.181593 0.041545 0.187565 0.200338
H11   H     H_    0.098810 0.206121 0.177811 0.241669
C46   C     C_3   0.855756 0.129961 0.785349 -0.777720
H12   H     H_    0.820139 0.260075 0.779637 0.204954
H13   H     H_    0.817472 0.021165 0.812375 0.199349
H14   H     H_    0.909363 0.155985 0.832288 0.242635
C47   C     C_3   0.349640 0.653240 0.278330 -0.778612
H15   H     H_    0.306571 0.769842 0.265654 0.204949
H16   H     H_    0.318253 0.541969 0.312337 0.200356
H17   H     H_    0.401269 0.705892 0.322281 0.241710
C48   C     C_3   0.644307 0.629742 0.714672 -0.777604
H18   H     H_    0.679953 0.759840 0.720402 0.204966
H19   H     H_    0.682579 0.520905 0.687649 0.199320
H20   H     H_    0.590708 0.655817 0.667720 0.242616
O21   O     O_3   0.981897 0.092802 0.255429 -0.566656
C49   C     C_3   0.976535 0.936834 0.200189 -0.222549
H21   H     H_    0.964177 0.809358 0.237291 0.131564
H22   H     H_    0.032452 0.916624 0.165387 0.130604
H23   H     H_    0.925692 0.959027 0.149386 0.179157
O22   O     O_3   0.020112 0.036310 0.748179 -0.564795
C50   C     C_3   0.016908 0.867371 0.793401 -0.235619
H24   H     H_    0.032049 0.750136 0.750833 0.136025
H25   H     H_    0.956651 0.841897 0.819025 0.130568
H26   H     H_    0.062141 0.872840 0.850901 0.178975
O23   O     O_3   0.518104 0.592371 0.244624 -0.566646
C51   C     C_3   0.523304 0.436198 0.299734 -0.222700
H27   H     H_    0.535818 0.308913 0.262563 0.131731
H28   H     H_    0.467250 0.415718 0.334279 0.130553
H29   H     H_    0.573974 0.458268 0.350755 0.179087
O24   O     O_3   0.479908 0.536362 0.751826 -0.564804
C52   C     C_3   0.483050 0.367444 0.706572 -0.235583
H30   H     H_    0.467902 0.250195 0.749132 0.136021
H31   H     H_    0.543289 0.341922 0.680913 0.130563
H32   H     H_    0.437793 0.372993 0.649092 0.178985

loop_
_geom_bond_atom_site_label_1
_geom_bond_atom_site_label_2
_ccdc_geom_bond_type
C26   C30   A    
O21   C49   S    
C23   C27   A    
C8    C37   S    
O10   C6    A    
C13   O21   S    
C19   C47   S    
C51   H28   S    
C46   H12   S    
C19   C23   A    
C45   H9    S    
C30   C38   A    
O16   V4    S    
C32   C36   A    
H2    C26   S    
C14   C34   A    
C16   C20   A    
C52   H31   S    
H6    C21   S    
C10   C42   T    
C47   H17   S    
C34   C37   A    
O13   V1    S    
O3    V1    S    
C29   C37   A    
C33   C38   A    
O24   C52   S    
C1    O15   A    
C35   C40   A    
O8    V4    S    
C2    O16   A    
O4    C8    A    
C12   C44   T    
O5    V1    S    
O19   V1    S    
C11   C43   T    
C48   H19   S    
O11   C7    A    
O5    C1    A    
O7    C3    A    
C14   O22   S    
O8    C4    A    
O1    C5    A    
C6    C39   S    
C20   C48   S    
O9    V1    S    
H3    C27   S    
C15   C35   A    
C51   H27   S    
C46   H13   S    
C14   C18   A    
O4    V2    S    
C45   H10   S    
O14   V2    S    
C31   C35   A    
C15   O23   S    
C30   C34   A    
C47   H16   S    
C4    C41   S    
C52   H32   S    
C11   C12   S    
C21   C25   A    
C15   C19   A    
O12   C8    A    
C49   H23   S    
C47   H15   S    
O6    V2    S    
O20   V2    S    
C9    C10   S    
O6    C2    A    
C50   H24   S    
C1    C44   S    
C13   C17   A    
C50   H26   S    
O2    C6    A    
C5    C40   S    
C18   C22   A    
C16   C36   A    
C48   H20   S    
C49   H22   S    
O10   V2    S    
C7    C38   S    
H4    C28   S    
C50   H25   S    
C31   C39   A    
O15   V3    S    
C13   C33   A    
C46   H14   S    
O1    V3    S    
C22   C26   A    
C45   H11   S    
O2    V4    S    
C9    C41   T    
C4    O14   A    
O7    V3    S    
C25   C29   A    
O17   V3    S    
C27   C31   A    
O18   V4    S    
C28   C32   A    
O9    C5    A    
C2    C43   S    
O3    C7    A    
O11   V3    S    
C52   H30   S    
H8    C23   S    
C16   O24   S    
C36   C39   A    
C17   C21   A    
C17   C45   S    
H1    C25   S    
C32   C40   A    
C49   H21   S    
H5    C22   S    
O12   V4    S    
C29   C33   A    
H7    C24   S    
C3    O13   A    
C3    C42   S    
C24   C28   A    
O22   C50   S    
O23   C51   S    
C48   H18   S    
C51   H29   S    
C20   C24   A    
C18   C46   S    
