data_str_m9_o16_o26_f0_sra.sym.9
_audit_creation_date              2012-12-11T15:15:49-0500
_audit_creation_method            fapswitch 2.2
_symmetry_space_group_name_H-M    P1
_symmetry_Int_Tables_number       1
_space_group_crystal_system       triclinic
_cell_length_a                    20.625829
_cell_length_b                    22.723755
_cell_length_c                    6.938015
_cell_angle_alpha                 90.041345
_cell_angle_beta                  87.025987
_cell_angle_gamma                 90.007589
_cell_volume                      3247.4413417

loop_
_atom_site_label
_atom_site_type_symbol
_atom_type_description
_atom_site_fract_x
_atom_site_fract_y
_atom_site_fract_z
_atom_type_partial_charge
O1    O     O_R   0.387100 0.552640 0.378490 -0.535436
O2    O     O_R   0.612900 0.052640 0.621510 -0.538388
O3    O     O_R   0.249610 0.559600 0.072250 -0.547095
O4    O     O_R   0.750390 0.059600 0.927750 -0.550895
O5    O     O_R   0.249120 0.447360 0.902040 -0.544914
O6    O     O_R   0.750880 0.947360 0.097960 -0.543973
C1    C     C_R   0.226287 0.572899 0.244430 0.704924
C2    C     C_R   0.773473 0.073044 0.755739 0.723073
O7    O     O_R   0.386610 0.559560 0.048860 -0.533559
O8    O     O_R   0.613390 0.059560 0.951140 -0.538492
O9    O     O_R   0.387100 0.447320 0.878470 -0.533820
O10   O     O_R   0.612900 0.947320 0.121530 -0.538034
C3    C     C_R   0.407865 0.574770 0.214496 0.704388
C4    C     C_R   0.592135 0.074773 0.785619 0.694646
O11   O     O_R   0.249120 0.552680 0.402050 -0.519104
O12   O     O_R   0.750880 0.052680 0.597950 -0.515002
O13   O     O_3   0.318110 0.463180 0.223790 -0.377803
O14   O     O_3   0.681890 0.963180 0.776210 -0.374420
V1    V     V_3+5 0.318110 0.506830 0.948930 1.454452
V2    V     V_3+5 0.681890 0.006830 0.051070 1.430665
O15   O     O_R   0.386610 0.440400 0.548840 -0.545285
O16   O     O_R   0.613390 0.940400 0.451160 -0.541161
C5    C     C_R   0.408023 0.425304 0.714286 0.735683
C6    C     C_R   0.591949 0.925341 0.285602 0.695400
O17   O     O_R   0.249610 0.440440 0.572240 -0.549120
O18   O     O_R   0.750390 0.940440 0.427760 -0.543526
C7    C     C_R   0.226264 0.427316 0.744025 0.688287
C8    C     C_R   0.773781 0.927373 0.255829 0.708546
V3    V     V_3+5 0.318110 0.493170 0.448930 1.439821
V4    V     V_3+5 0.681890 0.993170 0.551070 1.441312
O19   O     O_3   0.318110 0.536820 0.723940 -0.358204
O20   O     O_3   0.681890 0.036820 0.276060 -0.362772
C9    C     C_R   0.168602 0.388545 0.758493 -0.051217
C10   C     C_R   0.831505 0.888688 0.240496 -0.051641
C11   C     C_R   0.144306 0.363836 0.590737 -0.170857
C12   C     C_R   0.863368 0.877109 0.060217 -0.174513
C13   C     C_R   0.086692 0.331682 0.600479 -0.138995
C14   C     C_R   0.921088 0.844807 0.048660 -0.089837
C15   C     C_R   0.052109 0.323674 0.777787 0.108399
C16   C     C_R   0.947824 0.823550 0.216895 0.107199
C17   C     C_R   0.076817 0.346916 0.946380 -0.091183
C18   C     C_R   0.915365 0.833772 0.396342 -0.136499
C19   C     C_R   0.134689 0.379051 0.937003 -0.175600
C20   C     C_R   0.857823 0.866031 0.408183 -0.160392
C21   C     C_R   0.891009 0.191480 0.893031 -0.077909
C22   C     C_R   0.105116 0.687672 0.102402 -0.084854
C23   C     C_R   0.838735 0.152604 0.898194 -0.247940
C24   C     C_R   0.157068 0.648512 0.096566 -0.232943
C25   C     C_R   0.871528 0.117930 0.576242 0.186893
C26   C     C_R   0.131195 0.621361 0.431298 0.198706
C27   C     C_R   0.923279 0.158105 0.571174 -0.182153
C28   C     C_R   0.079760 0.662051 0.435966 -0.160365
C29   C     C_R   0.932617 0.195642 0.727407 0.178667
C30   C     C_R   0.067242 0.695883 0.273625 0.172946
C31   C     C_2   0.989608 0.291577 0.784880 -0.066294
C32   C     C_2   0.010061 0.790972 0.206833 -0.066050
C33   C     C_2   0.989454 0.235374 0.720152 -0.278398
C34   C     C_2   0.010802 0.736027 0.281925 -0.276605
C35   C     C_R   0.828137 0.115374 0.740837 -0.046827
C36   C     C_R   0.171196 0.615005 0.259760 -0.069039
H1    H     H_    0.169088 0.370220 0.450865 0.122435
H2    H     H_    0.844469 0.893930 0.928368 0.122299
H3    H     H_    0.806600 0.151560 0.026612 0.140740
H4    H     H_    0.186135 0.644360 0.962736 0.162800
H5    H     H_    0.034649 0.216714 0.659782 0.137996
H6    H     H_    0.966443 0.718749 0.352343 0.137855
H7    H     H_    0.051102 0.340495 0.084878 0.127085
H8    H     H_    0.935333 0.817693 0.527745 0.115272
H9    H     H_    0.899030 0.218164 0.018973 0.117578
H10   H     H_    0.094439 0.711491 0.972649 0.117900
H11   H     H_    0.151991 0.397530 0.068780 0.120615
H12   H     H_    0.834706 0.874118 0.549378 0.122218
H13   H     H_    0.068282 0.314029 0.468888 0.114478
H14   H     H_    0.945025 0.836604 0.908596 0.126703
H15   H     H_    0.956489 0.159768 0.444956 0.114052
H16   H     H_    0.048992 0.667171 0.566373 0.105830
C37   C     C_R   0.577787 0.361859 0.677999 -0.193121
C38   C     C_R   0.422075 0.862042 0.317703 -0.125454
H17   H     H_    0.667856 0.278835 0.676779 0.134872
H18   H     H_    0.331948 0.779072 0.317576 0.135899
H19   H     H_    0.627223 0.377372 0.653015 0.118291
H20   H     H_    0.372745 0.878055 0.340594 0.141753
C39   C     C_R   0.462501 0.382735 0.713540 -0.057514
C40   C     C_R   0.537449 0.882807 0.285728 -0.093781
C41   C     C_R   0.474945 0.095070 0.818145 -0.162462
C42   C     C_R   0.525140 0.594988 0.184762 -0.186783
C43   C     C_R   0.420996 0.132107 0.822936 0.264603
C44   C     C_R   0.579152 0.632300 0.180290 0.259642
C45   C     C_R   0.429396 0.192951 0.797068 -0.196575
C46   C     C_R   0.570585 0.692924 0.205944 -0.164792
C47   C     C_R   0.491856 0.217949 0.764953 0.054527
C48   C     C_R   0.508092 0.717968 0.235864 0.039863
C49   C     C_R   0.546692 0.179064 0.759065 0.062407
C50   C     C_R   0.453247 0.679108 0.240371 0.059714
C51   C     C_R   0.501681 0.280203 0.738478 0.094452
C52   C     C_R   0.498258 0.780241 0.261373 0.091682
C53   C     C_R   0.566032 0.301523 0.706044 0.101052
C54   C     C_R   0.433831 0.801644 0.291290 0.072136
C55   C     C_R   0.618685 0.262610 0.701212 -0.183038
C56   C     C_R   0.381153 0.762771 0.294980 -0.179200
C57   C     C_R   0.609310 0.202521 0.727369 -0.174023
C58   C     C_R   0.390568 0.702630 0.269877 -0.166505
C59   C     C_R   0.450284 0.322255 0.742576 -0.275588
C60   C     C_R   0.549724 0.822243 0.258553 -0.251238
C61   C     C_R   0.526620 0.402545 0.680259 0.194903
C62   C     C_R   0.473034 0.902501 0.315660 0.183919
C63   C     C_R   0.537657 0.117412 0.786095 -0.138103
C64   C     C_R   0.462350 0.617408 0.214457 -0.119920
H21   H     H_    0.400178 0.309635 0.766838 0.104934
H22   H     H_    0.599870 0.809489 0.236489 0.105340
H23   H     H_    0.467798 0.048199 0.839626 0.121440
H24   H     H_    0.531988 0.548029 0.164702 0.111340
H25   H     H_    0.386175 0.219548 0.802551 0.107731
H26   H     H_    0.614086 0.719209 0.201608 0.124172
H27   H     H_    0.651796 0.174455 0.722373 0.107645
H28   H     H_    0.348068 0.674580 0.273887 0.107689
N1    N     N_3   0.539418 0.464185 0.650655 -0.672242
H29   H     H_    0.589407 0.472170 0.640797 0.230746
H30   H     H_    0.521857 0.475717 0.517121 0.223680
N2    N     N_3   0.458125 0.963610 0.343882 -0.660101
H31   H     H_    0.476796 0.986971 0.223622 0.228142
H32   H     H_    0.481424 0.978409 0.465143 0.226256
N3    N     N_3   0.357534 0.107013 0.856546 -0.650421
H33   H     H_    0.348387 0.080538 0.737660 0.236887
H34   H     H_    0.322071 0.139931 0.862119 0.224182
N4    N     N_3   0.643709 0.609244 0.150983 -0.660229
H35   H     H_    0.642549 0.563356 0.140064 0.229917
H36   H     H_    0.662581 0.624946 0.018006 0.229625
N5    N     N_3   0.864799 0.078612 0.417015 -0.652457
H37   H     H_    0.860710 0.103850 0.292480 0.225244
H38   H     H_    0.907330 0.053729 0.399619 0.227777
N6    N     N_3   0.141499 0.585665 0.598001 -0.647022
H39   H     H_    0.128522 0.542523 0.564296 0.221274
H40   H     H_    0.110475 0.598552 0.714375 0.217681
C65   C     C_2   0.929314 0.324581 0.843601 0.782891
O21   O     O_2   0.931785 0.365919 0.955916 -0.561058
O22   O     O_R   0.870421 0.310569 0.763353 -0.656795
H41   H     H_    0.833382 0.336639 0.813507 0.295041
C66   C     C_2   0.069785 0.822264 0.132347 0.786618
O23   O     O_2   0.065737 0.861787 0.014005 -0.560325
O24   O     O_R   0.130136 0.808818 0.204311 -0.654460
H42   H     H_    0.166618 0.833586 0.143545 0.298494

loop_
_geom_bond_atom_site_label_1
_geom_bond_atom_site_label_2
_ccdc_geom_bond_type
V4    O20   S    
N4    H35   S    
O6    C8    A    
O13   V3    S    
O4    C2    A    
V1    O19   S    
N3    H33   S    
C17   H7    S    
C7    C9    S    
C43   N3    S    
O9    V1    S    
C5    C39   S    
O10   V2    S    
H17   C55   S    
C11   C13   A    
C27   H15   S    
O3    C1    A    
N1    H30   S    
C2    C35   S    
C23   H3    S    
N2    H32   S    
C42   C44   A    
C24   H4    S    
O12   V4    S    
C48   C52   A    
O7    V1    S    
C21   C23   A    
O7    C3    A    
C44   N4    S    
N3    H34   S    
C9    C11   A    
O5    C7    A    
C46   C48   A    
C34   H6    S    
C15   C31   S    
C51   C59   A    
N6    H39   S    
C16   C32   S    
C52   C54   A    
C38   C54   A    
C26   C28   A    
O3    V1    S    
O14   V4    S    
O8    V2    S    
C45   C47   A    
C10   C12   A    
C24   C36   A    
C16   C18   A    
C8    C10   S    
C2    O12   A    
H18   C56   S    
C18   H8    S    
C17   C19   A    
C61   N1    S    
C18   C20   A    
C31   C65   S    
C3    C64   S    
C12   H2    S    
O1    V3    S    
C53   C55   A    
C28   C30   A    
O11   V3    S    
C45   H25   S    
C41   C43   A    
O15   C5    A    
O17   V3    S    
C22   C24   A    
C23   C35   A    
C21   H9    S    
C9    C19   A    
C65   O21   D    
C10   C20   A    
C15   C17   A    
O8    C4    A    
C49   C57   A    
C32   C66   S    
C29   C33   S    
C1    O11   A    
C14   H14   S    
C25   C27   A    
C25   N5    S    
C39   C61   A    
C27   C29   A    
C42   H24   S    
C47   C49   A    
C38   H20   S    
C40   C62   A    
C37   H19   S    
C50   C64   A    
C22   C30   A    
C56   C58   A    
C11   H1    S    
C26   N6    S    
C37   C53   A    
C39   C59   A    
N6    H40   S    
C4    C63   S    
C55   C57   A    
C44   C46   A    
O18   V4    S    
C54   C56   A    
C31   C33   D    
C28   H16   S    
C57   H27   S    
O16   C6    A    
O1    C3    A    
C12   C14   A    
C1    C36   S    
N2    H31   S    
C60   H22   S    
N5    H37   S    
V2    O20   S    
C65   O22   S    
C13   H13   S    
N4    H36   S    
O16   V4    S    
C62   N2    S    
C42   C64   A    
C33   H5    S    
C41   H23   S    
C66   O23   D    
C51   C53   A    
O5    V1    S    
O17   C7    A    
O6    V2    S    
O22   H41   S    
O10   C6    A    
O18   C8    A    
C37   C61   A    
C25   C35   A    
O2    V4    S    
C59   H21   S    
C26   C36   A    
C52   C60   A    
C6    C40   S    
V3    O19   S    
C41   C63   A    
O24   H42   S    
C49   C63   A    
C14   C16   A    
C66   O24   S    
C48   C50   A    
O15   V3    S    
C40   C60   A    
O9    C5    A    
O13   V1    S    
C32   C34   D    
C38   C62   A    
C20   H12   S    
O14   V2    S    
C46   H26   S    
O2    C4    A    
C19   H11   S    
C22   H10   S    
C58   H28   S    
C21   C29   A    
O4    V2    S    
C30   C34   S    
C50   C58   A    
C47   C51   A    
C13   C15   A    
C43   C45   A    
N1    H29   S    
N5    H38   S    
