data_str_m3_o40_o41_f0_fof.sym.14
_audit_creation_date              2012-12-10T16:37:51-0500
_audit_creation_method            fapswitch 2.2
_symmetry_space_group_name_H-M    P1
_symmetry_Int_Tables_number       1
_space_group_crystal_system       triclinic
_cell_length_a                    28.153303
_cell_length_b                    18.306991
_cell_length_c                    16.966343
_cell_angle_alpha                 90.0
_cell_angle_beta                  61.06177
_cell_angle_gamma                 89.999989
_cell_volume                      7652.67071

loop_
_atom_site_label
_atom_site_type_symbol
_atom_type_description
_atom_site_fract_x
_atom_site_fract_y
_atom_site_fract_z
_atom_type_partial_charge
C1    C     C_R   0.701030 0.266194 0.677037 0.892184
C2    C     C_R   0.083197 0.500000 0.548432 0.064490
C3    C     C_R   0.186802 0.225498 0.912409 0.074841
C4    C     C_R   0.616350 0.327176 0.049200 -0.183706
C5    C     C_R   0.383650 0.672824 0.950800 -0.183707
C6    C     C_R   0.383650 0.327177 0.950800 -0.183706
C7    C     C_R   0.616350 0.672823 0.049200 -0.183706
C8    C     C_R   0.116350 0.827176 0.049200 -0.183706
C9    C     C_R   0.883650 0.172823 0.950800 -0.183707
C10   C     C_R   0.883650 0.827177 0.950800 -0.183706
C11   C     C_R   0.116350 0.172823 0.049200 -0.183706
C12   C     C_R   0.646986 0.315867 0.092319 -0.219111
C13   C     C_R   0.416803 1.000000 0.451568 0.064490
C14   C     C_R   0.353013 0.684133 0.907681 -0.219111
C15   C     C_R   0.353013 0.315868 0.907681 -0.219111
C16   C     C_R   0.646987 0.684132 0.092319 -0.219112
C17   C     C_R   0.146986 0.815867 0.092319 -0.219111
C18   C     C_R   0.853013 0.184133 0.907681 -0.219111
C19   C     C_R   0.853013 0.815868 0.907681 -0.219111
C20   C     C_R   0.146987 0.184132 0.092319 -0.219112
C21   C     C_R   0.747261 0.197098 0.790297 -0.184186
C22   C     C_R   0.252739 0.802902 0.209702 -0.184186
C23   C     C_R   0.252739 0.197098 0.209702 -0.184186
C24   C     C_R   0.583197 1.000000 0.548432 0.064490
C25   C     C_R   0.747261 0.802902 0.790298 -0.184186
C26   C     C_R   0.247261 0.697098 0.790297 -0.184186
C27   C     C_R   0.752739 0.302902 0.209702 -0.184186
C28   C     C_R   0.752739 0.697098 0.209702 -0.184186
C29   C     C_R   0.247261 0.302902 0.790298 -0.184186
C30   C     C_R   0.778743 0.185445 0.832003 -0.220815
C31   C     C_R   0.221256 0.814555 0.167997 -0.220815
C32   C     C_R   0.221257 0.185445 0.167996 -0.220814
C33   C     C_R   0.778743 0.814555 0.832003 -0.220814
C34   C     C_R   0.278743 0.685445 0.832003 -0.220815
C35   C     C_R   0.077417 0.368171 0.558764 -0.224109
C36   C     C_R   0.721256 0.314555 0.167997 -0.220815
C37   C     C_R   0.721257 0.685445 0.167996 -0.220814
C38   C     C_R   0.278743 0.314555 0.832003 -0.220814
C39   C     C_R   0.072308 0.102653 0.936208 0.916877
C40   C     C_R   0.927692 0.897346 0.063792 0.916877
C41   C     C_R   0.927692 0.102654 0.063792 0.916876
C42   C     C_R   0.072308 0.897346 0.936208 0.916876
C43   C     C_R   0.572308 0.602653 0.936208 0.916877
C44   C     C_R   0.427692 0.397346 0.063792 0.916877
C45   C     C_R   0.427692 0.602654 0.063792 0.916876
C46   C     C_R   0.922583 0.631829 0.441236 -0.224109
C47   C     C_R   0.572308 0.397346 0.936208 0.916876
C48   C     C_R   0.538403 0.132531 0.530430 0.110216
C49   C     C_R   0.461597 0.867469 0.469570 0.110216
C50   C     C_R   0.461597 0.132531 0.469569 0.110217
C51   C     C_R   0.538403 0.867469 0.530430 0.110217
C52   C     C_R   0.038403 0.632531 0.530430 0.110216
C53   C     C_R   0.961597 0.367469 0.469570 0.110216
C54   C     C_R   0.961597 0.632531 0.469569 0.110217
C55   C     C_R   0.038403 0.367469 0.530430 0.110217
C56   C     C_R   0.518515 0.198745 0.516313 -0.207409
C57   C     C_R   0.922583 0.368171 0.441236 -0.224109
C58   C     C_R   0.481485 0.801254 0.483687 -0.207409
C59   C     C_R   0.481485 0.198745 0.483686 -0.207410
C60   C     C_R   0.518515 0.801254 0.516313 -0.207410
C61   C     C_R   0.018515 0.698746 0.516313 -0.207409
C62   C     C_R   0.981485 0.301254 0.483687 -0.207409
C63   C     C_R   0.981485 0.698746 0.483686 -0.207410
C64   C     C_R   0.018515 0.301254 0.516313 -0.207410
C65   C     C_R   0.480130 0.066212 0.486028 0.028972
C66   C     C_R   0.519870 0.933788 0.513972 0.028972
C67   C     C_R   0.519870 0.066212 0.513972 0.028972
C68   C     C_R   0.077417 0.631829 0.558764 -0.224109
C69   C     C_R   0.480130 0.933788 0.486028 0.028972
C70   C     C_R   0.980130 0.566212 0.486028 0.028972
C71   C     C_R   0.019870 0.433788 0.513972 0.028972
C72   C     C_R   0.019870 0.566212 0.513972 0.028972
C73   C     C_R   0.980130 0.433788 0.486028 0.028972
C74   C     C_R   0.959660 0.500000 0.472984 -0.042843
C75   C     C_R   0.040340 0.500000 0.527016 -0.042843
C76   C     C_R   0.459660 1.000000 0.472984 -0.042843
C77   C     C_R   0.540339 1.000000 0.527016 -0.042843
C78   C     C_R   0.894791 0.433353 0.442722 0.026004
C79   C     C_R   0.577417 0.868171 0.558764 -0.224109
C80   C     C_R   0.105209 0.566647 0.557278 0.026004
C81   C     C_R   0.105209 0.433353 0.557278 0.026005
C82   C     C_R   0.894791 0.566647 0.442722 0.026005
C83   C     C_R   0.394790 0.933353 0.442722 0.026004
C84   C     C_R   0.605209 0.066647 0.557278 0.026004
C85   C     C_R   0.605209 0.933353 0.557278 0.026005
C86   C     C_R   0.394791 0.066647 0.442722 0.026005
C87   C     C_R   0.845923 0.434382 0.436070 -0.162553
C88   C     C_R   0.154077 0.565618 0.563929 -0.162553
C89   C     C_R   0.154077 0.434382 0.563929 -0.162554
C90   C     C_R   0.422583 0.131829 0.441236 -0.224109
C91   C     C_R   0.845923 0.565618 0.436070 -0.162554
C92   C     C_R   0.345923 0.934382 0.436070 -0.162553
C93   C     C_R   0.654077 0.065618 0.563929 -0.162553
C94   C     C_R   0.654077 0.934382 0.563929 -0.162554
C95   C     C_R   0.345923 0.065618 0.436070 -0.162554
C96   C     C_R   0.827633 0.500000 0.418090 0.025458
C97   C     C_R   0.172366 0.500000 0.581910 0.025458
C98   C     C_R   0.327634 1.000000 0.418090 0.025458
C99   C     C_R   0.672366 0.000000 0.581910 0.025458
C100  C     C_R   0.422583 0.868171 0.441236 -0.224109
C101  C     C_R   0.298970 0.733806 0.322963 0.892184
C102  C     C_R   0.577417 0.131829 0.558764 -0.224109
C103  C     C_R   0.717845 0.260579 0.957257 0.019035
C104  C     C_R   0.282155 0.739421 0.042743 0.019035
C105  C     C_R   0.282155 0.260579 0.042743 0.019035
C106  C     C_R   0.717845 0.739421 0.957257 0.019035
C107  C     C_R   0.217845 0.760579 0.957257 0.019035
C108  C     C_R   0.782155 0.239421 0.042743 0.019035
C109  C     C_R   0.782155 0.760579 0.042743 0.019035
C110  C     C_R   0.217845 0.239421 0.957257 0.019035
C111  C     C_R   0.766817 0.220652 0.913194 0.050709
C112  C     C_R   0.298970 0.266194 0.322963 0.892184
C113  C     C_R   0.233183 0.779348 0.086806 0.050709
C114  C     C_R   0.233183 0.220651 0.086806 0.050709
C115  C     C_R   0.766817 0.779348 0.913194 0.050709
C116  C     C_R   0.266817 0.720652 0.913194 0.050709
C117  C     C_R   0.733183 0.279348 0.086806 0.050709
C118  C     C_R   0.733183 0.720652 0.086806 0.050709
C119  C     C_R   0.266817 0.279348 0.913194 0.050709
C120  C     C_R   0.800250 0.213005 0.954295 0.050617
C121  C     C_R   0.199750 0.786995 0.045705 0.050617
C122  C     C_R   0.199750 0.213005 0.045704 0.050617
C123  C     C_R   0.701030 0.733806 0.677037 0.892184
C124  C     C_R   0.800250 0.786995 0.954295 0.050617
C125  C     C_R   0.300250 0.713005 0.954295 0.050617
C126  C     C_R   0.699750 0.286995 0.045705 0.050617
C127  C     C_R   0.699750 0.713005 0.045704 0.050617
C128  C     C_R   0.300250 0.286995 0.954295 0.050617
C129  C     C_R   0.638146 0.314569 0.955905 0.071023
C130  C     C_R   0.361854 0.685431 0.044095 0.071023
C131  C     C_R   0.361854 0.314569 0.044095 0.071023
C132  C     C_R   0.638146 0.685431 0.955905 0.071023
C133  C     C_R   0.138146 0.814569 0.955905 0.071023
C134  C     C_R   0.201030 0.766194 0.677037 0.892184
C135  C     C_R   0.861854 0.185431 0.044095 0.071023
C136  C     C_R   0.861854 0.814569 0.044095 0.071023
C137  C     C_R   0.138146 0.185431 0.955905 0.071023
C138  C     C_R   0.612989 0.339443 0.904765 -0.138402
C139  C     C_R   0.387011 0.660557 0.095235 -0.138402
C140  C     C_R   0.387011 0.339443 0.095235 -0.138402
C141  C     C_R   0.612989 0.660557 0.904765 -0.138402
C142  C     C_R   0.112989 0.839443 0.904765 -0.138402
C143  C     C_R   0.887011 0.160557 0.095235 -0.138402
C144  C     C_R   0.887011 0.839443 0.095235 -0.138402
C145  C     C_R   0.798970 0.233806 0.322963 0.892184
C146  C     C_R   0.112989 0.160557 0.904765 -0.138402
C147  C     C_R   0.632079 0.316873 0.817125 -0.309542
C148  C     C_R   0.367921 0.683126 0.182875 -0.309542
C149  C     C_R   0.367921 0.316873 0.182875 -0.309542
C150  C     C_R   0.632079 0.683126 0.817125 -0.309542
C151  C     C_R   0.132079 0.816873 0.817125 -0.309542
C152  C     C_R   0.867921 0.183126 0.182875 -0.309542
C153  C     C_R   0.867921 0.816873 0.182875 -0.309542
C154  C     C_R   0.132079 0.183126 0.817125 -0.309542
C155  C     C_R   0.677645 0.273657 0.775072 -0.124200
C156  C     C_R   0.798970 0.766194 0.322963 0.892184
C157  C     C_R   0.322355 0.726343 0.224928 -0.124200
C158  C     C_R   0.322355 0.273657 0.224928 -0.124200
C159  C     C_R   0.677645 0.726343 0.775072 -0.124199
C160  C     C_R   0.177645 0.773657 0.775072 -0.124200
C161  C     C_R   0.822355 0.226343 0.224928 -0.124200
C162  C     C_R   0.822355 0.773657 0.224928 -0.124200
C163  C     C_R   0.177645 0.226343 0.775072 -0.124199
C164  C     C_R   0.704371 0.248384 0.824242 0.074796
C165  C     C_R   0.295629 0.751616 0.175758 0.074796
C166  C     C_R   0.295629 0.248384 0.175758 0.074796
C167  C     C_R   0.201030 0.233806 0.677037 0.892184
C168  C     C_R   0.704371 0.751616 0.824242 0.074796
C169  C     C_R   0.204371 0.748384 0.824242 0.074796
C170  C     C_R   0.795628 0.251616 0.175758 0.074796
C171  C     C_R   0.795629 0.748384 0.175758 0.074796
C172  C     C_R   0.204371 0.251616 0.824242 0.074796
C173  C     C_R   0.690611 0.129509 0.537405 0.909752
C174  C     C_R   0.309389 0.870491 0.462594 0.909752
C175  C     C_R   0.309389 0.129509 0.462594 0.909752
C176  C     C_R   0.690611 0.870491 0.537405 0.909752
C177  C     C_R   0.190611 0.629509 0.537405 0.909752
C178  C     C_R   0.916803 0.500000 0.451568 0.064490
C179  C     C_R   0.809389 0.370491 0.462594 0.909752
C180  C     C_R   0.809389 0.629509 0.462594 0.909752
C181  C     C_R   0.190611 0.370491 0.537405 0.909752
C182  C     C_R   0.686802 0.274502 0.912409 0.074841
C183  C     C_R   0.313198 0.725498 0.087591 0.074841
C184  C     C_R   0.313198 0.274502 0.087591 0.074841
C185  C     C_R   0.686802 0.725498 0.912409 0.074841
C186  C     C_R   0.186802 0.774502 0.912409 0.074841
C187  C     C_R   0.813198 0.225498 0.087591 0.074841
C188  C     C_R   0.813198 0.774502 0.087591 0.074841
H1    H     H_    0.032707 0.249524 0.528131 0.133604
H2    H     H_    0.915490 0.682832 0.416777 0.172051
H3    H     H_    0.915490 0.317168 0.416777 0.172051
H4    H     H_    0.084510 0.682832 0.583222 0.172051
H5    H     H_    0.584510 0.817168 0.583222 0.172051
H6    H     H_    0.415490 0.182832 0.416777 0.172051
H7    H     H_    0.415490 0.817168 0.416777 0.172051
H8    H     H_    0.584510 0.182832 0.583222 0.172051
H9    H     H_    0.612981 0.337095 0.779136 0.191051
H10   H     H_    0.387019 0.662905 0.220864 0.191051
H11   H     H_    0.387019 0.337095 0.220864 0.191051
H12   H     H_    0.967292 0.750476 0.471869 0.133604
H13   H     H_    0.612981 0.662905 0.779136 0.191051
H14   H     H_    0.112981 0.837095 0.779136 0.191051
H15   H     H_    0.887019 0.162905 0.220864 0.191051
H16   H     H_    0.887019 0.837095 0.220864 0.191051
H17   H     H_    0.112981 0.162905 0.779136 0.191051
H18   H     H_    0.574851 0.343849 0.091724 0.167586
H19   H     H_    0.425149 0.656151 0.908276 0.167586
H20   H     H_    0.425148 0.343849 0.908275 0.167586
H21   H     H_    0.574851 0.656151 0.091724 0.167586
H22   H     H_    0.074851 0.843849 0.091724 0.167586
H23   H     H_    0.967292 0.249524 0.471869 0.133603
H24   H     H_    0.925149 0.156151 0.908276 0.167586
H25   H     H_    0.925148 0.843849 0.908275 0.167586
H26   H     H_    0.074852 0.156151 0.091724 0.167586
H27   H     H_    0.627622 0.327718 0.163524 0.138945
H28   H     H_    0.372378 0.672282 0.836476 0.138945
H29   H     H_    0.372378 0.327719 0.836477 0.138945
H30   H     H_    0.627622 0.672281 0.163523 0.138945
H31   H     H_    0.127622 0.827718 0.163524 0.138945
H32   H     H_    0.872378 0.172282 0.836476 0.138945
H33   H     H_    0.872378 0.827719 0.836477 0.138945
H34   H     H_    0.032707 0.750476 0.528131 0.133603
H35   H     H_    0.127622 0.172281 0.163523 0.138945
H36   H     H_    0.756513 0.162663 0.733151 0.171068
H37   H     H_    0.243487 0.837337 0.266849 0.171068
H38   H     H_    0.243487 0.162663 0.266848 0.171068
H39   H     H_    0.756513 0.837337 0.733151 0.171068
H40   H     H_    0.256513 0.662663 0.733151 0.171068
H41   H     H_    0.743487 0.337337 0.266849 0.171068
H42   H     H_    0.743487 0.662663 0.266848 0.171068
H43   H     H_    0.256513 0.337337 0.733151 0.171068
H44   H     H_    0.811165 0.146002 0.801079 0.138181
H45   H     H_    0.532707 0.749524 0.528131 0.133604
H46   H     H_    0.188834 0.853998 0.198921 0.138181
H47   H     H_    0.188835 0.146001 0.198920 0.138181
H48   H     H_    0.811165 0.853999 0.801079 0.138181
H49   H     H_    0.311165 0.646002 0.801079 0.138181
H50   H     H_    0.688834 0.353998 0.198921 0.138181
H51   H     H_    0.688835 0.646001 0.198920 0.138181
H52   H     H_    0.311165 0.353999 0.801079 0.138181
H53   H     H_    0.797343 0.544442 0.341801 0.167660
H54   H     H_    0.797343 0.455558 0.341801 0.167660
H55   H     H_    0.202656 0.455558 0.658199 0.167660
H56   H     H_    0.467292 0.250476 0.471869 0.133604
H57   H     H_    0.202656 0.544442 0.658199 0.167660
H58   H     H_    0.297343 0.044442 0.341801 0.167660
H59   H     H_    0.297343 0.955557 0.341801 0.167660
H60   H     H_    0.702657 0.955558 0.658199 0.167660
H61   H     H_    0.702656 0.044442 0.658199 0.167660
H62   H     H_    0.467292 0.749524 0.471869 0.133603
H63   H     H_    0.532708 0.250476 0.528131 0.133603
H64   H     H_    0.084510 0.317168 0.583222 0.172051
N1    N     N_3   0.788876 0.500000 0.385355 -0.399028
N2    N     N_3   0.211124 0.500000 0.614645 -0.399028
N3    N     N_3   0.288876 1.000000 0.385355 -0.399028
N4    N     N_3   0.711124 1.000000 0.614645 -0.399028
O1    O     O_R   0.746490 0.236330 0.638080 -0.641291
O2    O     O_R   0.325830 0.813840 0.483730 -0.639695
O3    O     O_R   0.325830 0.186160 0.483730 -0.639695
O4    O     O_R   0.674170 0.813840 0.516270 -0.639695
O5    O     O_R   0.174170 0.686160 0.516270 -0.639695
O6    O     O_R   0.825830 0.313840 0.483730 -0.639695
O7    O     O_R   0.825830 0.686160 0.483730 -0.639695
O8    O     O_R   0.174170 0.313840 0.516270 -0.639695
O9    O     O_R   0.739960 0.127620 0.525000 -0.600279
O10   O     O_R   0.260040 0.872380 0.475000 -0.600279
O11   O     O_R   0.260040 0.127620 0.475000 -0.600280
O12   O     O_R   0.253510 0.763670 0.361920 -0.641291
O13   O     O_R   0.739960 0.872380 0.525000 -0.600280
O14   O     O_R   0.239960 0.627620 0.525000 -0.600279
O15   O     O_R   0.760040 0.372380 0.475000 -0.600279
O16   O     O_R   0.760040 0.627620 0.475000 -0.600280
O17   O     O_R   0.239960 0.372380 0.525000 -0.600280
O18   O     O_R   0.680700 0.294870 0.629350 -0.626293
O19   O     O_R   0.319300 0.705130 0.370650 -0.626293
O20   O     O_R   0.319300 0.294870 0.370650 -0.626293
O21   O     O_R   0.680700 0.705130 0.629350 -0.626293
O22   O     O_R   0.180700 0.794870 0.629350 -0.626293
O23   O     O_R   0.253510 0.236330 0.361920 -0.641291
O24   O     O_R   0.819300 0.205130 0.370650 -0.626293
O25   O     O_R   0.819300 0.794870 0.370650 -0.626293
O26   O     O_R   0.180700 0.205130 0.629350 -0.626293
O27   O     O_R   0.062020 0.072840 0.007170 -0.626072
O28   O     O_R   0.937980 0.927160 0.992830 -0.626072
O29   O     O_R   0.937980 0.072840 0.992830 -0.626072
O30   O     O_R   0.062020 0.927160 0.007170 -0.626072
O31   O     O_R   0.562020 0.572840 0.007170 -0.626072
O32   O     O_R   0.437980 0.427160 0.992830 -0.626072
O33   O     O_R   0.437980 0.572840 0.992830 -0.626072
O34   O     O_R   0.746490 0.763670 0.638080 -0.641291
O35   O     O_R   0.562020 0.427160 0.007170 -0.626072
O36   O     O_R   0.947860 0.073950 0.109290 -0.619805
O37   O     O_R   0.052140 0.926050 0.890710 -0.619805
O38   O     O_R   0.052140 0.073950 0.890710 -0.619806
O39   O     O_R   0.947860 0.926050 0.109290 -0.619806
O40   O     O_R   0.447860 0.573950 0.109290 -0.619805
O41   O     O_R   0.552140 0.426050 0.890710 -0.619805
O42   O     O_R   0.552140 0.573950 0.890710 -0.619806
O43   O     O_R   0.447860 0.426050 0.109290 -0.619806
O44   O     O_R   0.246490 0.736330 0.638080 -0.641291
O45   O     O_R   0.753510 0.263670 0.361920 -0.641291
O46   O     O_R   0.753510 0.736330 0.361920 -0.641291
O47   O     O_R   0.246490 0.263670 0.638080 -0.641291
O48   O     O_R   0.674170 0.186160 0.516270 -0.639695
Zn1   Zn    Zn3+2 0.792340 0.208750 0.507670 0.938354
Zn2   Zn    Zn3+2 0.494040 0.500000 0.919480 0.919816
Zn3   Zn    Zn3+2 0.005960 0.000000 0.080520 0.919817
Zn4   Zn    Zn3+2 0.994040 0.000000 0.919480 0.919816
Zn5   Zn    Zn3+2 0.207660 0.791250 0.492330 0.938354
Zn6   Zn    Zn3+2 0.207660 0.208750 0.492330 0.938354
Zn7   Zn    Zn3+2 0.792340 0.791250 0.507670 0.938354
Zn8   Zn    Zn3+2 0.292340 0.708750 0.507670 0.938354
Zn9   Zn    Zn3+2 0.707660 0.291250 0.492330 0.938354
Zn10  Zn    Zn3+2 0.707660 0.708750 0.492330 0.938354
Zn11  Zn    Zn3+2 0.292340 0.291250 0.507670 0.938354
Zn12  Zn    Zn3+2 0.505960 0.500000 0.080520 0.919817

loop_
_geom_bond_atom_site_label_1
_geom_bond_atom_site_label_2
_ccdc_geom_bond_type
O14   Zn8   S    
C108  C120  A    
C47   O35   A    
C177  O14   A    
C88   C177  S    
C22   H37   S    
C112  C158  S    
C50   C59   A    
O5    Zn5   S    
C41   C143  S    
C52   C61   A    
C156  O25   A    
C37   H51   S    
O38   Zn4   S    
C54   C63   A    
C58   C60   A    
C45   C139  S    
C61   C63   A    
C103  C126  A    
C95   C175  S    
C62   C64   A    
C131  C140  A    
C91   C96   A    
C27   H41   S    
C162  C171  A    
C170  C187  A    
C70   C74   A    
C4    C12   A    
C147  C155  A    
C24   C85   A    
C88   C97   A    
C17   H31   S    
C119  C128  A    
O34   Zn7   S    
C49   C69   A    
O15   Zn9   S    
C156  O46   A    
C41   O29   A    
C109  C118  A    
O22   Zn5   S    
C31   H46   S    
C11   C20   A    
C150  C159  A    
C165  C183  A    
C112  O20   A    
C137  C146  A    
C166  C184  A    
C86   C90   A    
C71   C73   A    
C106  C127  A    
C82   C91   A    
C51   C66   A    
C89   C181  S    
C142  C151  A    
C52   C72   A    
C5    H19   S    
C131  C184  A    
O44   Zn8   S    
O18   Zn9   S    
C54   C70   A    
C82   C178  A    
C39   O38   A    
C134  O44   A    
C36   C117  A    
O32   Zn2   S    
C7    C132  A    
C42   O30   A    
C33   H48   S    
C149  H11   S    
C38   C119  A    
C5    C130  A    
C83   C100  A    
O8    Zn6   S    
C28   H42   S    
C79   C85   A    
O23   Zn6   S    
H57   N2    S    
C66   C77   A    
C57   C78   A    
C60   H45   S    
C123  O21   A    
C10   H25   S    
C8    C17   A    
C56   C59   A    
C106  C115  A    
C80   C88   A    
C145  C161  S    
C93   C173  S    
C35   H64   S    
C84   C93   A    
C105  C184  A    
C86   C95   A    
C11   H26   S    
C38   H52   S    
C24   C77   A    
C104  C183  A    
C12   C126  A    
C167  O47   A    
H58   N3    S    
C45   O33   A    
C2    C81   A    
C150  H13   S    
C55   C71   A    
C2    C75   A    
O29   Zn4   S    
C78   C87   A    
C134  C160  S    
O30   Zn3   S    
C84   C102  A    
C67   C77   A    
O7    Zn7   S    
C18   H32   S    
C141  C150  A    
C181  O17   A    
C133  C142  A    
C123  C159  S    
C130  C183  A    
C2    C80   A    
C3    C110  A    
C56   H63   S    
C69   C76   A    
C85   C94   A    
O10   Zn5   S    
C123  O34   A    
C61   H34   S    
C177  O5    A    
C46   C82   A    
C29   C38   A    
C13   C76   A    
C152  H15   S    
C16   H30   S    
C149  C158  A    
C20   C122  A    
C152  C161  A    
C135  C143  A    
C48   C67   A    
C136  C188  A    
C72   C75   A    
C8    H22   S    
C135  C187  A    
C98   N3    S    
C145  O45   A    
C176  O13   A    
C25   C168  A    
C139  C148  A    
C157  C165  A    
C92   C174  S    
C25   H39   S    
C59   H56   S    
C99   N4    S    
C91   C180  S    
C14   H28   S    
O20   Zn11  S    
C1    O18   A    
O36   Zn3   S    
O43   Zn12  S    
O17   Zn11  S    
C9    C135  A    
C101  O12   A    
C116  C125  A    
H53   N1    S    
C118  C127  A    
C117  C126  A    
O24   Zn1   S    
C40   O28   A    
C108  C117  A    
C110  C119  A    
C174  O2    A    
C179  O15   A    
C79   H5    S    
O28   Zn4   S    
C181  O8    A    
C28   C37   A    
C47   C138  S    
C148  C157  A    
O6    Zn1   S    
C50   C65   A    
C51   C79   A    
C107  C116  A    
C154  H17   S    
O47   Zn11  S    
C104  C113  A    
C9    C18   A    
C113  C121  A    
C173  O48   A    
O4    Zn10  S    
H54   N1    S    
C51   C60   A    
O1    Zn1   S    
C140  C149  A    
C31   C113  A    
C25   C33   A    
O3    Zn11  S    
O39   Zn3   S    
C129  C182  A    
O40   Zn12  S    
C73   C74   A    
C173  O9    A    
C64   H1    S    
O48   Zn9   S    
C107  C186  A    
O45   Zn9   S    
C65   C76   A    
C171  C188  A    
C169  C186  A    
C57   H3    S    
C3    C172  A    
C9    H24   S    
C132  C141  A    
C63   H12   S    
C103  C111  A    
C104  C125  A    
C26   H40   S    
C65   C67   A    
C50   C90   A    
C160  C169  A    
C3    C137  A    
C15   H29   S    
C93   C99   A    
O12   Zn5   S    
C81   C89   A    
C101  C157  S    
C44   C140  S    
C21   C164  A    
O46   Zn10  S    
C130  C139  A    
C7    H21   S    
C1    O1    A    
C36   H50   S    
C33   C115  A    
C134  O22   A    
C29   H43   S    
C175  O11   A    
O37   Zn4   S    
C53   C57   A    
C176  O4    A    
O33   Zn2   S    
O35   Zn12  S    
C132  C185  A    
C105  C114  A    
C90   H6    S    
C10   C19   A    
C48   C102  A    
C46   C54   A    
O16   Zn10  S    
C14   C125  A    
C27   C170  A    
C5    C14   A    
C180  O16   A    
C17   C121  A    
C143  C152  A    
C43   O42   A    
C15   C128  A    
C45   O40   A    
C43   C141  S    
C107  C121  A    
C151  H14   S    
C23   H38   S    
C158  C166  A    
C100  H7    S    
C180  O7    A    
C115  C124  A    
C78   C178  A    
O25   Zn7   S    
C106  C185  A    
C6    C131  A    
C4    C129  A    
C27   C36   A    
C21   C30   A    
C13   C83   A    
C153  C162  A    
C23   C32   A    
C11   C137  A    
O21   Zn10  S    
C136  C144  A    
C110  C122  A    
C41   O36   A    
C39   C146  S    
C20   H35   S    
C164  C182  A    
H61   N4    S    
C12   H27   S    
C94   C176  S    
C32   H47   S    
H59   N3    S    
O19   Zn8   S    
C68   C80   A    
C74   C178  A    
C21   H36   S    
C103  C182  A    
C108  C187  A    
C19   H33   S    
C35   C81   A    
C95   C98   A    
C92   C98   A    
C83   C92   A    
H55   N2    S    
C47   O41   A    
C10   C136  A    
C96   N1    S    
C179  O6    A    
C66   C69   A    
C68   H4    S    
C34   C116  A    
C159  C168  A    
C30   H44   S    
C144  C153  A    
C1    C155  S    
C34   H49   S    
C6    C15   A    
C22   C165  A    
C26   C34   A    
C37   C118  A    
C26   C169  A    
C39   O27   A    
C146  C154  A    
C13   C86   A    
C42   C142  S    
C62   H23   S    
C52   C68   A    
C174  O10   A    
C153  H16   S    
C156  C162  S    
C46   H2    S    
O26   Zn6   S    
C16   C127  A    
O27   Zn3   S    
C43   O31   A    
C109  C188  A    
C44   O32   A    
C19   C124  A    
C22   C31   A    
C129  C138  A    
C35   C55   A    
C154  C163  A    
O9    Zn1   S    
C49   C58   A    
C89   C97   A    
C111  C120  A    
O31   Zn12  S    
C163  C167  S    
C163  C172  A    
C23   C166  A    
C53   C62   A    
C28   C171  A    
C42   O37   A    
C138  C147  A    
C87   C96   A    
C44   O43   A    
O11   Zn6   S    
C133  C186  A    
O42   Zn2   S    
C161  C170  A    
C40   C144  S    
C58   H62   S    
C145  O24   A    
C18   C120  A    
O41   Zn2   S    
C48   C56   A    
C7    C16   A    
C168  C185  A    
C105  C128  A    
C8    C133  A    
C6    H20   S    
C53   C73   A    
C102  H8    S    
H60   N4    S    
C109  C124  A    
C4    H18   S    
C55   C64   A    
C155  C164  A    
C30   C111  A    
C151  C160  A    
C24   C84   A    
C112  O23   A    
O2    Zn8   S    
C49   C100  A    
C71   C75   A    
C148  H10   S    
C94   C99   A    
C29   C172  A    
C147  H9    S    
C167  O26   A    
C87   C179  S    
C114  C122  A    
C101  O19   A    
C40   O39   A    
C70   C72   A    
C32   C114  A    
C175  O3    A    
C97   N2    S    
O13   Zn7   S    
