data_str_m9_o2_o19_f0_sra.sym.12
_audit_creation_date              2012-12-11T16:28:23-0500
_audit_creation_method            fapswitch 2.2
_symmetry_space_group_name_H-M    P1
_symmetry_Int_Tables_number       1
_space_group_crystal_system       triclinic
_cell_length_a                    16.596198
_cell_length_b                    7.253864
_cell_length_c                    15.201554
_cell_angle_alpha                 90.000368
_cell_angle_beta                  94.737322
_cell_angle_gamma                 89.999141
_cell_volume                      1823.81098298

loop_
_atom_site_label
_atom_site_type_symbol
_atom_type_description
_atom_site_fract_x
_atom_site_fract_y
_atom_site_fract_z
_atom_type_partial_charge
O1    O     O_R   0.663460 0.361760 0.165970 -0.532454
O2    O     O_R   0.336540 0.638240 0.834030 -0.532453
O3    O     O_R   0.836540 0.861760 0.334030 -0.532448
O4    O     O_R   0.163460 0.138240 0.665970 -0.532448
O5    O     O_R   0.827100 0.689870 0.163730 -0.532682
O6    O     O_R   0.172900 0.310130 0.836270 -0.532682
O7    O     O_R   0.672900 0.189870 0.336270 -0.532688
O8    O     O_R   0.327100 0.810130 0.663730 -0.532688
H1    H     H_    0.206687 0.119428 0.506356 0.122957
H2    H     H_    0.793313 0.880572 0.493643 0.122957
H3    H     H_    0.293370 0.619976 0.993554 0.123067
H4    H     H_    0.706630 0.380024 0.006446 0.123067
C1    C     C_R   0.853281 0.522924 0.143571 0.707969
C2    C     C_R   0.146719 0.477075 0.856429 0.707969
C3    C     C_R   0.646719 0.022927 0.356429 0.707992
C4    C     C_R   0.353281 0.977073 0.643571 0.707992
O9    O     O_R   0.663490 0.691370 0.155500 -0.536782
O10   O     O_R   0.336510 0.308630 0.844500 -0.536782
O11   O     O_R   0.836510 0.191370 0.344500 -0.536763
O12   O     O_R   0.163490 0.808630 0.655500 -0.536763
O13   O     O_R   0.671770 0.863320 0.325740 -0.534959
O14   O     O_R   0.328230 0.136680 0.674260 -0.534960
O15   O     O_R   0.828230 0.363320 0.174260 -0.534958
O16   O     O_R   0.171770 0.636680 0.825740 -0.534957
C5    C     C_R   0.636203 0.522883 0.133690 0.671273
C6    C     C_R   0.363797 0.477117 0.866310 0.671273
C7    C     C_R   0.863797 0.022882 0.366310 0.671293
C8    C     C_R   0.136203 0.977118 0.633690 0.671293
O17   O     O_3   0.752910 0.528800 0.305860 -0.374032
O18   O     O_3   0.247090 0.471200 0.694140 -0.374032
O19   O     O_3   0.747090 0.028800 0.194140 -0.374040
O20   O     O_3   0.252910 0.971200 0.805860 -0.374040
V1    V     V_3+5 0.749460 0.803010 0.239640 1.442798
V2    V     V_3+5 0.250540 0.196990 0.760360 1.442798
V3    V     V_3+5 0.750540 0.303010 0.260360 1.442807
V4    V     V_3+5 0.249460 0.696990 0.739640 1.442807
C9    C     C_1   0.468828 0.994796 0.530123 0.048607
C10   C     C_1   0.531171 0.005204 0.469877 0.048607
C11   C     C_1   0.031172 0.494799 0.969877 0.048652
C12   C     C_1   0.968828 0.505201 0.030123 0.048652
H5    H     H_    0.776074 0.746891 0.636171 0.122188
H6    H     H_    0.223926 0.253109 0.363829 0.122188
H7    H     H_    0.723802 0.245765 0.864029 0.122233
H8    H     H_    0.276198 0.754234 0.135970 0.122233
C13   C     C_R   0.023165 0.155798 0.332941 -0.143387
C14   C     C_R   0.976835 0.844202 0.667059 -0.143387
C15   C     C_R   0.476899 0.656404 0.166951 -0.143395
C16   C     C_R   0.523100 0.343595 0.833049 -0.143395
C17   C     C_R   0.099047 0.219593 0.313592 0.399579
C18   C     C_R   0.900953 0.780407 0.686408 0.399579
C19   C     C_R   0.401054 0.720523 0.186242 0.399528
C20   C     C_R   0.598946 0.279477 0.813758 0.399528
C21   C     C_R   0.164393 0.205749 0.377699 -0.216415
C22   C     C_R   0.835607 0.794251 0.622301 -0.216415
C23   C     C_R   0.335706 0.706652 0.122140 -0.216388
C24   C     C_R   0.664294 0.293348 0.877860 -0.216388
C25   C     C_R   0.153800 0.129391 0.460015 -0.176462
C26   C     C_R   0.846199 0.870609 0.539985 -0.176462
C27   C     C_R   0.346263 0.629966 0.039884 -0.176507
C28   C     C_R   0.653737 0.370033 0.960116 -0.176507
C29   C     C_R   0.077188 0.065987 0.481294 0.073158
C30   C     C_R   0.922812 0.934013 0.518706 0.073158
C31   C     C_R   0.422845 0.566282 0.018653 0.073157
C32   C     C_R   0.577155 0.433718 0.981347 0.073157
C33   C     C_R   0.010461 0.079289 0.416382 -0.008644
C34   C     C_R   0.989538 0.920711 0.583618 -0.008644
C35   C     C_R   0.489573 0.579591 0.083563 -0.008611
C36   C     C_R   0.510427 0.420409 0.916437 -0.008611
C37   C     C_R   0.066847 0.986856 0.565020 -0.137602
C38   C     C_R   0.933153 0.013144 0.434980 -0.137602
C39   C     C_R   0.433152 0.486854 0.934982 -0.137639
C40   C     C_R   0.566848 0.513146 0.065018 -0.137639
C41   C     C_1   0.416011 0.986237 0.581471 -0.163248
C42   C     C_1   0.583989 0.013763 0.418529 -0.163248
C43   C     C_1   0.083989 0.486243 0.918529 -0.163312
C44   C     C_1   0.916011 0.513757 0.081471 -0.163312
H9    H     H_    0.974557 0.166186 0.281210 0.131955
H10   H     H_    0.025443 0.833814 0.718789 0.131955
H11   H     H_    0.525502 0.666792 0.218686 0.132034
H12   H     H_    0.474498 0.333207 0.781314 0.132033
O21   O     O_3   0.107367 0.293541 0.231215 -0.648427
H13   H     H_    0.164371 0.332147 0.227889 0.284525
O22   O     O_3   0.892633 0.706459 0.768785 -0.648427
H14   H     H_    0.835629 0.667852 0.772111 0.284525
O23   O     O_3   0.392771 0.794806 0.268560 -0.648456
H15   H     H_    0.335802 0.833724 0.271831 0.284528
O24   O     O_3   0.607229 0.205194 0.731440 -0.648456
H16   H     H_    0.664198 0.166276 0.728169 0.284528

loop_
_geom_bond_atom_site_label_1
_geom_bond_atom_site_label_2
_ccdc_geom_bond_type
C26   C30   A    
O24   H16   S    
C23   C27   A    
C8    C37   S    
O10   C6    A    
C15   H11   S    
O6    V2    S    
C19   O23   S    
O21   H13   S    
O23   H15   S    
C30   C38   A    
C18   C22   A    
C32   C36   A    
H2    C26   S    
C14   C34   A    
H6    C21   S    
C10   C42   T    
C34   C37   A    
O13   V1    S    
O3    V1    S    
C2    O16   A    
C33   C38   A    
O2    V4    S    
C1    O15   A    
C35   C40   A    
O8    V4    S    
C17   O21   S    
C9    C41   T    
O5    V1    S    
O19   V1    S    
C11   C43   T    
O11   C7    A    
O5    C1    A    
O7    C3    A    
O8    C4    A    
O1    C5    A    
C6    C39   S    
O9    V1    S    
H3    C27   S    
C15   C35   A    
O4    C8    A    
C18   O22   S    
O4    V2    S    
O14   V2    S    
C31   C35   A    
C30   C34   A    
C4    C41   S    
C11   C12   S    
C14   H10   S    
C21   C25   A    
C15   C19   A    
O12   C8    A    
C19   C23   A    
C12   C44   T    
O20   V2    S    
C9    C10   S    
O6    C2    A    
O22   H14   S    
C1    C44   S    
C13   C17   A    
O2    C6    A    
C5    C40   S    
O16   V4    S    
C16   C36   A    
O10   V2    S    
C7    C38   S    
H4    C28   S    
C31   C39   A    
O15   V3    S    
C13   C33   A    
O1    V3    S    
C22   C26   A    
C29   C37   A    
C14   C18   A    
C4    O14   A    
O7    V3    S    
C20   O24   S    
C25   C29   A    
O17   V3    S    
C27   C31   A    
O18   V4    S    
C28   C32   A    
O9    C5    A    
C2    C43   S    
C16   H12   S    
O3    C7    A    
O11   V3    S    
H8    C23   S    
C3    O13   A    
C36   C39   A    
C17   C21   A    
H1    C25   S    
C32   C40   A    
H5    C22   S    
O12   V4    S    
C29   C33   A    
H7    C24   S    
C16   C20   A    
C3    C42   S    
C24   C28   A    
C13   H9    S    
C20   C24   A    
