data_str_m3_o1_o29_f0_pcu.sym.106
_audit_creation_date              2013-03-05T16:12:44-0500
_audit_creation_method            fapswitch 2.2
_symmetry_space_group_name_H-M    P1
_symmetry_Int_Tables_number       1
_space_group_crystal_system       triclinic
_cell_length_a                    10.694811
_cell_length_b                    9.796878
_cell_length_c                    27.046818
_cell_angle_alpha                 91.509088
_cell_angle_beta                  90.126897
_cell_angle_gamma                 90.245104
_cell_volume                      2832.83438268

loop_
_atom_site_label
_atom_site_type_symbol
_atom_site_description
_atom_site_fract_x
_atom_site_fract_y
_atom_site_fract_z
_atom_type_partial_charge
O1    O     O_R   0.316770 0.614620 0.500000 -0.619268
O2    O     O_R   0.683230 0.385380 0.500000 -0.652986
O3    O     O_R   0.683230 0.614620 0.500000 -0.616310
O4    O     O_R   0.316770 0.385380 0.500000 -0.636043
C1    C     C_R   0.259762 0.499810 0.500092 0.931948
C2    C     C_R   0.740220 0.500163 0.499639 0.936846
O5    O     O_R   0.500030 0.614650 0.428760 -0.605058
O6    O     O_R   0.499970 0.385350 0.571240 -0.597439
O7    O     O_R   0.499970 0.614650 0.571240 -0.613999
O8    O     O_R   0.500030 0.385350 0.428760 -0.631408
C3    C     C_R   0.499722 0.497814 0.405519 1.055297
C4    C     C_R   0.502754 0.501924 0.594684 1.016660
Zn1   Zn    Zn3+2 0.500000 0.653120 0.500000 0.974863
Zn2   Zn    Zn3+2 0.500000 0.346880 0.500000 0.948449
C5    C     C_R   0.339936 0.361435 0.180569 0.631450
C6    C     C_R   0.598551 0.501694 0.828554 0.650247
O9    O     O_2   0.236368 0.355404 0.208666 -0.530405
O10   O     O_2   0.695860 0.454151 0.801600 -0.546182
N1    N     N_R   0.454961 0.356906 0.202596 -0.329681
N2    N     N_R   0.494774 0.548034 0.804906 -0.308000
C7    C     C_R   0.542948 0.281223 0.177824 0.608689
C8    C     C_R   0.391022 0.590585 0.830176 0.632682
C9    C     C_R   0.594449 0.407116 0.275847 0.394664
C10   C     C_R   0.425560 0.437602 0.727873 0.370751
C11   C     C_R   0.596728 0.420169 0.327624 0.302074
C12   C     C_R   0.436637 0.417409 0.676410 0.282496
C13   C     C_R   0.401305 0.548781 0.323790 -0.183419
C14   C     C_R   0.580693 0.612985 0.673508 -0.164744
C15   C     C_R   0.397409 0.523648 0.272064 -0.107231
C16   C     C_R   0.568529 0.633620 0.725090 -0.121799
C17   C     C_R   0.480437 0.425508 0.250444 0.057833
C18   C     C_R   0.492795 0.543461 0.751892 0.164987
C19   C     C_R   0.445127 0.345872 0.101976 -0.100618
C20   C     C_R   0.486993 0.514898 0.905770 -0.100879
C21   C     C_R   0.332855 0.368906 0.128592 -0.102792
C22   C     C_R   0.600826 0.496048 0.880332 -0.109193
C23   C     C_R   0.221694 0.397659 0.102116 -0.109408
C24   C     C_R   0.710843 0.469310 0.907560 -0.063808
C25   C     C_R   0.550392 0.290572 0.126214 -0.068035
C26   C     C_R   0.383884 0.574679 0.881764 -0.032959
C27   C     C_R   0.498039 0.489087 0.351580 -0.225208
C28   C     C_R   0.509084 0.508911 0.649016 -0.220687
C29   C     C_R   0.359412 0.481426 0.979378 0.090205
C30   C     C_R   0.565331 0.358006 0.025946 0.083287
C31   C     C_R   0.581093 0.416375 0.979037 -0.073906
C32   C     C_R   0.345106 0.425674 0.026950 -0.043834
C33   C     C_R   0.475774 0.470733 0.954845 0.014337
C34   C     C_R   0.451614 0.376167 0.051448 0.016350
C35   C     C_R   0.265612 0.561225 0.957899 -0.261352
C36   C     C_R   0.658886 0.278620 0.047746 -0.268760
C37   C     C_R   0.277063 0.610255 0.910132 -0.056662
C38   C     C_R   0.655587 0.248610 0.097858 -0.027896
O11   O     O_2   0.293633 0.640358 0.804734 -0.534034
O12   O     O_2   0.612793 0.190912 0.202246 -0.480147
C39   C     C_R   0.227545 0.412243 0.050582 0.377006
C40   C     C_R   0.700983 0.437060 0.957668 0.364997
H1    H     H_    0.185990 0.594755 0.979322 0.190975
H2    H     H_    0.737792 0.242490 0.026246 0.178192
C41   C     C_R   0.063458 0.379195 0.487215 -0.170188
C42   C     C_R   0.936527 0.621140 0.511419 -0.138850
C43   C     C_R   0.935421 0.379524 0.486882 -0.192788
C44   C     C_R   0.064491 0.620814 0.511735 -0.183227
H3    H     H_    0.112021 0.285506 0.477395 0.148721
H4    H     H_    0.888058 0.714894 0.521237 0.164462
H5    H     H_    0.886032 0.285972 0.476856 0.150704
H6    H     H_    0.113808 0.714438 0.521728 0.151664
C45   C     C_R   0.872544 0.500376 0.499202 0.001664
C46   C     C_R   0.127408 0.499763 0.499769 0.014141
C47   C     C_R   0.590490 0.074300 0.524805 -0.090449
C48   C     C_R   0.409757 0.925693 0.475050 -0.071320
C49   C     C_R   0.409830 0.069871 0.475013 -0.096754
C50   C     C_R   0.590708 0.930123 0.524672 -0.086182
H7    H     H_    0.662402 0.130942 0.544770 0.132177
H8    H     H_    0.337854 0.869033 0.455075 0.153091
H9    H     H_    0.338036 0.122998 0.454999 0.132536
H10   H     H_    0.662800 0.877030 0.544529 0.145082
N3    N     N_R   0.500000 0.857200 0.500000 -0.082296
N4    N     N_R   0.500000 0.142800 0.500000 -0.087131
C51   C     C_2   0.304894 0.636691 0.348100 0.418013
H11   H     H_    0.273562 0.729101 0.330778 0.042993
O13   O     O_2   0.256881 0.604774 0.387047 -0.580297
C52   C     C_2   0.671442 0.697677 0.645826 0.429991
H12   H     H_    0.683876 0.805120 0.655263 0.023922
O14   O     O_2   0.736444 0.646731 0.613266 -0.591191
C53   C     C_2   0.318025 0.611297 0.240824 0.515748
H13   H     H_    0.225915 0.642998 0.253110 0.078267
O15   O     O_2   0.356724 0.651721 0.201337 -0.573807
C54   C     C_2   0.638855 0.745500 0.751467 0.486726
H14   H     H_    0.727499 0.781526 0.737353 0.058139
O16   O     O_2   0.597630 0.800251 0.789055 -0.542022
C55   C     C_2   0.098402 0.419102 0.125901 0.570195
H15   H     H_    0.017267 0.362963 0.112220 0.057886
O17   O     O_2   0.084627 0.506997 0.158226 -0.548827
C56   C     C_2   0.838214 0.489102 0.887040 0.481817
H16   H     H_    0.914558 0.425599 0.899127 0.066046
O18   O     O_2   0.860588 0.581815 0.859034 -0.551657
O19   O     O_3   0.368248 0.315542 0.652192 -0.649091
C57   C     C_3   0.429750 0.189290 0.657334 0.126969
H17   H     H_    0.438606 0.162698 0.696948 0.186399
H18   H     H_    0.524789 0.192732 0.640557 0.142436
C58   C     C_3   0.353124 0.077579 0.630703 -0.333578
H19   H     H_    0.256369 0.077296 0.645639 0.226441
H20   H     H_    0.348240 0.099192 0.590610 0.239626
C59   C     C_3   0.410540 0.936931 0.637361 -0.933280
H21   H     H_    0.508155 0.935897 0.623683 0.249388
H22   H     H_    0.355692 0.858895 0.616019 0.276291
H23   H     H_    0.410043 0.910073 0.677013 0.276233
O20   O     O_3   0.702638 0.386600 0.354648 -0.647535
C60   C     C_3   0.733978 0.246563 0.348032 0.135420
H24   H     H_    0.836345 0.237566 0.354124 0.173103
H25   H     H_    0.715506 0.204053 0.310176 0.200281
C61   C     C_3   0.666511 0.159223 0.385905 -0.377549
H26   H     H_    0.686968 0.199930 0.423764 0.258099
H27   H     H_    0.564038 0.163292 0.379326 0.235361
C62   C     C_3   0.708078 0.010479 0.382247 -0.947498
H28   H     H_    0.687398 0.966531 0.344822 0.275056
H29   H     H_    0.656918 0.950188 0.409971 0.279940
H30   H     H_    0.809920 0.002748 0.389760 0.263919
O21   O     O_3   0.360171 0.346118 0.756491 -0.651760
C63   C     C_3   0.230050 0.356927 0.748052 0.140878
H31   H     H_    0.202524 0.289399 0.716194 0.179279
H32   H     H_    0.200564 0.463505 0.740424 0.172742
C64   C     C_3   0.160778 0.309295 0.793967 -0.375827
H33   H     H_    0.188268 0.202649 0.801760 0.249483
H34   H     H_    0.187317 0.375235 0.826425 0.232377
C65   C     C_3   0.019301 0.314833 0.786921 -0.840015
H35   H     H_    0.989114 0.421376 0.780646 0.303634
H36   H     H_    0.972285 0.277687 0.820598 0.263639
H37   H     H_    0.990309 0.248704 0.754878 0.259847
O22   O     O_3   0.705826 0.388890 0.250509 -0.583579
C66   C     C_3   0.762919 0.517338 0.242587 0.169092
H38   H     H_    0.865781 0.502676 0.244284 0.205904
H39   H     H_    0.740191 0.596387 0.271693 0.110778
C67   C     C_3   0.729324 0.569179 0.191215 -0.381205
H40   H     H_    0.758133 0.492782 0.162453 0.258542
H41   H     H_    0.626723 0.583774 0.188334 0.237761
C68   C     C_3   0.794023 0.704721 0.181187 -0.879216
H42   H     H_    0.763665 0.784290 0.208560 0.275262
H43   H     H_    0.768875 0.738220 0.143553 0.261598
H44   H     H_    0.897135 0.693371 0.183281 0.295143
C69   C     C_2   0.178106 0.704139 0.893532 0.504557
H45   H     H_    0.081474 0.685333 0.903402 0.057785
O23   O     O_2   0.204401 0.808305 0.871960 -0.509341
C70   C     C_2   0.769111 0.183678 0.118077 0.442100
H46   H     H_    0.814086 0.101921 0.096980 0.033247
O24   O     O_2   0.819256 0.227219 0.155904 -0.512250
O25   O     O_3   0.117356 0.411162 0.023561 -0.677691
C71   C     C_3   0.085036 0.274727 0.009925 0.066788
H47   H     H_    0.981763 0.265703 0.011859 0.196549
H48   H     H_    0.122316 0.196902 0.035542 0.110298
C72   C     C_3   0.127117 0.241185 0.956869 -0.341100
H49   H     H_    0.097905 0.324073 0.932182 0.228694
H50   H     H_    0.230652 0.233729 0.955691 0.225013
C73   C     C_3   0.071205 0.106374 0.937641 -0.890154
H51   H     H_    0.101712 0.021223 0.961096 0.264871
H52   H     H_    0.103405 0.085627 0.899176 0.293645
H53   H     H_    0.967450 0.111617 0.937564 0.260217
O26   O     O_3   0.810033 0.433331 0.985556 -0.691120
C74   C     C_3   0.816183 0.546377 0.019402 0.105958
H54   H     H_    0.874234 0.515313 0.051277 0.188450
H55   H     H_    0.723803 0.576839 0.035043 0.135741
C75   C     C_3   0.878338 0.669200 0.995525 -0.335338
H56   H     H_    0.968508 0.636993 0.978910 0.230269
H57   H     H_    0.817134 0.707498 0.965728 0.228011
C76   C     C_3   0.902329 0.784689 0.033379 -0.949707
H58   H     H_    0.812827 0.819831 0.050034 0.259890
H59   H     H_    0.947178 0.872071 0.014897 0.261527
H60   H     H_    0.965620 0.749769 0.063083 0.284169

loop_
_geom_bond_atom_site_label_1
_geom_bond_atom_site_label_2
_geom_bond_distance
_ccdc_geom_bond_type
C16   C18   1.411343 A    
C58   H19   1.111695 S    
C13   C15   1.414620 A    
O25   C71   1.418315 S    
C71   C72   1.532657 S    
C50   H10   1.081567 S    
C66   C67   1.534319 S    
N1    C17   1.466902 S    
C67   C68   1.525633 S    
C61   H27   1.110949 S    
O19   C57   1.413311 S    
C64   H33   1.111940 S    
C76   H58   1.110977 S    
C53   H13   1.084398 S    
C63   H31   1.110846 S    
O5    C3    1.291273 A    
C68   H43   1.110518 S    
C19   C25   1.418216 A    
O1    C1    1.277163 A    
N1    C7    1.366299 A    
C10   C12   1.406065 A    
C13   C51   1.489290 S    
C60   H25   1.112107 S    
C7    O12   1.345866 S    
C64   H34   1.111766 S    
C40   O26   1.388658 S    
C62   H28   1.110910 S    
Zn2   N4    1.999347 S    
C35   H1    1.078563 S    
O20   C60   1.420496 S    
C42   C44   1.368570 A    
C72   C73   1.525790 S    
C14   C28   1.421419 A    
O7    Zn1   1.973044 S    
C59   H21   1.108354 S    
C4    C28   1.470687 S    
C37   C69   1.481752 S    
C42   C45   1.395943 A    
C62   H29   1.110364 S    
C32   C39   1.418874 A    
C48   H8    1.081704 S    
C36   C38   1.394917 A    
C72   H49   1.110242 S    
C74   H55   1.114396 S    
C47   H7    1.081540 S    
C48   C49   1.412510 A    
C73   H52   1.110520 S    
O3    Zn1   1.997163 S    
C63   C64   1.529860 S    
C6    N2    1.365093 A    
C49   N4    1.364912 A    
O3    C2    1.278376 A    
C53   O15   1.221318 D    
C25   C38   1.419186 A    
C58   H20   1.111491 S    
C48   N3    1.365152 A    
C47   N4    1.365082 A    
O2    C2    1.277047 A    
C1    C46   1.415512 S    
C5    C21   1.411523 A    
C61   H26   1.110030 S    
C29   C32   1.419318 A    
C63   H32   1.116285 S    
C8    O11   1.347212 S    
C75   H57   1.111058 S    
C31   C33   1.414445 A    
C68   H44   1.110300 S    
Zn1   N3    1.999347 S    
C41   C43   1.369365 A    
C23   C55   1.481777 S    
C14   C52   1.489973 S    
C36   H2    1.081424 S    
C71   H47   1.109101 S    
C31   C40   1.423518 A    
C73   H53   1.111050 S    
C70   O24   1.220211 D    
O8    Zn2   1.973049 S    
C60   C61   1.531737 S    
C11   C27   1.405619 A    
C55   H15   1.084503 S    
C51   O13   1.220417 D    
C44   H6    1.083840 S    
C29   C35   1.408218 A    
C64   C65   1.525979 S    
C67   H41   1.110013 S    
O6    Zn2   1.953562 S    
C65   H37   1.111071 S    
C35   C37   1.395608 A    
C9    O22   1.385416 S    
C9    C17   1.412799 A    
C47   C50   1.412401 A    
C5    N1    1.367061 A    
C10   C18   1.403806 A    
C50   N3    1.364872 A    
C41   C46   1.396135 A    
C55   O17   1.220477 D    
C75   C76   1.526275 S    
C13   C27   1.414975 A    
C39   O25   1.385149 S    
C74   H54   1.111021 S    
C7    C25   1.403700 A    
O5    Zn1   1.953568 S    
O6    C4    1.291796 A    
C62   H30   1.110797 S    
C8    C26   1.410219 A    
C24   C56   1.485945 S    
C74   C75   1.530611 S    
C38   C70   1.483171 S    
C59   H23   1.110989 S    
C56   O18   1.221151 D    
C73   H51   1.110897 S    
C67   H40   1.110252 S    
C43   C45   1.397159 A    
C71   H48   1.117824 S    
C6    O10   1.349486 S    
C2    C45   1.415247 S    
C54   O16   1.221031 D    
C57   H17   1.113229 S    
C58   C59   1.525757 S    
C52   O14   1.220832 D    
O26   C74   1.419366 S    
C20   C26   1.415276 A    
C41   H3    1.083788 S    
O1    Zn1   1.993994 S    
C16   C54   1.491780 S    
C66   H38   1.111040 S    
C57   C58   1.528504 S    
C30   C31   1.415437 A    
C12   C28   1.408713 A    
C75   H56   1.108395 S    
N2    C18   1.433492 S    
C30   C36   1.407773 A    
C5    O9    1.346631 S    
C10   O21   1.387464 S    
C65   H36   1.110343 S    
C21   C23   1.419570 A    
C15   C53   1.487728 S    
N2    C8    1.365456 A    
C70   H46   1.085779 S    
C66   H39   1.117540 S    
O21   C63   1.414580 S    
C59   H22   1.110487 S    
C76   H60   1.111184 S    
C26   C37   1.417226 A    
C68   H42   1.110883 S    
C57   H18   1.114775 S    
C44   C46   1.396962 A    
C42   H4    1.083833 S    
C69   O23   1.220896 D    
O22   C66   1.417918 S    
C14   C16   1.410797 A    
C15   C17   1.426465 A    
C60   H24   1.110980 S    
C6    C22   1.403146 A    
C49   H9    1.081602 S    
C65   H35   1.111083 S    
C22   C24   1.415737 A    
C19   C21   1.417216 A    
C3    C27   1.459182 S    
C20   C22   1.410150 A    
C72   H50   1.110471 S    
O4    Zn2   1.997163 S    
C56   H16   1.083717 S    
O2    Zn2   1.993994 S    
O7    C4    1.288279 A    
O8    C3    1.282815 A    
C12   O19   1.384617 S    
C51   H11   1.084271 S    
C23   C39   1.406379 A    
C32   C34   1.410707 A    
C43   H5    1.083825 S    
O4    C1    1.278355 A    
C9    C11   1.403026 A    
C24   C40   1.403752 A    
C54   H14   1.083926 S    
C76   H59   1.110347 S    
C52   H12   1.084122 S    
C19   C34   1.407888 A    
C20   C33   1.412037 A    
C69   H45   1.084160 S    
C29   C33   1.414597 A    
C61   C62   1.526129 S    
C30   C34   1.409108 A    
C11   O20   1.391953 S    
