data_str_m9_o10_o29_f0_sra.sym.24
_audit_creation_date              2012-12-11T14:08:37-0500
_audit_creation_method            fapswitch 2.2
_symmetry_space_group_name_H-M    P1
_symmetry_Int_Tables_number       1
_space_group_crystal_system       triclinic
_cell_length_a                    28.197322
_cell_length_b                    7.184623
_cell_length_c                    17.315801
_cell_angle_alpha                 89.999943
_cell_angle_beta                  101.990792
_cell_angle_gamma                 90.0
_cell_volume                      3431.41825798

loop_
_atom_site_label
_atom_site_type_symbol
_atom_type_description
_atom_site_fract_x
_atom_site_fract_y
_atom_site_fract_z
_atom_type_partial_charge
O1    O     O_R   0.000700 0.436510 0.857920 -0.504297
O2    O     O_R   0.999300 0.563490 0.142080 -0.504297
O3    O     O_R   0.999300 0.936510 0.642080 -0.504297
O4    O     O_R   0.000700 0.063490 0.357920 -0.504297
O5    O     O_R   0.930080 0.766380 0.721890 -0.542429
O6    O     O_R   0.069920 0.233620 0.278110 -0.542429
O7    O     O_R   0.069920 0.266380 0.778110 -0.542429
O8    O     O_R   0.930080 0.733620 0.221890 -0.542429
C1    C     C_R   0.910565 0.597507 0.709196 0.723994
C2    C     C_R   0.089435 0.402493 0.290804 0.723995
C3    C     C_R   0.089435 0.097507 0.790804 0.723995
C4    C     C_R   0.910565 0.902493 0.209196 0.723994
O9    O     O_R   0.996180 0.766230 0.862310 -0.550898
O10   O     O_R   0.003820 0.233770 0.137690 -0.550898
O11   O     O_R   0.003820 0.266230 0.637690 -0.550898
O12   O     O_R   0.996180 0.733770 0.362310 -0.550898
O13   O     O_R   0.065870 0.936460 0.783500 -0.541209
O14   O     O_R   0.934130 0.063540 0.216500 -0.541209
O15   O     O_R   0.934130 0.436460 0.716500 -0.541209
O16   O     O_R   0.065870 0.563540 0.283500 -0.541209
C5    C     C_R   0.997736 0.596096 0.894172 0.684245
C6    C     C_R   0.002263 0.403904 0.105828 0.684245
C7    C     C_R   0.002264 0.096096 0.605828 0.684245
C8    C     C_R   0.997736 0.903903 0.394172 0.684245
O17   O     O_3   0.022790 0.603020 0.723980 -0.373279
O18   O     O_3   0.977210 0.396980 0.276020 -0.373279
O19   O     O_3   0.977210 0.103020 0.776020 -0.373279
O20   O     O_3   0.022790 0.896980 0.223980 -0.373279
V1    V     V_3+5 0.995770 0.877900 0.754830 1.480879
V2    V     V_3+5 0.004230 0.122100 0.245170 1.480879
V3    V     V_3+5 0.004230 0.377900 0.745170 1.480879
V4    V     V_3+5 0.995770 0.622100 0.254830 1.480879
C9    C     C_2   0.006470 0.080294 0.521285 0.140379
C10   C     C_2   0.993530 0.919706 0.478715 0.140379
C11   C     C_2   0.993530 0.580294 0.978715 0.140379
C12   C     C_2   0.006470 0.419706 0.021285 0.140379
C13   C     C_R   0.683760 0.953085 0.027464 0.624724
C14   C     C_R   0.316240 0.046914 0.972535 0.624725
C15   C     C_R   0.316240 0.453080 0.472536 0.624722
C16   C     C_R   0.683760 0.546918 0.527465 0.624722
O21   O     O_2   0.713412 0.941533 0.975690 -0.505891
O22   O     O_2   0.286588 0.058466 0.024310 -0.505891
O23   O     O_2   0.286588 0.441524 0.524310 -0.505891
O24   O     O_2   0.713412 0.558474 0.475690 -0.505891
N1    N     N_R   0.703008 0.950329 0.106856 -0.546257
N2    N     N_R   0.296992 0.049671 0.893144 -0.546256
N3    N     N_R   0.296992 0.450329 0.393144 -0.546257
N4    N     N_R   0.703008 0.549671 0.606856 -0.546257
C17   C     C_R   0.673772 0.966679 0.160505 0.643066
C18   C     C_R   0.326228 0.033321 0.839494 0.643066
C19   C     C_R   0.326228 0.466684 0.339495 0.643069
C20   C     C_R   0.673772 0.533317 0.660505 0.643069
C21   C     C_R   0.781791 0.096550 0.164468 0.418727
C22   C     C_R   0.218209 0.903449 0.835532 0.418727
C23   C     C_R   0.218209 0.596550 0.335531 0.418728
C24   C     C_R   0.781791 0.403450 0.664469 0.418728
C25   C     C_R   0.832601 0.083236 0.189110 -0.286420
C26   C     C_R   0.167399 0.916763 0.810890 -0.286420
C27   C     C_R   0.167399 0.583236 0.310889 -0.286421
C28   C     C_R   0.832601 0.416764 0.689110 -0.286421
C29   C     C_R   0.829262 0.756097 0.154765 -0.193490
C30   C     C_R   0.170738 0.243903 0.845234 -0.193490
C31   C     C_R   0.170738 0.256097 0.345235 -0.193490
C32   C     C_R   0.829262 0.743903 0.654765 -0.193490
C33   C     C_R   0.778892 0.769021 0.129413 -0.165476
C34   C     C_R   0.221108 0.230979 0.870587 -0.165476
C35   C     C_R   0.221108 0.269021 0.370588 -0.165474
C36   C     C_R   0.778892 0.730979 0.629412 -0.165474
C37   C     C_R   0.754911 0.938334 0.134132 0.356482
C38   C     C_R   0.245089 0.061665 0.865868 0.356482
C39   C     C_R   0.245089 0.438334 0.365868 0.356480
C40   C     C_R   0.754911 0.561665 0.634132 0.356480
C41   C     C_R   0.602409 0.980892 0.053459 -0.049063
C42   C     C_R   0.397591 0.019107 0.946540 -0.049063
C43   C     C_R   0.397591 0.480892 0.446541 -0.049063
C44   C     C_R   0.602409 0.519107 0.553459 -0.049063
C45   C     C_R   0.633268 0.970607 0.999469 -0.077107
C46   C     C_R   0.366732 0.029393 0.000530 -0.077107
C47   C     C_R   0.366732 0.470602 0.500531 -0.077107
C48   C     C_R   0.633268 0.529397 0.499470 -0.077107
C49   C     C_R   0.613642 0.990030 0.919045 -0.197517
C50   C     C_R   0.386357 0.009969 0.080955 -0.197517
C51   C     C_R   0.386358 0.490021 0.580956 -0.197518
C52   C     C_R   0.613642 0.509977 0.419045 -0.197518
C53   C     C_R   0.623153 0.983803 0.134822 -0.033955
C54   C     C_R   0.376847 0.016197 0.865178 -0.033955
C55   C     C_R   0.376847 0.483808 0.365178 -0.033955
C56   C     C_R   0.623153 0.516193 0.634822 -0.033956
C57   C     C_R   0.856817 0.913410 0.184419 -0.077779
C58   C     C_R   0.143183 0.086589 0.815581 -0.077779
C59   C     C_R   0.143183 0.413410 0.315581 -0.077779
C60   C     C_R   0.856817 0.586590 0.684419 -0.077779
H1    H     H_    0.846669 0.623468 0.149951 0.142766
H2    H     H_    0.153331 0.376532 0.850048 0.142766
H3    H     H_    0.153331 0.123469 0.350050 0.142767
H4    H     H_    0.846669 0.876531 0.649950 0.142767
H5    H     H_    0.758348 0.647126 0.105742 0.164361
H6    H     H_    0.241652 0.352874 0.894257 0.164361
H7    H     H_    0.241652 0.147127 0.394259 0.164361
H8    H     H_    0.758348 0.852873 0.605741 0.164361
H9    H     H_    0.637626 0.995798 0.877650 0.176638
H10   H     H_    0.362374 0.004200 0.122349 0.176638
H11   H     H_    0.362375 0.495787 0.622350 0.176638
H12   H     H_    0.637625 0.504211 0.377651 0.176638
C61   C     C_R   0.479356 0.996125 0.917658 0.065130
C62   C     C_R   0.520644 0.003875 0.082342 0.065130
C63   C     C_R   0.520644 0.496121 0.582342 0.065130
C64   C     C_R   0.479356 0.503880 0.417658 0.065130
C65   C     C_R   0.469029 0.001968 0.056235 0.003100
C66   C     C_R   0.530971 0.998032 0.943765 0.003099
C67   C     C_R   0.530971 0.501972 0.443765 0.003100
C68   C     C_R   0.469029 0.498028 0.556235 0.003100
C69   C     C_R   0.448925 0.007872 0.973690 -0.001746
C70   C     C_R   0.551075 0.992128 0.026309 -0.001746
C71   C     C_R   0.551075 0.507872 0.526310 -0.001746
C72   C     C_R   0.448924 0.492128 0.473691 -0.001746
C73   C     C_R   0.456612 0.970648 0.837348 -0.100931
C74   C     C_R   0.543388 0.029352 0.162651 -0.100932
C75   C     C_R   0.543388 0.470640 0.662651 -0.100932
C76   C     C_R   0.456612 0.529362 0.337349 -0.100932
C77   C     C_R   0.406736 0.987179 0.811444 -0.163011
C78   C     C_R   0.593264 0.012822 0.188556 -0.163011
C79   C     C_R   0.593264 0.487170 0.688556 -0.163011
C80   C     C_R   0.406736 0.512831 0.311444 -0.163011
O25   O     O_2   0.306426 0.033658 0.761533 -0.502448
O26   O     O_2   0.693574 0.966343 0.238466 -0.502448
O27   O     O_2   0.693574 0.533650 0.738467 -0.502447
O28   O     O_2   0.306426 0.466352 0.261534 -0.502447
C81   C     C_R   0.563617 0.015675 0.891005 0.336356
C82   C     C_R   0.436383 0.984324 0.108995 0.336356
C83   C     C_R   0.436383 0.515667 0.608995 0.336355
C84   C     C_R   0.563617 0.484332 0.391005 0.336354
H13   H     H_    0.146893 0.794143 0.787898 0.132259
H14   H     H_    0.853107 0.205857 0.212102 0.132259
H15   H     H_    0.853107 0.294144 0.712104 0.132259
H16   H     H_    0.146893 0.705856 0.287896 0.132259
H17   H     H_    0.391562 0.971538 0.748949 0.175151
H18   H     H_    0.608438 0.028463 0.251051 0.175151
H19   H     H_    0.608438 0.471527 0.751050 0.175151
H20   H     H_    0.391562 0.528475 0.248950 0.175151
H21   H     H_    0.476059 0.928339 0.793019 0.201116
H22   H     H_    0.523941 0.071662 0.206980 0.201116
H23   H     H_    0.523941 0.428326 0.706980 0.201118
H24   H     H_    0.476059 0.571675 0.293021 0.201117
O29   O     O_3   0.025519 0.228105 0.486122 -0.646102
H25   H     H_    0.036805 0.326357 0.525742 0.298641
O30   O     O_3   0.974481 0.771895 0.513877 -0.646102
H26   H     H_    0.963195 0.673643 0.474258 0.298641
O31   O     O_3   0.974480 0.728105 0.013877 -0.646102
H27   H     H_    0.963194 0.826356 0.974257 0.298641
O32   O     O_3   0.025520 0.271895 0.986123 -0.646102
H28   H     H_    0.036806 0.173644 0.025743 0.298641
O33   O     O_3   0.242347 0.737764 0.831428 -0.630726
H29   H     H_    0.218554 0.641665 0.807498 0.286535
O34   O     O_3   0.757653 0.262236 0.168571 -0.630726
H30   H     H_    0.781446 0.358334 0.192502 0.286535
O35   O     O_3   0.757653 0.237765 0.668573 -0.630725
H31   H     H_    0.781446 0.141666 0.692504 0.286535
O36   O     O_3   0.242347 0.762235 0.331427 -0.630725
H32   H     H_    0.218554 0.858334 0.307497 0.286535
O37   O     O_3   0.547258 0.075818 0.814251 -0.657890
H33   H     H_    0.574655 0.084112 0.786574 0.293369
O38   O     O_3   0.452742 0.924181 0.185749 -0.657890
H34   H     H_    0.425345 0.915886 0.213426 0.293368
O39   O     O_3   0.452742 0.575806 0.685750 -0.657889
H35   H     H_    0.425345 0.584099 0.713427 0.293370
O40   O     O_3   0.547258 0.424192 0.314251 -0.657889
H36   H     H_    0.574654 0.415900 0.286573 0.293371

loop_
_geom_bond_atom_site_label_1
_geom_bond_atom_site_label_2
_ccdc_geom_bond_type
C82   O38   S    
O17   V3    S    
C61   C66   A    
O1    C5    A    
O39   H35   S    
C23   C27   A    
O19   V1    S    
O13   V1    S    
C63   C68   A    
C64   C76   A    
O3    C7    A    
O30   H26   S    
C76   H24   S    
C84   O40   S    
C48   C52   A    
C21   C37   A    
C22   O33   S    
O37   H33   S    
C25   C57   A    
C49   H9    S    
O7    C3    A    
C17   O26   S    
O35   H31   S    
C51   H11   S    
C62   C70   A    
C19   O28   S    
C32   C36   A    
O9    V1    S    
O10   V2    S    
C14   O22   S    
O16   V4    S    
C55   C80   A    
O4    C8    A    
C29   H1    S    
C31   H3    S    
C27   H16   S    
O1    V3    S    
C44   C71   A    
C75   H23   S    
C66   C81   A    
O2    V4    S    
C74   C78   A    
C77   H17   S    
O3    V1    S    
C73   C77   A    
C1    O15   A    
O38   H34   S    
C2    O16   A    
C24   C40   A    
O2    C6    A    
O32   H28   S    
C16   C48   A    
O14   V2    S    
N1    C17   A    
C50   C82   A    
C66   C70   A    
C16   O24   S    
C35   H7    S    
O11   C7    A    
O15   V3    S    
O12   C8    A    
C62   C74   A    
C61   C73   A    
N4    C40   S    
C56   C79   A    
C1    C60   S    
C63   C75   A    
C20   O27   S    
C29   C57   A    
O29   H25   S    
O5    V1    S    
C28   C60   A    
C26   H13   S    
C31   C35   A    
O34   H30   S    
O7    V3    S    
C30   C34   A    
N1    C37   S    
O8    V4    S    
C17   C53   A    
C4    C57   S    
C20   C56   A    
C78   H18   S    
C19   C55   A    
O40   H36   S    
C21   C25   A    
O18   V4    S    
N3    C19   A    
C14   C46   A    
C7    C9    S    
C42   C69   A    
C13   C45   A    
C52   C84   A    
C8    C10   S    
C41   C70   A    
C24   C28   A    
C36   C40   A    
C11   C12   D    
C15   C47   A    
C73   H21   S    
C36   H8    S    
O5    C1    A    
C24   O35   S    
C10   O30   S    
C46   C50   A    
C49   C81   A    
O36   H32   S    
C22   C38   A    
C45   C49   A    
O8    C4    A    
N3    C39   S    
C54   C77   A    
C9    C10   D    
C50   H10   S    
C81   O37   S    
C53   C78   A    
C18   O25   S    
C27   C59   A    
C42   C54   A    
C65   C69   A    
C26   C58   A    
C28   H15   S    
C41   C53   A    
C9    O29   S    
C43   C55   A    
O6    V2    S    
C2    C59   S    
C21   O34   S    
C30   H2    S    
C52   H12   S    
C79   H19   S    
C25   H14   S    
C32   C60   A    
C13   N1    A    
C68   C72   A    
N2    C38   S    
C15   N3    A    
C22   C26   A    
C61   C69   A    
C16   N4    A    
C44   C56   A    
C3    O13   A    
C80   H20   S    
C44   C48   A    
C74   H22   S    
O6    C2    A    
C15   O23   S    
C34   H6    S    
C12   O32   S    
O11   V3    S    
C5    C11   S    
C75   C79   A    
O12   V4    S    
C6    C12   S    
N2    C18   A    
C64   C67   A    
C64   C72   A    
O20   V2    S    
C51   C83   A    
C33   H5    S    
O31   H27   S    
O9    C5    A    
C47   C51   A    
C3    C58   S    
O10   C6    A    
C34   C38   A    
C33   C37   A    
C30   C58   A    
C23   O36   S    
C63   C71   A    
C32   H4    S    
C35   C39   A    
C68   C83   A    
C13   O21   S    
O4    V2    S    
C14   N2    A    
C18   C54   A    
C29   C33   A    
C67   C84   A    
N4    C20   A    
C31   C59   A    
C83   O39   S    
C42   C46   A    
C4    O14   A    
C65   C82   A    
C41   C45   A    
C67   C71   A    
C43   C72   A    
C11   O31   S    
O33   H29   S    
C43   C47   A    
C23   C39   A    
C76   C80   A    
C62   C65   A    
