data_str_m2_o5_o17_f0_pcu.sym.18
_audit_creation_date              2013-03-05T16:34:52-0500
_audit_creation_method            fapswitch 2.2
_symmetry_space_group_name_H-M    P1
_symmetry_Int_Tables_number       1
_space_group_crystal_system       triclinic
_cell_length_a                    15.051484
_cell_length_b                    9.081118
_cell_length_c                    7.79608
_cell_angle_alpha                 89.944446
_cell_angle_beta                  89.999866
_cell_angle_gamma                 90.000047
_cell_volume                      1065.60125441

loop_
_atom_site_label
_atom_site_type_symbol
_atom_site_description
_atom_site_fract_x
_atom_site_fract_y
_atom_site_fract_z
_atom_type_partial_charge
O1    O     O_R   0.500000 0.288390 0.642760 -0.576259
O2    O     O_R   0.500000 0.711610 0.357240 -0.576259
O3    O     O_R   0.500000 0.711610 0.642760 -0.579941
O4    O     O_R   0.500000 0.288390 0.357240 -0.579938
H1    H     H_    0.920033 0.132265 0.423438 0.181256
H2    H     H_    0.079967 0.867731 0.576592 0.181257
H3    H     H_    0.920033 0.867731 0.576591 0.181257
H4    H     H_    0.079967 0.132265 0.423437 0.181256
C1    C     C_R   0.500000 0.220082 0.500048 0.827385
C2    C     C_R   0.500000 0.779918 0.499952 0.827386
O5    O     O_R   0.370260 0.500000 0.642800 -0.581253
O6    O     O_R   0.629740 0.500000 0.357200 -0.581252
O7    O     O_R   0.629740 0.500000 0.642800 -0.581253
O8    O     O_R   0.370260 0.500000 0.357200 -0.581252
C3    C     C_R   0.328745 0.500000 0.500000 0.799273
C4    C     C_R   0.671255 0.500001 0.500000 0.799273
Cu1   Cu    Cu3+1 0.500000 0.500000 0.669080 0.995454
Cu2   Cu    Cu3+1 0.500000 0.500000 0.330920 0.995454
N1    N     N_1   0.500000 0.500000 0.076820 -0.046535
N2    N     N_1   0.500000 0.500000 0.923180 -0.046535
C5    C     C_R   0.813252 0.632894 0.528022 0.063707
C6    C     C_R   0.186748 0.367105 0.471990 0.063707
C7    C     C_R   0.813252 0.367105 0.471990 0.063707
C8    C     C_R   0.186748 0.632893 0.528022 0.063708
C9    C     C_R   0.767474 0.500000 0.500001 -0.134183
C10   C     C_R   0.232526 0.500000 0.500002 -0.134182
C11   C     C_R   0.906404 0.366850 0.472166 0.125954
C12   C     C_R   0.093596 0.633146 0.527860 0.125955
C13   C     C_R   0.906404 0.633146 0.527859 0.125955
C14   C     C_R   0.093596 0.366850 0.472165 0.125955
C15   C     C_R   0.953124 0.499998 0.500014 -0.019602
C16   C     C_R   0.046875 0.499998 0.500014 -0.019602
C17   C     C_R   0.953869 0.235838 0.445064 -0.191299
C18   C     C_R   0.046131 0.764157 0.554966 -0.191298
C19   C     C_R   0.953869 0.764157 0.554965 -0.191299
C20   C     C_R   0.046131 0.235838 0.445063 -0.191298
C21   C     C_1   0.500000 0.065407 0.500066 -0.175155
C22   C     C_1   0.500000 0.934593 0.499934 -0.175154
N3    N     N_3   0.765530 0.768084 0.554977 -0.599854
H5    H     H_    0.724639 0.787283 0.448856 0.221650
H6    H     H_    0.725450 0.756378 0.663642 0.234617
N4    N     N_3   0.234470 0.231916 0.445028 -0.599857
H7    H     H_    0.274543 0.243623 0.336354 0.234617
H8    H     H_    0.275368 0.212720 0.551138 0.221651
N5    N     N_3   0.765529 0.231918 0.445020 -0.599850
H9    H     H_    0.724617 0.212731 0.551115 0.221647
H10   H     H_    0.725470 0.243622 0.336326 0.234617
N6    N     N_3   0.234470 0.768084 0.554974 -0.599856
H11   H     H_    0.274556 0.756377 0.663632 0.234617
H12   H     H_    0.275356 0.787287 0.448845 0.221652

loop_
_geom_bond_atom_site_label_1
_geom_bond_atom_site_label_2
_geom_bond_distance
_ccdc_geom_bond_type
N4    H8    1.045650 S    
C21   C22   1.187931 T    
C7    N5    1.437981 S    
O7    Cu1   1.963498 S    
O2    Cu2   1.932777 S    
C8    C12   1.402068 A    
C13   C19   1.403921 A    
O1    Cu1   1.932778 S    
C15   C16   1.411092 A    
C5    N3    1.437983 S    
C14   C20   1.403921 A    
C2    C22   1.404625 S    
O4    Cu2   1.932383 S    
Cu1   N2    1.980983 S    
N6    H12   1.045661 S    
Cu1   Cu2   2.636323 S    
C12   C18   1.403921 A    
C13   C15   1.415683 A    
O3    C2    1.273960 A    
N5    H9    1.045663 S    
C11   C17   1.403922 A    
C14   C16   1.415682 A    
H3    C19   1.082940 S    
C6    N4    1.437983 S    
C5    C13   1.402068 A    
O6    C4    1.276653 A    
C1    C21   1.404625 S    
N6    H11   1.045346 S    
C8    C10   1.406915 A    
O3    Cu1   1.932382 S    
C7    C11   1.402069 A    
C7    C9    1.406916 A    
H4    C20   1.082941 S    
C18   C19   1.388682 A    
O7    C4    1.276651 A    
N4    H7    1.045334 S    
N3    H5    1.045656 S    
C11   C15   1.415683 A    
C8    N6    1.437984 S    
H2    C18   1.082941 S    
C12   C16   1.415684 A    
C17   C20   1.388682 A    
O1    C1    1.274362 A    
N3    H6    1.045341 S    
Cu2   N1    1.980983 S    
C6    C10   1.406917 A    
N5    H10   1.045348 S    
O6    Cu2   1.963498 S    
C4    C9    1.448245 S    
C5    C9    1.406915 A    
O8    C3    1.276653 A    
O5    Cu1   1.963500 S    
C3    C10   1.448245 S    
C6    C14   1.402069 A    
O4    C1    1.273960 A    
O5    C3    1.276650 A    
O8    Cu2   1.963499 S    
N1    N2    1.197791 T    
H1    C17   1.082942 S    
O2    C2    1.274362 A    
