data_str_m2_o1_o24_f0_pcu.sym.94
_audit_creation_date              2012-12-10T18:00:20-0500
_audit_creation_method            fapswitch 2.2
_symmetry_space_group_name_H-M    P1
_symmetry_Int_Tables_number       1
_space_group_crystal_system       triclinic
_cell_length_a                    10.919479
_cell_length_b                    9.538416
_cell_length_c                    10.619756
_cell_angle_alpha                 89.832517
_cell_angle_beta                  90.217244
_cell_angle_gamma                 89.851427
_cell_volume                      1106.07930187

loop_
_atom_site_label
_atom_site_type_symbol
_atom_type_description
_atom_site_fract_x
_atom_site_fract_y
_atom_site_fract_z
_atom_type_partial_charge
C1    C     C_R   0.870987 0.500192 0.499757 -0.384286
C2    C     C_R   0.126950 0.500761 0.499500 -0.382687
C3    C     C_R   0.261702 0.500245 0.499751 0.924026
C4    C     C_R   0.737565 0.499934 0.500036 0.967510
C5    C     C_R   0.500050 0.500284 0.259257 0.813648
C6    C     C_R   0.500271 0.499714 0.740742 0.813221
C7    C     C_3   0.499726 0.633451 0.040184 -0.157887
C8    C     C_3   0.501295 0.366544 0.959813 -0.156236
C9    C     C_3   0.600791 0.566609 0.958191 -0.131210
C10   C     C_3   0.400208 0.433370 0.041781 -0.158295
C11   C     C_3   0.399507 0.565719 0.957313 -0.153409
C12   C     C_3   0.601493 0.434292 0.042707 -0.126717
C13   C     C_3   0.500556 0.499016 0.877617 0.013027
C14   C     C_3   0.500395 0.500979 0.122382 0.013528
C15   C     C_R   0.462786 0.074558 0.396302 0.058802
C16   C     C_R   0.538431 0.925336 0.603293 0.026247
C17   C     C_R   0.537672 0.073726 0.603560 0.071687
C18   C     C_R   0.462350 0.926212 0.396443 0.061417
C19   C     C_R   0.060576 0.372926 0.502832 0.289127
C20   C     C_R   0.935826 0.621766 0.463863 0.292772
C21   C     C_R   0.937258 0.379114 0.535238 0.299658
C22   C     C_R   0.059707 0.628625 0.495765 0.282685
Cu1   Cu    Cu3+1 0.500000 0.640660 0.500000 1.037970
Cu2   Cu    Cu3+1 0.500000 0.359340 0.500000 1.051535
H1    H     H_    0.433007 0.129766 0.312717 0.128434
H2    H     H_    0.570414 0.869967 0.686062 0.125813
H3    H     H_    0.568728 0.128363 0.686653 0.123528
H4    H     H_    0.431089 0.871536 0.313399 0.120977
H5    H     H_    0.316967 0.619386 0.919093 0.177997
H6    H     H_    0.684111 0.380731 0.080854 0.166546
H7    H     H_    0.499168 0.742787 0.075777 0.140062
H8    H     H_    0.502088 0.257210 0.924214 0.141526
H9    H     H_    0.682816 0.620939 0.920766 0.164385
H10   H     H_    0.318244 0.378948 0.079247 0.174286
N1    N     N_R   0.500000 0.852070 0.500000 -0.162590
N2    N     N_R   0.500000 0.147930 0.500000 -0.160767
O1    O     O_R   0.319640 0.618740 0.499990 -0.526887
O2    O     O_R   0.680360 0.381260 0.500010 -0.529411
O3    O     O_R   0.680360 0.618740 0.500010 -0.533820
O4    O     O_R   0.319640 0.381260 0.499990 -0.517031
O5    O     O_R   0.499970 0.618770 0.316850 -0.597576
O6    O     O_R   0.500030 0.381230 0.683150 -0.593841
O7    O     O_R   0.500030 0.618770 0.683150 -0.603986
O8    O     O_R   0.499970 0.381230 0.316850 -0.598837
S1    S     S_3+6 0.118149 0.211403 0.443651 0.109380
O9    O     O_2   0.194329 0.140036 0.543179 -0.217641
O10   O     O_2   0.014116 0.117346 0.406168 -0.154245
O11   O     O_3   0.204008 0.242173 0.315294 -0.569749
H11   H     H_    0.208130 0.151194 0.270780 0.364797
S2    S     S_3+6 0.872181 0.751929 0.361591 0.087328
O12   O     O_2   0.803558 0.859355 0.437034 -0.206546
O13   O     O_2   0.972032 0.823400 0.288784 -0.211049
O14   O     O_3   0.775661 0.675681 0.258787 -0.566022
H12   H     H_    0.734187 0.754408 0.214852 0.361205
S3    S     S_3+6 0.876637 0.248051 0.637108 0.076459
O15   O     O_2   0.809595 0.139762 0.561283 -0.207472
O16   O     O_2   0.978734 0.178220 0.709221 -0.217216
O17   O     O_3   0.779631 0.322305 0.740201 -0.575819
H13   H     H_    0.754336 0.245100 0.796909 0.354490
S4    S     S_3+6 0.118423 0.792545 0.548060 0.117093
O18   O     O_2   0.188984 0.859445 0.442718 -0.241695
O19   O     O_2   0.015421 0.887778 0.586355 -0.137625
O20   O     O_3   0.210484 0.769192 0.673941 -0.543861
H14   H     H_    0.253446 0.859768 0.684598 0.373250

loop_
_geom_bond_atom_site_label_1
_geom_bond_atom_site_label_2
_ccdc_geom_bond_type
C2    C22   A    
C15   C18   A    
S2    O13   D    
Cu1   Cu2   S    
C19   S1    S    
C1    C21   A    
C8    C13   S    
C17   N2    A    
Cu2   O6    S    
C18   N1    A    
Cu2   O2    S    
Cu1   O5    S    
C4    O3    A    
C8    C12   S    
C1    C4    S    
C12   H6    S    
S3    O15   D    
S1    O10   D    
C2    C3    S    
C2    C19   A    
C18   H4    S    
C10   H10   S    
Cu1   O1    S    
S1    O9    D    
C6    C13   S    
C7    C11   S    
C11   C13   S    
C11   H5    S    
C5    C14   S    
Cu2   N2    S    
C9    H9    S    
S4    O20   S    
Cu1   O3    S    
C8    C10   S    
O11   H11   S    
Cu2   O4    S    
C5    O8    A    
C12   C14   S    
C3    O4    A    
S2    O12   D    
Cu1   N1    S    
C6    O7    A    
S3    O16   D    
C16   N1    A    
C16   H2    S    
Cu2   O8    S    
C9    C12   S    
C15   H1    S    
S2    O14   S    
C7    H7    S    
C10   C11   S    
C20   C22   A    
C5    O5    A    
O20   H14   S    
C17   H3    S    
C15   N2    A    
Cu1   O7    S    
C3    O1    A    
S4    O19   D    
C6    O6    A    
S3    O17   S    
C7    C9    S    
C9    C13   S    
S4    O18   D    
C21   S3    S    
C20   S2    S    
S1    O11   S    
C19   C21   A    
O17   H13   S    
C4    O2    A    
C22   S4    S    
C7    C14   S    
O14   H12   S    
C10   C14   S    
C16   C17   A    
C1    C20   A    
C8    H8    S    
