data_str_m2_o40_o40_f0_fof.sym.74
_audit_creation_date              2012-10-26T17:12:32-0400
_audit_creation_method            fapswitch 2.2
_symmetry_space_group_name_H-M    P1
_symmetry_Int_Tables_number       1
_space_group_crystal_system       triclinic
_cell_length_a                    16.640472
_cell_length_b                    16.809278
_cell_length_c                    16.810267
_cell_angle_alpha                 68.038872
_cell_angle_beta                  68.040855
_cell_angle_gamma                 68.054641
_cell_volume                      3892.1271818

loop_
_atom_site_label
_atom_site_type_symbol
_atom_type_description
_atom_site_fract_x
_atom_site_fract_y
_atom_site_fract_z
_atom_type_partial_charge
C1    C     C_R   0.030145 0.828055 0.564252 0.906419
C2    C     C_R   0.031339 0.563870 0.827984 0.774891
C3    C     C_2   0.387734 0.763893 0.134412 0.459743
C4    C     C_2   0.137112 0.501580 0.162417 0.452358
C5    C     C_2   0.155589 0.397918 0.764480 0.486282
C6    C     C_R   0.172139 0.968761 0.436492 0.939690
C7    C     C_R   0.827774 0.030286 0.563718 0.783865
C8    C     C_R   0.520564 0.922063 0.739252 0.002169
C9    C     C_R   0.552343 0.927439 0.294425 0.070713
C10   C     C_R   0.095501 0.701377 0.448025 -0.014268
C11   C     C_R   0.072384 0.252056 0.499149 0.017263
C12   C     C_R   0.697197 0.447705 0.096588 -0.022371
C13   C     C_R   0.306190 0.543627 0.929253 0.057011
C14   C     C_R   0.302597 0.904636 0.552429 -0.010351
C15   C     C_R   0.986073 0.168475 0.430870 0.852742
C16   C     C_R   0.694458 0.071730 0.455270 -0.004251
C17   C     C_R   0.480594 0.259995 0.078695 0.001568
C18   C     C_R   0.446698 0.705553 0.074653 0.041132
C19   C     C_R   0.073469 0.498639 0.252174 0.009611
C20   C     C_R   0.099667 0.447460 0.700488 -0.015304
C21   C     C_R   0.556878 0.985205 0.553692 0.047878
C22   C     C_R   0.464462 0.952851 0.463059 0.052380
C23   C     C_R   0.068231 0.531350 0.531863 0.042482
C24   C     C_R   0.050011 0.435007 0.435546 0.040212
C25   C     C_R   0.534938 0.536768 0.049053 0.045353
C26   C     C_R   0.827696 0.563688 0.031169 0.893040
C27   C     C_R   0.443070 0.445705 0.016474 0.043877
C28   C     C_R   0.587471 0.000674 0.460368 0.004154
C29   C     C_R   0.430863 0.940775 0.556038 0.061195
C30   C     C_R   0.070566 0.440002 0.571002 0.013966
C31   C     C_R   0.061339 0.521722 0.392117 0.010533
C32   C     C_R   0.451671 0.582157 0.028646 -0.004278
C33   C     C_R   0.517266 0.397121 0.053048 0.012318
C34   C     C_R   0.547651 0.973444 0.417467 -0.003672
C35   C     C_R   0.482780 0.948456 0.602501 0.008575
C36   C     C_R   0.412205 0.539029 0.001176 -0.002830
C37   C     C_R   0.172117 0.436224 0.970053 0.729375
C38   C     C_R   0.568858 0.443776 0.060907 0.060971
C39   C     C_R   0.061849 0.391320 0.522205 0.053842
C40   C     C_R   0.068561 0.571050 0.441000 0.056834
C41   C     C_R   0.468434 0.913736 0.695297 -0.174865
C42   C     C_R   0.593206 0.955856 0.334306 -0.117711
C43   C     C_R   0.083142 0.656438 0.400532 -0.268247
C44   C     C_R   0.075440 0.298014 0.551651 -0.275637
C45   C     C_R   0.649853 0.400359 0.086058 -0.271412
C46   C     C_R   0.345928 0.587139 0.955078 -0.120941
C47   C     C_R   0.349944 0.915538 0.599582 -0.281316
C48   C     C_R   0.569372 0.016511 0.830453 0.836024
C49   C     C_R   0.654253 0.046214 0.412020 -0.180161
C50   C     C_R   0.532312 0.304240 0.087154 -0.178985
C51   C     C_R   0.405974 0.665396 0.046239 -0.113190
C52   C     C_R   0.076362 0.550817 0.298740 -0.174790
C53   C     C_R   0.088518 0.399212 0.654991 -0.181708
C54   C     C_R   0.577672 0.979604 0.692946 -0.105401
C55   C     C_R   0.457489 0.940722 0.324939 -0.085989
C56   C     C_R   0.071688 0.672486 0.542460 -0.013283
C57   C     C_R   0.032443 0.299203 0.427744 0.007625
C58   C     C_R   0.671009 0.542522 0.069519 -0.009761
C59   C     C_R   0.435950 0.970160 0.171947 0.747895
C60   C     C_R   0.323974 0.449277 0.960656 -0.088537
C61   C     C_R   0.328680 0.931330 0.457503 0.021354
C62   C     C_R   0.676171 0.040982 0.549669 -0.059455
C63   C     C_R   0.422889 0.306194 0.021822 -0.084461
C64   C     C_R   0.541614 0.674917 0.061683 -0.066097
C65   C     C_R   0.033020 0.427527 0.299115 -0.095061
C66   C     C_R   0.073584 0.541883 0.672350 -0.068517
C67   C     C_R   0.611790 0.013931 0.736047 -0.170257
C68   C     C_R   0.403145 0.950203 0.271312 -0.196267
C69   C     C_R   0.054557 0.727926 0.597186 -0.107627
C70   C     C_R   0.430258 0.169085 0.984838 0.816419
C71   C     C_R   0.998746 0.259552 0.388852 -0.163917
C72   C     C_R   0.726731 0.596338 0.055573 -0.137663
C73   C     C_R   0.271349 0.400988 0.956967 -0.183509
C74   C     C_R   0.272629 0.946537 0.403285 -0.078933
C75   C     C_R   0.727825 0.046311 0.597800 -0.268361
C76   C     C_R   0.387417 0.262816 0.989242 -0.225358
C77   C     C_R   0.595419 0.727917 0.054854 -0.237180
C78   C     C_R   0.999166 0.388742 0.259405 -0.187445
C79   C     C_R   0.056926 0.596637 0.727702 -0.247461
C80   C     C_R   0.686302 0.048983 0.686910 0.377453
C81   C     C_R   0.563500 0.827858 0.031602 0.746903
C82   C     C_R   0.311628 0.952908 0.311603 0.322070
C83   C     C_R   0.054302 0.687774 0.687433 0.346645
C84   C     C_R   0.976434 0.308254 0.308216 0.317775
C85   C     C_R   0.686094 0.686085 0.057116 0.319486
C86   C     C_R   0.309881 0.310987 0.959130 0.335679
C87   C     C_R   0.602824 0.003049 0.598673 0.080354
C88   C     C_R   0.416187 0.942740 0.414871 0.038274
C89   C     C_R   0.069413 0.582433 0.582825 0.052214
C90   C     C_R   0.034131 0.388829 0.389021 0.053521
C91   C     C_R   0.583136 0.585083 0.059071 0.042232
C92   C     C_R   0.986353 0.430792 0.168387 0.859251
C93   C     C_R   0.397343 0.400483 0.998583 0.066894
C94   C     C_2   0.528043 0.856784 0.826430 0.442251
C95   C     C_2   0.611084 0.866926 0.237134 0.439560
C96   C     C_2   0.152122 0.764068 0.394995 0.449909
C97   C     C_2   0.138453 0.163849 0.501346 0.422748
C98   C     C_2   0.760600 0.395063 0.152604 0.465248
C99   C     C_2   0.256641 0.596645 0.860221 0.434738
C100  C     C_2   0.239134 0.848929 0.605673 0.428056
C101  C     C_2   0.744795 0.140187 0.401965 0.459370
C102  C     C_2   0.473846 0.172567 0.143673 0.452923
Cu1   Cu    Cu3+1 0.995180 0.995180 0.424630 1.018176
Cu2   Cu    Cu3+1 0.004820 0.004820 0.575370 1.006471
Cu3   Cu    Cu3+1 0.995180 0.424630 0.995180 1.005068
Cu4   Cu    Cu3+1 0.004820 0.575370 0.004820 1.097625
Cu5   Cu    Cu3+1 0.424630 0.995180 0.995180 1.058854
Cu6   Cu    Cu3+1 0.575370 0.004820 0.004820 1.083422
H1    H     H_    0.423702 0.871588 0.733172 0.182243
H2    H     H_    0.335217 0.693458 0.048808 0.185959
H3    H     H_    0.102262 0.607545 0.259120 0.179967
H4    H     H_    0.100111 0.328533 0.684627 0.177378
H5    H     H_    0.584940 0.844032 0.850477 0.036876
H6    H     H_    0.582484 0.826835 0.223128 0.011288
H7    H     H_    0.152653 0.799256 0.325975 0.105266
H8    H     H_    0.151616 0.118788 0.563866 0.063334
H9    H     H_    0.793354 0.325035 0.156095 0.104739
H10   H     H_    0.240861 0.563395 0.825918 0.023833
H11   H     H_    0.204852 0.847576 0.675064 0.095894
H12   H     H_    0.664007 0.953083 0.306182 0.178320
H13   H     H_    0.760280 0.174878 0.435042 0.067014
H14   H     H_    0.416650 0.148590 0.157315 0.019859
H15   H     H_    0.416043 0.779016 0.173969 0.052110
H16   H     H_    0.162949 0.442947 0.138188 0.025307
H17   H     H_    0.185979 0.433213 0.782721 0.039733
H18   H     H_    0.748141 0.129735 0.680496 0.326611
H19   H     H_    0.237917 0.028710 0.234387 0.321389
H20   H     H_    0.106678 0.709449 0.758129 0.356683
H21   H     H_    0.979681 0.239321 0.239051 0.338464
H22   H     H_    0.702612 0.756441 0.113332 0.350112
H23   H     H_    0.091954 0.687759 0.330243 0.138551
H24   H     H_    0.241277 0.230602 0.987216 0.341077
H25   H     H_    0.100722 0.257575 0.608678 0.130611
H26   H     H_    0.676652 0.328853 0.100468 0.140326
H27   H     H_    0.329847 0.659204 0.933140 0.187628
H28   H     H_    0.323307 0.901254 0.671118 0.141750
H29   H     H_    0.670273 0.068145 0.339954 0.192278
H30   H     H_    0.577222 0.266394 0.129087 0.181993
O1    O     O_R   0.124540 0.978640 0.385460 -0.552413
O2    O     O_R   0.124540 0.385460 0.978640 -0.552178
O3    O     O_R   0.021360 0.875460 0.614540 -0.513612
O4    O     O_R   0.978640 0.124540 0.385460 -0.562648
O5    O     O_R   0.013780 0.867370 0.487190 -0.617006
O6    O     O_R   0.986220 0.132630 0.512810 -0.616795
O7    O     O_R   0.867370 0.487190 0.013780 -0.607148
O8    O     O_R   0.132630 0.512810 0.986220 -0.586120
O9    O     O_R   0.487190 0.013780 0.867370 -0.584881
O10   O     O_R   0.512810 0.986220 0.132630 -0.586350
O11   O     O_R   0.512810 0.132630 0.986220 -0.576814
O12   O     O_R   0.875460 0.021360 0.614540 -0.547698
O13   O     O_R   0.487190 0.867370 0.013780 -0.578317
O14   O     O_R   0.986220 0.512810 0.132630 -0.586493
O15   O     O_R   0.013780 0.487190 0.867370 -0.588839
O16   O     O_R   0.132630 0.986220 0.512810 -0.616045
O17   O     O_R   0.867370 0.013780 0.487190 -0.583212
O18   O     O_2   0.472410 0.814790 0.871043 -0.549433
O19   O     O_2   0.691659 0.860423 0.205984 -0.540207
O20   O     O_2   0.202328 0.773303 0.426397 -0.514874
O21   O     O_2   0.183361 0.143631 0.431928 -0.595710
O22   O     O_2   0.773242 0.428079 0.198922 -0.524072
O23   O     O_R   0.978640 0.385460 0.124540 -0.561647
O24   O     O_2   0.233965 0.678037 0.839903 -0.568706
O25   O     O_2   0.228365 0.800288 0.574067 -0.524003
O26   O     O_2   0.768689 0.159422 0.320599 -0.547076
O27   O     O_2   0.530428 0.127717 0.184458 -0.549249
O28   O     O_2   0.307132 0.794739 0.141015 -0.535537
O29   O     O_2   0.163028 0.567845 0.116103 -0.542843
O30   O     O_2   0.169421 0.317330 0.796498 -0.509651
O31   O     O_3   0.718111 0.084719 0.727219 -0.682784
O32   O     O_3   0.258872 0.963352 0.260124 -0.660912
O33   O     O_3   0.052199 0.739028 0.736044 -0.663999
O34   O     O_R   0.021360 0.614540 0.875460 -0.537082
O35   O     O_3   0.931852 0.276957 0.276948 -0.658878
O36   O     O_3   0.736689 0.732625 0.060867 -0.656159
O37   O     O_3   0.270170 0.270652 0.932083 -0.648627
O38   O     O_R   0.385460 0.124540 0.978640 -0.558847
O39   O     O_R   0.614540 0.875460 0.021360 -0.546419
O40   O     O_R   0.614540 0.021360 0.875460 -0.506454
O41   O     O_R   0.385460 0.978640 0.124540 -0.545528
O42   O     O_R   0.875460 0.614540 0.021360 -0.499418

loop_
_geom_bond_atom_site_label_1
_geom_bond_atom_site_label_2
_ccdc_geom_bond_type
C92   O23   A    
Cu3   O15   S    
C82   O32   S    
C22   C29   A    
C49   H29   S    
C47   H28   S    
C26   C72   S    
C64   C77   A    
C96   O20   D    
C34   C42   A    
C31   C52   A    
C101  H13   S    
C58   C72   A    
C21   C87   A    
C72   C85   A    
C13   C60   A    
C27   C33   A    
H19   O32   S    
C66   C79   A    
C45   H26   S    
C29   C47   A    
C69   C83   A    
C97   O21   D    
C20   C66   A    
C2    O15   A    
C54   C87   A    
C25   C38   A    
C14   C47   A    
C63   C76   A    
C95   H6    S    
Cu2   O12   S    
C23   C40   A    
C7    O12   A    
C48   O9    A    
C60   C73   A    
C6    O1    A    
C24   C39   A    
C31   C40   A    
C4    H16   S    
C3    C18   S    
C86   O37   S    
C5    O30   D    
Cu4   O42   S    
C55   C88   A    
C38   C45   A    
C2    C79   S    
C46   H27   S    
C4    C19   S    
C19   C52   A    
C40   C43   A    
C37   O2    A    
C83   O33   S    
C92   O14   A    
Cu5   Cu6   S    
Cu2   O6    S    
C96   H7    S    
C36   C46   A    
C9    C55   A    
C22   C88   A    
C37   O8    A    
C10   C56   A    
C58   C91   A    
C9    C95   S    
C12   C98   S    
C12   C58   A    
C60   C93   A    
C25   C32   A    
C28   C34   A    
C41   H1    S    
H21   O35   S    
C70   O11   A    
C16   C62   A    
C80   O31   S    
C74   C82   A    
C48   O40   A    
C94   H5    S    
C3    H15   S    
C18   C51   A    
C6    C74   S    
C66   C89   A    
C65   C90   A    
C22   C34   A    
C30   C53   A    
C25   C91   A    
Cu4   O14   S    
C57   C90   A    
C62   C87   A    
Cu6   O39   S    
C18   C64   A    
C23   C30   A    
C8    C94   S    
C8    C41   A    
C8    C54   A    
C5    C20   S    
C55   C68   A    
C20   C53   A    
C7    C75   S    
C54   C67   A    
C52   H3    S    
C78   C92   S    
C33   C50   A    
C81   O13   A    
C14   C61   A    
H22   O36   S    
Cu6   O11   S    
Cu1   O5    S    
H24   O37   S    
C13   C99   S    
C26   O7    A    
C17   C102  S    
C32   C51   A    
C1    O5    A    
C61   C88   A    
Cu1   O1    S    
C59   C68   S    
C15   O4    A    
Cu5   O9    S    
C28   C49   A    
C10   C96   S    
Cu3   O7    S    
C23   C89   A    
C85   O36   S    
C9    C42   A    
Cu6   O40   S    
C11   C44   A    
C100  H11   S    
C57   C71   A    
C97   H8    S    
C99   H10   S    
C6    O16   A    
C53   H4    S    
Cu1   O17   S    
C56   C89   A    
C21   C28   A    
C98   O22   D    
C56   C69   A    
C51   H2    S    
C70   C76   S    
C27   C36   A    
Cu3   O23   S    
C62   C75   A    
C27   C93   A    
C84   O35   S    
Cu1   O4    S    
C32   C36   A    
C16   C49   A    
C98   H9    S    
C71   C84   A    
C75   C80   A    
C44   H25   S    
C37   C73   S    
C65   C78   A    
Cu5   O41   S    
C10   C43   A    
C95   O19   D    
Cu4   O34   S    
C101  O26   D    
C67   C80   A    
C12   C45   A    
C24   C90   A    
C17   C50   A    
C50   H30   S    
C14   C100  S    
C39   C44   A    
C21   C35   A    
C26   O42   A    
C61   C74   A    
C102  O27   D    
C15   C71   S    
Cu3   Cu4   S    
C29   C35   A    
C33   C38   A    
Cu4   O8    S    
C4    O29   D    
C11   C97   S    
C68   C82   A    
C59   O41   A    
C24   C31   A    
Cu5   O13   S    
H18   O31   S    
C102  H14   S    
C59   O10   A    
Cu3   O2    S    
C79   C83   A    
C42   H12   S    
C13   C46   A    
C77   C85   A    
C43   H23   S    
C30   C39   A    
C19   C65   A    
C100  O25   D    
C48   C67   S    
C35   C41   A    
C1    C69   S    
C73   C86   A    
C1    O3    A    
C81   O39   A    
C15   O6    A    
C78   C84   A    
C16   C101  S    
C7    O17   A    
H20   O33   S    
C94   O18   D    
C77   C81   S    
Cu5   O38   S    
C76   C86   A    
C5    H17   S    
Cu1   Cu2   S    
Cu2   O3    S    
C64   C91   A    
Cu2   O16   S    
C63   C93   A    
C11   C57   A    
C99   O24   D    
C70   O38   A    
C17   C63   A    
C3    O28   D    
C2    O34   A    
Cu6   O10   S    
