data_str_m2_o14_o16_f0_pcu.sym.105
_audit_creation_date              2012-12-10T17:18:52-0500
_audit_creation_method            fapswitch 2.2
_symmetry_space_group_name_H-M    P1
_symmetry_Int_Tables_number       1
_space_group_crystal_system       triclinic
_cell_length_a                    9.600911
_cell_length_b                    10.807893
_cell_length_c                    13.386708
_cell_angle_alpha                 93.167275
_cell_angle_beta                  72.900296
_cell_angle_gamma                 89.600369
_cell_volume                      1325.2545915

loop_
_atom_site_label
_atom_site_type_symbol
_atom_type_description
_atom_site_fract_x
_atom_site_fract_y
_atom_site_fract_z
_atom_type_partial_charge
C1    C     C_R   0.503438 0.736487 0.489470 0.927819
C2    C     C_R   0.445171 0.428747 0.972556 0.077797
C3    C     C_R   0.489564 0.427677 0.861575 0.084216
C4    C     C_R   0.552761 0.446428 0.025799 0.075680
C5    C     C_R   0.700531 0.455670 0.966834 0.106741
C6    C     C_R   0.743306 0.423949 0.859962 -0.140192
C7    C     C_R   0.638960 0.405772 0.808404 -0.184238
C8    C     C_R   0.518233 0.461759 0.134982 -0.231514
C9    C     C_R   0.764482 0.527984 0.122347 0.413537
C10   C     C_R   0.383160 0.448083 0.808497 -0.122159
C11   C     C_R   0.269296 0.888961 0.432270 0.375728
C12   C     C_R   0.423781 0.483950 0.698149 0.836532
C13   C     C_R   0.130360 0.945611 0.465109 -0.089689
C14   C     C_R   0.105315 0.054142 0.529174 -0.171374
C15   C     C_R   0.222341 0.114158 0.550404 -0.146033
C16   C     C_R   0.364954 0.061653 0.512361 0.057066
C17   C     C_R   0.380869 0.937732 0.472252 -0.035530
C18   C     C_R   0.506571 0.870195 0.475869 -0.091170
C19   C     C_R   0.629149 0.934299 0.484860 -0.138136
C20   C     C_R   0.624636 0.062237 0.496364 -0.196644
C21   C     C_R   0.493073 0.127580 0.510679 -0.089508
C22   C     C_R   0.912841 0.330572 0.363727 -0.182925
C23   C     C_R   0.497068 0.262559 0.506455 0.731941
C24   C     C_R   0.011919 0.245384 0.297712 0.382464
C25   C     C_R   0.155972 0.245748 0.297538 -0.284463
C26   C     C_R   0.201258 0.330792 0.362382 -0.198899
C27   C     C_R   0.103191 0.416998 0.432308 0.176376
C28   C     C_R   0.953588 0.416771 0.432828 0.164503
C29   C     C_R   0.896303 0.577554 0.564574 -0.109070
C30   C     C_R   0.042451 0.578553 0.567121 0.469780
C31   C     C_R   0.578264 0.502146 0.299778 0.891975
C32   C     C_R   0.803331 0.499366 0.014542 -0.224504
C33   C     C_R   0.623128 0.498150 0.184430 -0.106951
C34   C     C_R   0.235379 0.436619 0.863438 -0.178278
C35   C     C_R   0.193422 0.414616 0.969476 -0.037534
C36   C     C_R   0.295408 0.416279 0.024796 -0.076913
Cu1   Cu    Cu3+1 0.359340 0.500010 0.500010 1.038554
Cu2   Cu    Cu3+1 0.640660 0.499990 0.499990 0.974272
H1    H     H_    0.042989 0.908521 0.437374 0.171370
H2    H     H_    0.997145 0.096412 0.556193 0.150322
H3    H     H_    0.199147 0.199991 0.598253 0.165709
H4    H     H_    0.723829 0.109619 0.496082 0.164484
H5    H     H_    0.814667 0.638634 0.617928 0.200575
H6    H     H_    0.806144 0.327866 0.356372 0.208407
H7    H     H_    0.234485 0.180417 0.246153 0.206155
H8    H     H_    0.857574 0.415397 0.815696 0.161447
H9    H     H_    0.912010 0.518095 0.966196 0.186032
H10   H     H_    0.253715 0.405476 0.107719 0.165979
H11   H     H_    0.080382 0.400053 0.010459 0.177351
H12   H     H_    0.678222 0.373568 0.727103 0.173305
H13   H     H_    0.728915 0.885738 0.483359 0.172171
N1    N     N_R   0.852480 0.498790 0.499000 -0.228603
N2    N     N_R   0.148360 0.498710 0.498970 -0.240967
O1    O     O_R   0.381190 0.680360 0.500010 -0.494510
O2    O     O_R   0.618760 0.680340 0.500000 -0.584952
O3    O     O_R   0.323240 0.499990 0.650990 -0.523973
O4    O     O_R   0.560820 0.499960 0.650980 -0.597308
O5    O     O_R   0.381240 0.319660 0.500000 -0.627286
O6    O     O_R   0.618810 0.319640 0.499990 -0.625158
O7    O     O_R   0.439180 0.500040 0.349020 -0.566273
O8    O     O_R   0.676760 0.500010 0.349010 -0.550642
S1    S     S_3+6 0.890510 0.612044 0.171960 0.057445
O9    O     O_2   0.979513 0.523364 0.211984 -0.318466
O10   O     O_2   0.991237 0.680956 0.086160 -0.211612
O11   O     O_3   0.802663 0.715001 0.269334 -0.492892
H14   H     H_    0.877608 0.743779 0.302154 0.392952
S2    S     S_3+6 0.310130 0.792883 0.315555 0.028030
O12   O     O_2   0.230323 0.673747 0.336097 -0.249628
O13   O     O_2   0.258374 0.857542 0.235926 -0.228123
O14   O     O_3   0.490149 0.763410 0.266263 -0.528010
H15   H     H_    0.532674 0.843888 0.242752 0.372308
S3    S     S_3+6 0.955710 0.137992 0.214282 0.035683
O15   O     O_2   0.066664 0.130323 0.108068 -0.221551
O16   O     O_2   0.945189 0.012441 0.258652 -0.263485
O17   O     O_3   0.792822 0.180531 0.201968 -0.532800
H16   H     H_    0.719690 0.150248 0.264101 0.337445
H17   H     H_    0.314493 0.324410 0.354121 0.208780
S4    S     S_3+6 0.062465 0.681052 0.672139 0.014930
O18   O     O_2   0.980375 0.799393 0.669924 -0.315758
O19   O     O_2   0.986701 0.622504 0.772252 -0.337173
O20   O     O_3   0.227608 0.721486 0.679005 -0.503247
H18   H     H_    0.209019 0.778062 0.742554 0.380777
H19   H     H_    0.409151 0.447152 0.183217 0.181066
H20   H     H_    0.152019 0.443516 0.824272 0.180437

loop_
_geom_bond_atom_site_label_1
_geom_bond_atom_site_label_2
_ccdc_geom_bond_type
C23   O5    A    
C16   C21   A    
C8    H19   S    
C11   C13   A    
C31   O8    A    
C35   C36   A    
C4    C8    A    
O20   H18   S    
C23   O6    A    
C26   C27   A    
Cu1   Cu2   S    
C18   C19   A    
C3    C7    A    
C5    C6    A    
S4    O19   D    
Cu2   N1    S    
C15   C16   A    
C34   C35   A    
S1    O10   D    
C9    C32   A    
Cu1   O3    S    
C22   H6    S    
Cu2   O2    S    
C19   C20   A    
C16   C17   A    
C35   H11   S    
C31   C33   S    
O14   H15   S    
C29   C30   A    
Cu1   O5    S    
Cu2   O8    S    
Cu1   N2    S    
C22   C28   A    
C13   C14   A    
C29   H5    S    
C9    C33   A    
C34   H20   S    
S3    O17   S    
C11   S2    S    
C30   N2    A    
C26   H17   S    
C9    S1    S    
C24   C25   A    
C15   H3    S    
S3    O16   D    
S4    O18   D    
C4    C5    A    
C25   C26   A    
S2    O12   D    
S2    O13   D    
C31   O7    A    
C2    C4    A    
O17   H16   S    
S1    O9    D    
Cu2   O4    S    
C17   C18   A    
C1    C18   S    
C10   C34   A    
C12   O3    A    
C10   C12   S    
C1    O1    A    
C12   O4    A    
C21   C23   S    
C32   H9    S    
C22   C24   A    
Cu1   O1    S    
C25   H7    S    
C24   S3    S    
C2    C36   A    
C11   C17   A    
C6    H8    S    
S1    O11   S    
C7    H12   S    
S3    O15   D    
C20   H4    S    
C27   N2    A    
C6    C7    A    
S2    O14   S    
C5    C32   A    
C2    C3    A    
C1    O2    A    
C3    C10   A    
C28   N1    A    
S4    O20   S    
C36   H10   S    
C8    C33   A    
C13   H1    S    
Cu1   O7    S    
C14   H2    S    
Cu2   O6    S    
C30   S4    S    
C19   H13   S    
C20   C21   A    
O11   H14   S    
C27   C28   A    
C14   C15   A    
C29   N1    A    
