data_str_m2_o10_o14_f0_pcu.sym.91
_audit_creation_date              2012-12-10T16:43:27-0500
_audit_creation_method            fapswitch 2.2
_symmetry_space_group_name_H-M    P1
_symmetry_Int_Tables_number       1
_space_group_crystal_system       triclinic
_cell_length_a                    10.742729
_cell_length_b                    8.71313
_cell_length_c                    7.449091
_cell_angle_alpha                 102.811591
_cell_angle_beta                  94.300642
_cell_angle_gamma                 92.465193
_cell_volume                      676.706275507

loop_
_atom_site_label
_atom_site_type_symbol
_atom_type_description
_atom_site_fract_x
_atom_site_fract_y
_atom_site_fract_z
_atom_type_partial_charge
C1    C     C_R   0.498993 0.200112 0.454285 0.917899
C2    C     C_R   0.076579 0.643619 0.618541 0.092806
C3    C     C_R   0.129595 0.514024 0.506945 -0.086112
C4    C     C_R   0.054458 0.393618 0.387513 -0.198860
C5    C     C_R   0.926125 0.395725 0.382617 -0.176007
C6    C     C_R   0.871339 0.518255 0.497219 -0.089966
C7    C     C_2   0.495246 0.032861 0.432590 -0.442283
C8    C     C_2   0.528479 0.966722 0.573450 0.192704
C9    C     C_R   0.262873 0.504331 0.502731 0.770870
C10   C     C_R   0.509513 0.799844 0.546448 0.777992
C11   C     C_R   0.737403 0.506241 0.498789 0.781260
C12   C     C_R   0.150737 0.773138 0.729623 -0.171165
C13   C     C_R   0.095308 0.900473 0.835263 -0.148792
C14   C     C_R   0.965713 0.902577 0.830267 -0.110329
C15   C     C_R   0.890793 0.777337 0.719623 -0.154982
C16   C     C_R   0.944951 0.645794 0.613392 0.079347
Cu1   Cu    Cu3+1 0.513920 0.517380 0.684380 1.001361
Cu2   Cu    Cu3+1 0.486080 0.482620 0.315620 0.983170
H1    H     H_    0.095620 0.295984 0.299700 0.146012
H2    H     H_    0.597565 0.622028 0.051437 0.231205
H3    H     H_    0.251602 0.779102 0.734025 0.157623
H4    H     H_    0.153173 0.998796 0.919659 0.142656
H5    H     H_    0.923007 0.002545 0.910707 0.165836
H6    H     H_    0.790648 0.786444 0.715680 0.166754
H7    H     H_    0.869217 0.298961 0.292878 0.165718
H8    H     H_    0.458071 0.961902 0.298591 0.162580
H9    H     H_    0.402474 0.377940 0.948533 0.238691
N1    N     N_2   0.465100 0.456430 0.038520 -0.189858
N2    N     N_2   0.534900 0.543570 0.961480 -0.195990
O1    O     O_R   0.509050 0.286130 0.619770 -0.523590
O2    O     O_R   0.485540 0.256780 0.308360 -0.569796
O3    O     O_R   0.331410 0.514680 0.655740 -0.600420
O4    O     O_R   0.307900 0.485330 0.344330 -0.579836
O5    O     O_R   0.514460 0.743220 0.691640 -0.559769
O6    O     O_R   0.490950 0.713870 0.380230 -0.611400
O7    O     O_R   0.692100 0.514670 0.655670 -0.570163
O8    O     O_R   0.668590 0.485320 0.344260 -0.577647
Cl1   Cl    Cl    0.602768 0.068604 0.791696 -0.617518

loop_
_geom_bond_atom_site_label_1
_geom_bond_atom_site_label_2
_ccdc_geom_bond_type
C14   H5    S    
C10   O6    A    
C3    C9    S    
Cu1   O7    S    
C2    C16   A    
Cu2   O6    S    
C2    C12   A    
Cu1   Cu2   S    
Cu2   N1    S    
C7    C8    D    
C10   O5    A    
C13   C14   A    
C9    O4    A    
Cu1   O1    S    
N1    N2    D    
C7    H8    S    
C8    Cl1   S    
C5    H7    S    
C15   H6    S    
Cu2   O8    S    
C13   H4    S    
C2    C3    A    
H2    N2    S    
C5    C6    A    
Cu2   O4    S    
Cu1   O5    S    
C6    C16   A    
C3    C4    A    
C1    O2    A    
Cu1   N2    S    
C12   C13   A    
C8    C10   S    
C6    C11   S    
C11   O8    A    
Cu1   O3    S    
C14   C15   A    
C1    O1    A    
Cu2   O2    S    
C9    O3    A    
C1    C7    S    
C4    H1    S    
C12   H3    S    
C15   C16   A    
C4    C5    A    
H9    N1    S    
C11   O7    A    
