data_str_m4_o4_o15_f0_acs.sym.91
_audit_creation_date              2012-12-11T15:45:07-0500
_audit_creation_method            fapswitch 2.2
_symmetry_space_group_name_H-M    P1
_symmetry_Int_Tables_number       1
_space_group_crystal_system       triclinic
_cell_length_a                    19.03977
_cell_length_b                    11.035462
_cell_length_c                    18.805639
_cell_angle_alpha                 90.072976
_cell_angle_beta                  89.891872
_cell_angle_gamma                 89.738101
_cell_volume                      3951.25123774

loop_
_atom_site_label
_atom_site_type_symbol
_atom_type_description
_atom_site_fract_x
_atom_site_fract_y
_atom_site_fract_z
_atom_type_partial_charge
C1    C     C_R   0.760756 0.534696 0.646898 0.537041
C2    C     C_R   0.239650 0.534552 0.353179 0.555607
C3    C     C_R   0.260756 0.034696 0.646898 0.537039
C4    C     C_R   0.739650 0.034552 0.353179 0.555605
C5    C     C_R   0.813224 0.042081 0.531907 -0.156368
C6    C     C_R   0.178238 0.079596 0.473048 -0.152081
C7    C     C_R   0.313224 0.542081 0.531907 -0.156368
C8    C     C_R   0.678238 0.579596 0.473048 -0.152081
C9    C     C_R   0.812031 0.042187 0.458902 -0.161976
C10   C     C_R   0.184215 0.077581 0.546268 -0.168136
C11   C     C_R   0.312031 0.542187 0.458902 -0.161977
C12   C     C_R   0.684215 0.577581 0.546268 -0.168136
C13   C     C_3   0.692662 0.285836 0.449426 -0.277337
C14   C     C_3   0.349520 0.227807 0.539418 -0.273697
C15   C     C_3   0.192662 0.785836 0.449426 -0.277336
C16   C     C_3   0.849520 0.727807 0.539417 -0.273695
C17   C     C_3   0.701646 0.298402 0.528359 -0.236378
C18   C     C_3   0.341672 0.236893 0.459916 -0.266746
C19   C     C_3   0.201646 0.798401 0.528359 -0.236378
C20   C     C_3   0.841672 0.736892 0.459915 -0.266747
C21   C     C_R   0.760759 0.101781 0.570230 0.007947
C22   C     C_R   0.237311 0.100437 0.429876 0.005881
C23   C     C_R   0.260759 0.601781 0.570230 0.007947
C24   C     C_R   0.737310 0.600437 0.429876 0.005881
C25   C     C_R   0.003475 0.343105 0.429230 -0.036775
C26   C     C_R   0.010966 0.330999 0.579372 -0.042082
C27   C     C_R   0.503475 0.843105 0.429230 -0.036775
C28   C     C_R   0.510966 0.830999 0.579372 -0.042081
C29   C     C_R   0.982095 0.122792 0.425975 -0.089557
C30   C     C_R   0.005122 0.107757 0.571744 -0.089884
C31   C     C_R   0.482096 0.622792 0.425975 -0.089557
C32   C     C_R   0.505122 0.607757 0.571744 -0.089885
C33   C     C_R   0.984353 0.010535 0.459136 -0.152069
C34   C     C_R   0.996641 0.002658 0.531732 -0.155528
C35   C     C_R   0.484353 0.510535 0.459136 -0.152069
C36   C     C_R   0.496641 0.502659 0.531732 -0.155529
C37   C     C_R   0.003821 0.223043 0.539131 0.015728
C38   C     C_R   0.996669 0.229917 0.464107 0.006922
C39   C     C_R   0.503821 0.723043 0.539131 0.015729
C40   C     C_R   0.496669 0.729917 0.464107 0.006922
C41   C     C_R   0.027332 0.438705 0.544077 0.013572
C42   C     C_R   0.010794 0.449898 0.471602 0.024480
C43   C     C_R   0.527332 0.938705 0.544077 0.013572
C44   C     C_R   0.510794 0.949898 0.471602 0.024480
C45   C     C_R   0.775138 0.130156 0.643983 0.545182
C46   C     C_R   0.224821 0.129418 0.355805 0.552164
C47   C     C_R   0.275137 0.630156 0.643983 0.545184
C48   C     C_R   0.724821 0.629418 0.355805 0.552162
C49   C     C_R   0.052075 0.540130 0.582075 -0.066838
C50   C     C_R   0.003009 0.568738 0.444386 -0.068249
C51   C     C_R   0.552076 0.040130 0.582075 -0.066838
C52   C     C_R   0.503009 0.068738 0.444386 -0.068249
C53   C     C_R   0.047114 0.654935 0.553130 -0.116659
C54   C     C_R   0.022681 0.669177 0.484284 -0.141450
C55   C     C_R   0.547114 0.154935 0.553130 -0.116660
C56   C     C_R   0.522681 0.169177 0.484284 -0.141450
C57   C     C_R   0.731030 0.007656 0.063988 0.030261
C58   C     C_R   0.244580 0.084831 0.921313 0.020819
C59   C     C_R   0.231030 0.507652 0.063988 0.030251
C60   C     C_R   0.744583 0.584820 0.921316 0.020825
C61   C     C_R   0.790222 0.968373 0.026855 -0.000727
C62   C     C_R   0.187417 0.040004 0.959949 0.011372
C63   C     C_R   0.290227 0.468383 0.026858 -0.000719
C64   C     C_R   0.687427 0.539972 0.959955 0.011359
C65   C     C_R   0.799361 0.995408 0.955985 0.083695
C66   C     C_R   0.184671 0.051389 0.032369 0.046925
C67   C     C_R   0.299367 0.495431 0.955990 0.083754
C68   C     C_R   0.684682 0.551360 0.032375 0.046907
C69   C     C_R   0.685572 0.092054 0.952830 -0.157367
C70   C     C_R   0.290071 0.169947 0.031223 -0.164993
C71   C     C_R   0.185571 0.592048 0.952830 -0.157355
C72   C     C_R   0.790071 0.669947 0.031224 -0.164988
C73   C     C_R   0.676259 0.062831 0.025167 -0.135644
C74   C     C_R   0.292701 0.159671 0.956781 -0.164799
C75   C     C_R   0.176258 0.562819 0.025165 -0.135636
C76   C     C_R   0.792700 0.659672 0.956783 -0.164807
C77   C     C_3   0.866053 0.987114 0.044116 -0.282213
C78   C     C_3   0.155025 0.916196 0.962539 -0.234224
C79   C     C_3   0.366056 0.487139 0.044122 -0.282184
C80   C     C_3   0.655060 0.416146 0.962549 -0.234204
C81   C     C_3   0.876779 0.016006 0.966194 -0.091299
C82   C     C_3   0.151338 0.930214 0.042834 -0.113798
C83   C     C_3   0.376781 0.516059 0.966205 -0.091300
C84   C     C_3   0.651369 0.430169 0.042843 -0.113803
C85   C     C_R   0.750022 0.066471 0.919175 0.014541
C86   C     C_R   0.238041 0.108358 0.070090 0.051133
C87   C     C_R   0.250024 0.566479 0.919178 0.014542
C88   C     C_R   0.738046 0.608348 0.070093 0.051137
C89   C     C_R   0.973667 0.344352 0.648431 0.526121
C90   C     C_R   0.029257 0.347102 0.354224 0.534964
C91   C     C_R   0.473667 0.844352 0.648431 0.526124
C92   C     C_R   0.529257 0.847101 0.354224 0.534965
C93   C     C_R   0.016071 0.339419 0.070000 0.032109
C94   C     C_R   0.004937 0.341878 0.921614 0.023479
C95   C     C_R   0.516077 0.839420 0.069997 0.032096
C96   C     C_R   0.504941 0.841879 0.921612 0.023477
C97   C     C_R   0.016195 0.447502 0.032482 0.022400
C98   C     C_R   0.011979 0.449693 0.960131 0.022141
C99   C     C_R   0.516200 0.947503 0.032481 0.022400
C100  C     C_R   0.511982 0.949694 0.960129 0.022137
C101  C     C_R   0.016512 0.231356 0.956945 -0.168408
C102  C     C_R   0.021975 0.230060 0.031357 -0.160995
C103  C     C_R   0.516520 0.731358 0.956943 -0.168412
C104  C     C_R   0.521985 0.730061 0.031354 -0.161005
C105  C     C_3   0.972384 0.558146 0.042677 -0.282938
C106  C     C_3   0.966885 0.561569 0.962604 -0.255673
C107  C     C_3   0.472388 0.058145 0.042677 -0.282932
C108  C     C_3   0.466885 0.061567 0.962604 -0.255659
C109  C     C_R   0.759879 0.532374 0.851958 0.549226
C110  C     C_R   0.226215 0.483379 0.140376 0.566853
C111  C     C_R   0.259878 0.032377 0.851957 0.549230
C112  C     C_R   0.726215 0.983381 0.140376 0.566851
C113  C     C_R   0.772046 0.124275 0.852649 0.546235
C114  C     C_R   0.226132 0.130519 0.145248 0.548960
C115  C     C_R   0.272046 0.624277 0.852649 0.546242
C116  C     C_R   0.726133 0.630516 0.145250 0.548951
C117  C     C_R   0.970607 0.347009 0.853012 0.538194
C118  C     C_R   0.032807 0.346715 0.144809 0.544705
C119  C     C_R   0.470608 0.847009 0.853011 0.538193
C120  C     C_R   0.532809 0.846715 0.144808 0.544705
C121  C     C_R   0.754024 0.087699 0.421841 0.010449
C122  C     C_R   0.249850 0.089447 0.578118 0.006816
C123  C     C_R   0.254024 0.587699 0.421841 0.010449
C124  C     C_R   0.749850 0.589447 0.578118 0.006816
C125  C     C_R   0.702684 0.152578 0.458379 0.039355
C126  C     C_R   0.308612 0.113382 0.535986 0.039306
C127  C     C_R   0.202684 0.652578 0.458379 0.039355
C128  C     C_R   0.808612 0.613382 0.535986 0.039306
C129  C     C_R   0.708544 0.164196 0.532339 0.019872
C130  C     C_R   0.302041 0.121347 0.462285 0.001596
C131  C     C_R   0.208544 0.664196 0.532339 0.019872
C132  C     C_R   0.802041 0.621347 0.462285 0.001596
Cr1   Cr    Cr6+3 0.885860 0.491680 0.749630 1.039201
Cr2   Cr    Cr6+3 0.114140 0.491680 0.250370 1.004636
Cr3   Cr    Cr6+3 0.385860 0.991680 0.749630 1.039198
Cr4   Cr    Cr6+3 0.614140 0.991680 0.250370 1.004633
Cr5   Cr    Cr6+3 0.730490 0.332970 0.748720 1.005431
Cr6   Cr    Cr6+3 0.269510 0.332970 0.251280 0.997526
Cr7   Cr    Cr6+3 0.230490 0.832970 0.748720 1.005440
Cr8   Cr    Cr6+3 0.769510 0.832970 0.251280 0.997527
Cr9   Cr    Cr6+3 0.887570 0.179310 0.750150 1.046465
Cr10  Cr    Cr6+3 0.112430 0.179310 0.249850 0.998404
Cr11  Cr    Cr6+3 0.387570 0.679310 0.750150 1.046429
Cr12  Cr    Cr6+3 0.612430 0.679310 0.249850 0.998402
H1    H     H_    0.857558 0.000224 0.558029 0.157202
H2    H     H_    0.126663 0.067723 0.450430 0.168225
H3    H     H_    0.357558 0.500224 0.558029 0.157201
H4    H     H_    0.626663 0.567723 0.450430 0.168226
H5    H     H_    0.059952 0.732625 0.585345 0.099447
H6    H     H_    0.018155 0.758179 0.461888 0.091956
H7    H     H_    0.559952 0.232625 0.585345 0.099445
H8    H     H_    0.518155 0.258179 0.461888 0.091956
H9    H     H_    0.644968 0.142462 0.925379 0.118972
H10   H     H_    0.329570 0.222471 0.058316 0.129552
H11   H     H_    0.144964 0.642447 0.925377 0.118967
H12   H     H_    0.829566 0.722479 0.058317 0.129542
H13   H     H_    0.628765 0.091586 0.051844 0.128690
H14   H     H_    0.335324 0.201512 0.928066 0.175195
H15   H     H_    0.128760 0.591563 0.051841 0.128692
H16   H     H_    0.835318 0.701525 0.928065 0.175128
H17   H     H_    0.892375 0.902782 0.062582 0.112222
H18   H     H_    0.191775 0.844385 0.943997 0.191646
H19   H     H_    0.392385 0.402806 0.062578 0.112247
H20   H     H_    0.691826 0.344358 0.944008 0.191653
H21   H     H_    0.874700 0.067053 0.079080 0.166393
H22   H     H_    0.102503 0.914602 0.936953 0.104430
H23   H     H_    0.374696 0.567069 0.079096 0.166381
H24   H     H_    0.602539 0.414518 0.936961 0.104415
H25   H     H_    0.892200 0.111549 0.956980 0.137801
H26   H     H_    0.096670 0.937559 0.063356 0.074919
H27   H     H_    0.392188 0.611613 0.957001 0.137757
H28   H     H_    0.596701 0.437489 0.063364 0.074924
H29   H     H_    0.015576 0.146347 0.928179 0.125440
H30   H     H_    0.028861 0.144228 0.058335 0.128318
H31   H     H_    0.515585 0.646349 0.928176 0.125412
H32   H     H_    0.528873 0.644229 0.058332 0.128324
H33   H     H_    0.002632 0.635210 0.064958 0.125611
H34   H     H_    0.912984 0.543176 0.943728 0.178420
H35   H     H_    0.502636 0.135211 0.064956 0.125622
H36   H     H_    0.412984 0.043167 0.943730 0.178413
H37   H     H_    0.921700 0.538786 0.069757 0.160298
H38   H     H_    0.993089 0.641395 0.938391 0.143184
H39   H     H_    0.421705 0.038783 0.069759 0.160285
H40   H     H_    0.493086 0.141395 0.938390 0.143222
H41   H     H_    0.853718 0.995579 0.431427 0.144643
H42   H     H_    0.138731 0.055987 0.577947 0.137022
H43   H     H_    0.353718 0.495579 0.431427 0.144643
H44   H     H_    0.638731 0.555987 0.577947 0.137021
H45   H     H_    0.139055 0.809383 0.430695 0.140967
H46   H     H_    0.903999 0.711871 0.557650 0.159284
H47   H     H_    0.639055 0.309383 0.430695 0.140967
H48   H     H_    0.403999 0.211871 0.557650 0.159283
H49   H     H_    0.735601 0.329154 0.418462 0.138784
H50   H     H_    0.321008 0.299571 0.569327 0.135899
H51   H     H_    0.235601 0.829154 0.418462 0.138786
H52   H     H_    0.821008 0.799571 0.569326 0.135901
H53   H     H_    0.751569 0.344059 0.542642 0.157818
H54   H     H_    0.306571 0.311335 0.443256 0.174248
H55   H     H_    0.251569 0.844059 0.542642 0.157818
H56   H     H_    0.806571 0.811335 0.443256 0.174249
H57   H     H_    0.654447 0.333987 0.555745 0.146299
H58   H     H_    0.391359 0.229705 0.429641 0.123712
H59   H     H_    0.154447 0.833987 0.555745 0.146299
H60   H     H_    0.891359 0.729705 0.429641 0.123712
H61   H     H_    0.973820 0.930436 0.428084 0.095332
H62   H     H_    0.997754 0.915353 0.557593 0.103784
H63   H     H_    0.473820 0.430436 0.428084 0.095332
H64   H     H_    0.497754 0.415353 0.557593 0.103782
H65   H     H_    0.967136 0.124455 0.370569 0.133694
H66   H     H_    0.016876 0.096998 0.627606 0.132348
H67   H     H_    0.467136 0.624455 0.370569 0.133693
H68   H     H_    0.516876 0.596997 0.627606 0.132344
H69   H     H_    0.979070 0.586319 0.393383 0.134844
H70   H     H_    0.071270 0.531321 0.636051 0.126216
H71   H     H_    0.479070 0.086319 0.393383 0.134845
H72   H     H_    0.571270 0.031321 0.636051 0.126215
O1    O     O_R   0.957020 0.451640 0.669920 -0.513813
O2    O     O_R   0.042980 0.451640 0.330080 -0.522984
O3    O     O_R   0.457020 0.951640 0.669920 -0.513813
O4    O     O_R   0.542980 0.951640 0.330080 -0.522983
O5    O     O_R   0.736470 0.210100 0.823360 -0.516353
O6    O     O_R   0.263530 0.210100 0.176640 -0.524072
O7    O     O_R   0.236470 0.710100 0.823360 -0.516344
O8    O     O_R   0.763530 0.710100 0.176640 -0.524070
O9    O     O_R   0.831960 0.093290 0.830130 -0.468585
O10   O     O_R   0.168040 0.093290 0.169870 -0.525235
O11   O     O_R   0.331960 0.593290 0.830130 -0.468619
O12   O     O_R   0.668040 0.593290 0.169870 -0.525243
O13   O     O_R   0.945600 0.250580 0.824860 -0.507730
O14   O     O_R   0.054400 0.250580 0.175140 -0.512544
O15   O     O_R   0.445600 0.750580 0.824860 -0.507741
O16   O     O_R   0.554400 0.750580 0.175140 -0.512542
O17   O     O_3   0.834640 0.334650 0.749500 -0.255091
O18   O     O_3   0.165360 0.334650 0.250500 -0.267764
O19   O     O_3   0.334640 0.834650 0.749500 -0.255087
O20   O     O_3   0.665360 0.834650 0.250500 -0.267759
O21   O     O_R   0.821450 0.543440 0.674610 -0.487971
O22   O     O_R   0.178550 0.543440 0.325390 -0.485541
O23   O     O_R   0.321450 0.043440 0.674610 -0.487973
O24   O     O_R   0.678550 0.043440 0.325390 -0.485543
O25   O     O_R   0.715320 0.458650 0.668100 -0.539405
O26   O     O_R   0.284680 0.458650 0.331900 -0.540134
O27   O     O_R   0.215320 0.958650 0.668100 -0.539404
O28   O     O_R   0.784680 0.958650 0.331900 -0.540134
O29   O     O_R   0.737170 0.209590 0.674530 -0.506346
O30   O     O_R   0.262830 0.209590 0.325470 -0.501523
O31   O     O_R   0.237170 0.709590 0.674530 -0.506345
O32   O     O_R   0.762830 0.709590 0.325470 -0.501523
O33   O     O_R   0.832710 0.092740 0.669580 -0.517825
O34   O     O_R   0.167290 0.092740 0.330420 -0.526058
O35   O     O_R   0.332710 0.592740 0.669580 -0.517833
O36   O     O_R   0.667290 0.592740 0.330420 -0.526060
O37   O     O_R   0.946290 0.250060 0.676040 -0.509425
O38   O     O_R   0.053710 0.250060 0.323960 -0.503303
O39   O     O_R   0.446290 0.750060 0.676040 -0.509426
O40   O     O_R   0.553710 0.750060 0.323960 -0.503303
O41   O     O_R   0.956270 0.452200 0.830470 -0.521778
O42   O     O_R   0.043730 0.452200 0.169530 -0.529364
O43   O     O_R   0.456270 0.952200 0.830470 -0.521775
O44   O     O_R   0.543730 0.952200 0.169530 -0.529361
O45   O     O_R   0.820760 0.543950 0.823440 -0.497532
O46   O     O_R   0.179240 0.543950 0.176560 -0.513679
O47   O     O_R   0.320760 0.043950 0.823440 -0.497531
O48   O     O_R   0.679240 0.043950 0.176560 -0.513695
O49   O     O_R   0.714570 0.459210 0.828640 -0.524589
O50   O     O_R   0.285430 0.459210 0.171360 -0.515788
O51   O     O_R   0.214570 0.959210 0.828640 -0.524585
O52   O     O_R   0.785430 0.959210 0.171360 -0.515781
C133  C     C_2   0.923297 0.924991 0.929008 0.204817
H73   H     H_    0.973755 0.901493 0.951968 0.072247
O53   O     O_2   0.906024 0.879523 0.872508 -0.501668
C134  C     C_2   0.196276 0.841292 0.083541 0.225206
H74   H     H_    0.173721 0.792970 0.128198 0.122796
O54   O     O_2   0.257630 0.823124 0.067358 -0.514558
C135  C     C_2   0.423318 0.425082 0.929011 0.204884
H75   H     H_    0.473816 0.401720 0.951927 0.072243
O55   O     O_2   0.406011 0.379484 0.872558 -0.501732
C136  C     C_2   0.696322 0.341275 0.083555 0.225199
H76   H     H_    0.673779 0.292966 0.128222 0.122815
O56   O     O_2   0.757676 0.323119 0.067365 -0.514570

loop_
_geom_bond_atom_site_label_1
_geom_bond_atom_site_label_2
_ccdc_geom_bond_type
C51   H72   S    
C58   C62   A    
C119  O43   A    
C55   C56   A    
C82   H26   S    
C67   C83   S    
C101  C102  A    
C72   H12   S    
Cr5   O5    S    
Cr4   O48   S    
Cr9   O33   S    
C41   C42   A    
C14   C18   S    
C96   C119  S    
C101  H29   S    
C35   C36   A    
Cr10  O38   S    
C75   H15   S    
C72   C76   A    
C30   C34   A    
Cr7   O31   S    
Cr3   O43   S    
C120  O16   A    
C47   O31   A    
C97   C98   A    
C54   H6    S    
C63   C79   S    
C53   C54   A    
C34   H62   S    
C26   C89   S    
Cr1   O45   S    
Cr12  O40   S    
C33   H61   S    
C25   C90   S    
C50   C54   A    
Cr11  O35   S    
C116  O12   A    
C11   H43   S    
C64   C68   A    
C115  O7    A    
C16   C20   S    
C135  O55   D    
C37   C38   A    
C1    O25   A    
C9    H41   S    
C65   C81   S    
C32   H68   S    
C94   C117  S    
C95   C99   A    
Cr10  O14   S    
C57   C112  S    
C66   C82   S    
C94   C98   A    
C92   O40   A    
C77   H21   S    
C12   H44   S    
C73   H13   S    
C17   H57   S    
C59   C110  S    
C117  O41   A    
C31   C40   A    
C108  H36   S    
C82   C134  S    
C51   C55   A    
C36   H64   S    
C32   C39   A    
C57   C73   A    
C92   O4    A    
C24   C132  A    
C46   O34   A    
Cr2   O42   S    
Cr10  O34   S    
C45   O33   A    
C121  C125  A    
C52   C56   A    
Cr5   O49   S    
C27   C44   A    
C41   C49   A    
C80   H20   S    
C135  H75   S    
C29   C33   A    
C61   C77   S    
C134  H74   S    
Cr12  O12   S    
C84   C136  S    
C29   C38   A    
C70   C74   A    
C9    C121  A    
C107  C108  S    
Cr8   O52   S    
C69   C73   A    
C60   C109  S    
C81   H25   S    
C56   H8    S    
Cr7   O27   S    
C112  O52   A    
C47   O35   A    
Cr6   O26   S    
C3    C122  S    
C80   C84   S    
C124  C128  A    
C97   C105  S    
C122  C126  A    
C44   C52   A    
Cr1   O41   S    
Cr12  O36   S    
C71   H11   S    
Cr2   O46   S    
C15   C127  S    
C133  H73   S    
C22   C130  A    
C53   H5    S    
C64   C80   S    
C79   H23   S    
C8    H4    S    
C59   C75   A    
Cr1   O21   S    
C29   H65   S    
C20   C132  S    
Cr6   O18   S    
C83   C135  S    
C128  C132  A    
C19   H59   S    
C72   C88   A    
Cr12  O16   S    
C7    C11   A    
C21   C45   S    
C14   C126  S    
C134  O54   D    
C19   C131  S    
C113  O5    A    
C63   C67   A    
C100  C108  S    
C5    H1    S    
C103  H31   S    
Cr12  O20   S    
C17   C129  S    
C58   C111  S    
C68   C84   S    
C80   H24   S    
C23   C47   S    
C88   C116  S    
C46   O30   A    
C109  O49   A    
C30   H66   S    
Cr9   O13   S    
C45   O29   A    
C39   C40   A    
C126  C130  A    
C62   C66   A    
Cr8   O8    S    
Cr1   O17   S    
Cr6   O50   S    
C50   H69   S    
C1    O21   A    
Cr2   O2    S    
C2    O22   A    
C89   O1    A    
C49   H70   S    
C60   C76   A    
C7    H3    S    
Cr1   O1    S    
C30   C37   A    
C83   H27   S    
Cr8   O28   S    
C5    C21   A    
C24   C48   S    
C116  O8    A    
C15   C19   S    
C43   C44   A    
C115  O11   A    
C18   H54   S    
Cr6   O30   S    
Cr10  O10   S    
C125  C129  A    
C25   C38   A    
C114  O10   A    
Cr9   O9    S    
Cr5   O29   S    
C78   C82   S    
C93   C97   A    
C113  O9    A    
C99   C100  A    
C12   C124  A    
C77   C81   S    
C27   C40   A    
C8    C12   A    
Cr3   O3    S    
C81   C133  S    
C33   C34   A    
C4    O24   A    
C23   C131  A    
C27   C92   S    
C18   H58   S    
C3    O27   A    
Cr4   O44   S    
C114  O6    A    
C74   H14   S    
C17   H53   S    
C104  H32   S    
C21   C129  A    
C78   H22   S    
C16   H46   S    
C42   C50   A    
C71   C87   A    
C90   O38   A    
C14   H48   S    
C35   H63   S    
C22   C46   S    
C112  O48   A    
C15   H45   S    
C78   H18   S    
Cr4   O24   S    
Cr7   O19   S    
C68   C88   A    
C136  O56   D    
C59   C63   A    
C79   H19   S    
C93   C118  S    
C14   H50   S    
Cr5   O17   S    
C117  O13   A    
C70   C86   A    
C32   C36   A    
C123  C127  A    
C110  O50   A    
C4    O28   A    
C69   C85   A    
C95   C104  A    
C58   C74   A    
C105  H33   S    
Cr7   O7    S    
C55   H7    S    
C2    O26   A    
Cr7   O51   S    
C76   H16   S    
C94   C101  A    
C16   C128  S    
C107  H35   S    
C86   C114  S    
C70   H10   S    
C93   C102  A    
C67   C87   A    
C62   C78   S    
C11   C123  A    
C71   C75   A    
Cr3   O19   S    
Cr11  O11   S    
C84   H28   S    
C98   C106  S    
C25   C42   A    
C66   C86   A    
Cr4   O20   S    
C26   C37   A    
C57   C61   A    
Cr3   O47   S    
Cr4   O4    S    
C108  H40   S    
C119  O15   A    
C95   C120  S    
C102  H30   S    
C99   C107  S    
C105  C106  S    
C28   C39   A    
C28   C43   A    
C19   H55   S    
C13   H47   S    
C13   C17   S    
C60   C64   A    
Cr11  O15   S    
C20   H60   S    
C127  C131  A    
C133  O53   D    
C1    C124  S    
C15   H51   S    
Cr3   O23   S    
C65   C85   A    
C120  O44   A    
C110  O46   A    
C79   C83   S    
Cr11  O39   S    
C43   C51   A    
C7    C23   A    
C91   O39   A    
Cr5   O25   S    
C118  O14   A    
C6    H2    S    
C96   C100  A    
C85   C113  S    
C16   H52   S    
C10   H42   S    
C77   H17   S    
C87   C115  S    
C4    C121  S    
C28   C91   S    
C31   C35   A    
Cr8   O32   S    
C52   H71   S    
C48   O36   A    
C91   O3    A    
C89   O37   A    
C69   H9    S    
C90   O2    A    
C49   C53   A    
C18   C130  S    
C6    C10   A    
Cr2   O22   S    
C111  O51   A    
Cr11  O19   S    
C61   C65   A    
C10   C122  A    
Cr10  O18   S    
C31   H67   S    
C8    C24   A    
C26   C41   A    
Cr9   O17   S    
C118  O42   A    
C96   C103  A    
C107  H39   S    
C103  C104  A    
Cr8   O20   S    
Cr6   O6    S    
C136  H76   S    
C48   O32   A    
C13   H49   S    
C5    C9    A    
C105  H37   S    
C111  O47   A    
C109  O45   A    
C13   C125  S    
C106  H34   S    
C20   H56   S    
C2    C123  S    
C106  H38   S    
Cr9   O37   S    
C3    O23   A    
Cr2   O18   S    
C6    C22   A    
