data_str_m3_o40_o40_f0_fof.sym.48
_audit_creation_date              2013-03-05T15:40:52-0500
_audit_creation_method            fapswitch 2.2
_symmetry_space_group_name_H-M    P1
_symmetry_Int_Tables_number       1
_space_group_crystal_system       triclinic
_cell_length_a                    16.860357
_cell_length_b                    16.707796
_cell_length_c                    16.77611
_cell_angle_alpha                 67.169177
_cell_angle_beta                  66.438008
_cell_angle_gamma                 65.780077
_cell_volume                      3806.02276349

loop_
_atom_site_label
_atom_site_type_symbol
_atom_site_description
_atom_site_fract_x
_atom_site_fract_y
_atom_site_fract_z
_atom_type_partial_charge
O1    O     O_R   0.982940 0.138950 0.510160 -0.573527
O2    O     O_R   0.017060 0.861050 0.489840 -0.620302
O3    O     O_R   0.138950 0.510160 0.982940 -0.601707
O4    O     O_R   0.861050 0.489840 0.017060 -0.584590
O5    O     O_R   0.510160 0.982940 0.138950 -0.585184
O6    O     O_R   0.489840 0.017060 0.861050 -0.578268
O7    O     O_R   0.489840 0.861050 0.017060 -0.609334
O8    O     O_R   0.510160 0.138950 0.982940 -0.629238
O9    O     O_R   0.017060 0.489840 0.861050 -0.620128
O10   O     O_R   0.982940 0.510160 0.138950 -0.578085
O11   O     O_R   0.861050 0.017060 0.489840 -0.593685
O12   O     O_R   0.138950 0.982940 0.510160 -0.609184
O13   O     O_R   0.867700 0.025880 0.612340 -0.574600
O14   O     O_R   0.132300 0.974120 0.387660 -0.580508
O15   O     O_R   0.025880 0.612340 0.867700 -0.581080
O16   O     O_R   0.974120 0.387660 0.132300 -0.610841
O17   O     O_R   0.612340 0.867700 0.025880 -0.656203
O18   O     O_R   0.387660 0.132300 0.974120 -0.639190
O19   O     O_R   0.387660 0.974120 0.132300 -0.602532
O20   O     O_R   0.612340 0.025880 0.867700 -0.630820
O21   O     O_R   0.132300 0.387660 0.974120 -0.658782
O22   O     O_R   0.867700 0.612340 0.025880 -0.640518
O23   O     O_R   0.974120 0.132300 0.387660 -0.602278
O24   O     O_R   0.025880 0.867700 0.612340 -0.586425
C1    C     C_R   0.393780 0.081859 0.653062 -0.325658
C2    C     C_R   0.592690 0.936848 0.352077 -0.323957
C3    C     C_R   0.891974 0.712825 0.460523 -0.333184
C4    C     C_R   0.877981 0.356286 0.607947 -0.309444
C5    C     C_R   0.636112 0.408812 0.112708 -0.319969
C6    C     C_R   0.306657 0.571441 0.037477 -0.355237
C7    C     C_R   0.301032 0.082581 0.535864 -0.312462
C8    C     C_R   0.671448 0.020283 0.415619 -0.310103
C9    C     C_R   0.550222 0.297261 0.089264 -0.345084
C10   C     C_R   0.434015 0.678055 0.966403 -0.356545
C11   C     C_R   0.902774 0.611718 0.347987 -0.320134
C12   C     C_R   0.901992 0.452228 0.710125 -0.333881
C13   C     C_R   0.964444 0.179662 0.436516 1.001380
C14   C     C_R   0.009912 0.827560 0.571085 0.989576
C15   C     C_R   0.162417 0.424584 0.006920 0.987753
C16   C     C_R   0.820785 0.565844 0.032149 1.032314
C17   C     C_R   0.437849 0.963066 0.179140 0.997868
C18   C     C_R   0.560804 0.039993 0.821057 0.989939
C19   C     C_R   0.574511 0.833067 0.998561 0.935017
C20   C     C_R   0.424285 0.160397 0.009693 0.966006
C21   C     C_R   0.008986 0.571390 0.828048 1.038847
C22   C     C_R   0.961835 0.438775 0.178482 1.008258
C23   C     C_R   0.820024 0.036739 0.563512 0.982583
C24   C     C_R   0.175424 0.981477 0.430022 0.999324
Zn1   Zn    Zn3+2 0.004880 0.004880 0.583590 1.053831
Zn2   Zn    Zn3+2 0.995120 0.995120 0.416410 0.986033
Zn3   Zn    Zn3+2 0.004880 0.583590 0.004880 0.985823
Zn4   Zn    Zn3+2 0.995120 0.416410 0.995120 0.938065
Zn5   Zn    Zn3+2 0.583590 0.004880 0.004880 0.936565
Zn6   Zn    Zn3+2 0.416410 0.995120 0.995120 0.970514
H1    H     H_    0.321178 0.095918 0.681153 0.159361
H2    H     H_    0.665928 0.909801 0.335624 0.152031
H3    H     H_    0.857287 0.752507 0.409546 0.147878
H4    H     H_    0.852835 0.329747 0.679846 0.149403
H5    H     H_    0.653790 0.338482 0.151206 0.149640
H6    H     H_    0.275954 0.641110 0.041381 0.141898
H7    H     H_    0.259218 0.125467 0.581056 0.163215
H8    H     H_    0.703573 0.018756 0.345767 0.144911
H9    H     H_    0.610760 0.262106 0.110639 0.143074
H10   H     H_    0.378847 0.707371 0.936515 0.150698
H11   H     H_    0.900311 0.681987 0.314360 0.149508
H12   H     H_    0.880549 0.392511 0.747057 0.143143
C25   C     C_R   0.439106 0.093487 0.699982 0.561915
C26   C     C_R   0.548600 0.917229 0.309779 0.596016
C27   C     C_R   0.912807 0.758489 0.500587 0.557153
C28   C     C_R   0.879648 0.309624 0.553316 0.597956
C29   C     C_R   0.682616 0.463156 0.110379 0.576092
C30   C     C_R   0.251731 0.517939 0.055405 0.579522
C31   C     C_R   0.258569 0.073234 0.484942 0.568956
C32   C     C_R   0.707008 0.055875 0.451835 0.632580
C33   C     C_R   0.505234 0.245399 0.082472 0.560648
C34   C     C_R   0.487611 0.731688 0.952056 0.580994
C35   C     C_R   0.899156 0.564057 0.298289 0.571753
C36   C     C_R   0.917452 0.496227 0.757162 0.564751
C37   C     C_R   0.535372 0.037517 0.540422 0.032086
C38   C     C_R   0.447389 0.006254 0.448059 0.038519
C39   C     C_R   0.921621 0.573446 0.574975 0.035659
C40   C     C_R   0.909211 0.478822 0.475453 0.029946
C41   C     C_R   0.536500 0.542159 0.036715 0.033753
C42   C     C_R   0.435173 0.436599 0.047317 0.032975
C43   C     C_R   0.585038 0.009474 0.459944 0.014542
C44   C     C_R   0.395584 0.045922 0.521402 0.009798
C45   C     C_R   0.909209 0.486472 0.618203 0.030030
C46   C     C_R   0.907038 0.570713 0.437195 0.020321
C47   C     C_R   0.455501 0.584750 0.011572 0.027204
C48   C     C_R   0.518342 0.392780 0.068958 0.027971
C49   C     C_R   0.542739 0.984239 0.419488 0.023624
C50   C     C_R   0.440539 0.053740 0.572921 0.022223
C51   C     C_R   0.399740 0.532105 0.028531 0.033162
C52   C     C_R   0.564767 0.446281 0.072445 0.018548
C53   C     C_R   0.900183 0.439148 0.568722 0.014391
C54   C     C_R   0.908845 0.618916 0.489137 0.025171
C55   C     C_R   0.535421 0.070533 0.671288 -0.075033
C56   C     C_R   0.453636 0.953700 0.326993 -0.070067
C57   C     C_R   0.949936 0.706955 0.575619 -0.079925
C58   C     C_R   0.918405 0.335849 0.459685 -0.118662
C59   C     C_R   0.666702 0.554913 0.057683 -0.078967
C60   C     C_R   0.294826 0.428975 0.041721 -0.067678
C61   C     C_R   0.308402 0.015745 0.426158 -0.109860
C62   C     C_R   0.671636 0.053797 0.544537 -0.081029
C63   C     C_R   0.424497 0.291198 0.053914 -0.066421
C64   C     C_R   0.562568 0.690955 0.988305 -0.052503
C65   C     C_R   0.919422 0.467472 0.329524 -0.089451
C66   C     C_R   0.951111 0.573574 0.707203 -0.074505
C67   C     C_R   0.587518 0.069027 0.721779 -0.241863
C68   C     C_R   0.406115 0.947356 0.277139 -0.227226
C69   C     C_R   0.993481 0.739036 0.610715 -0.224172
C70   C     C_R   0.941354 0.279185 0.404081 -0.247419
C71   C     C_R   0.726909 0.607086 0.031508 -0.218429
C72   C     C_R   0.248312 0.379199 0.031943 -0.205199
C73   C     C_R   0.268170 0.981627 0.390701 -0.230787
C74   C     C_R   0.720089 0.060805 0.593749 -0.229388
C75   C     C_R   0.377640 0.245648 0.038234 -0.188781
C76   C     C_R   0.614947 0.741751 0.985337 -0.158023
C77   C     C_R   0.938560 0.409493 0.275626 -0.227600
C78   C     C_R   0.993247 0.610123 0.739667 -0.219608
C79   C     C_R   0.674025 0.079629 0.677885 0.407856
C80   C     C_R   0.319234 0.942160 0.319453 0.415500
C81   C     C_R   0.024764 0.683966 0.684885 0.404967
C82   C     C_R   0.947152 0.317092 0.313511 0.393598
C83   C     C_R   0.703776 0.699090 0.985797 0.390531
C84   C     C_R   0.285658 0.285359 0.042954 0.383220
C85   C     C_R   0.581067 0.052738 0.586185 -0.069367
C86   C     C_R   0.403346 0.991222 0.401045 -0.065025
C87   C     C_R   0.942274 0.617278 0.618792 -0.060269
C88   C     C_R   0.917604 0.427045 0.420905 -0.072112
C89   C     C_R   0.588699 0.595800 0.027095 -0.074295
C90   C     C_R   0.385288 0.385545 0.046730 -0.077365
O25   O     O_3   0.718712 0.097417 0.720651 -0.554750
C91   C     C_3   0.668057 0.179798 0.747130 -0.232009
H13   H     H_    0.617777 0.227745 0.709264 0.093349
H14   H     H_    0.715818 0.214513 0.737918 0.214009
H15   H     H_    0.632529 0.167092 0.820070 0.190243
O26   O     O_3   0.280524 0.909272 0.284333 -0.559388
C92   C     C_3   0.317483 0.813619 0.303650 -0.298473
H16   H     H_    0.309581 0.781715 0.377223 0.132578
H17   H     H_    0.390047 0.793132 0.264223 0.147803
H18   H     H_    0.280060 0.786972 0.283427 0.187773
O27   O     O_3   0.082356 0.706137 0.707639 -0.570419
C93   C     C_3   0.172664 0.662254 0.664893 -0.294685
H19   H     H_    0.218937 0.679619 0.683065 0.192373
H20   H     H_    0.187352 0.686038 0.590076 0.138056
H21   H     H_    0.187715 0.586835 0.688229 0.143023
O28   O     O_3   0.969941 0.260865 0.259417 -0.570013
C94   C     C_3   0.890286 0.252126 0.258425 -0.166628
H22   H     H_    0.874166 0.294211 0.194149 0.210676
H23   H     H_    0.830572 0.269456 0.316206 0.134747
H24   H     H_    0.903151 0.180563 0.261212 0.189629
O29   O     O_3   0.770061 0.734219 0.914830 -0.602971
C95   C     C_3   0.793042 0.794321 0.936090 -0.186906
H25   H     H_    0.778557 0.783114 0.009867 0.153143
H26   H     H_    0.758444 0.865758 0.904504 0.188265
H27   H     H_    0.867057 0.784138 0.905515 0.178834
O30   O     O_3   0.228331 0.230847 0.091881 -0.603078
C96   C     C_3   0.204384 0.203972 0.036526 -0.134060
H28   H     H_    0.232749 0.231623 0.962602 0.150194
H29   H     H_    0.129288 0.225589 0.053238 0.171549
H30   H     H_    0.226995 0.128476 0.053215 0.170016
O31   O     O_3   0.386370 0.133692 0.770147 -0.598984
C97   C     C_3   0.379681 0.227062 0.738214 -0.344342
H31   H     H_    0.348534 0.261831 0.681460 0.157285
H32   H     H_    0.446951 0.237516 0.717403 0.146666
H33   H     H_    0.334979 0.259618 0.793855 0.193616
O32   O     O_3   0.598418 0.856552 0.257228 -0.605055
C98   C     C_3   0.576662 0.773749 0.304335 -0.414649
H34   H     H_    0.502858 0.782155 0.334166 0.151628
H35   H     H_    0.609867 0.735036 0.359298 0.172427
H36   H     H_    0.600819 0.732661 0.256211 0.184709
O33   O     O_3   0.884614 0.853316 0.474836 -0.588005
C99   C     C_3   0.906738 0.888409 0.379199 -0.209528
H37   H     H_    0.851770 0.895915 0.353998 0.113027
H38   H     H_    0.973260 0.846592 0.343981 0.112129
H39   H     H_    0.912138 0.957623 0.359513 0.208131
O34   O     O_3   0.829476 0.249442 0.589510 -0.589735
C100  C     C_3   0.751598 0.290973 0.557343 -0.379325
H40   H     H_    0.764343 0.327617 0.484372 0.137070
H41   H     H_    0.698633 0.339240 0.596699 0.161794
H42   H     H_    0.724566 0.237571 0.564941 0.198853
O35   O     O_3   0.741996 0.425537 0.162108 -0.635015
C101  C     C_3   0.698740 0.456654 0.240713 -0.454559
H43   H     H_    0.639406 0.431032 0.283610 0.176940
H44   H     H_    0.677488 0.532281 0.224576 0.160492
H45   H     H_    0.747414 0.429955 0.280625 0.188000
O36   O     O_3   0.159698 0.540869 0.103689 -0.590934
C102  C     C_3   0.116019 0.635739 0.087785 -0.243733
H46   H     H_    0.134358 0.672039 0.014713 0.127023
H47   H     H_    0.130420 0.664163 0.128626 0.131321
H48   H     H_    0.041659 0.647850 0.110385 0.213672
O37   O     O_3   0.170753 0.128595 0.487100 -0.597691
C103  C     C_3   0.174222 0.204329 0.410492 -0.301432
H49   H     H_    0.187763 0.184838 0.348917 0.181351
H50   H     H_    0.225440 0.236013 0.400455 0.158061
H51   H     H_    0.107617 0.257375 0.420417 0.194196
O38   O     O_3   0.756095 0.114886 0.391508 -0.622091
C104  C     C_3   0.694005 0.202746 0.369352 -0.431487
H52   H     H_    0.624999 0.203255 0.376632 0.169202
H53   H     H_    0.720516 0.236888 0.297345 0.200626
H54   H     H_    0.686853 0.243737 0.411829 0.171601
O39   O     O_3   0.528533 0.150963 0.118704 -0.591582
C105  C     C_3   0.623139 0.109103 0.105644 -0.246074
H55   H     H_    0.643347 0.110613 0.160355 0.135004
H56   H     H_    0.663732 0.139825 0.037717 0.116505
H57   H     H_    0.639988 0.036344 0.110284 0.207058
O40   O     O_3   0.478046 0.818625 0.891994 -0.592793
C106  C     C_3   0.386689 0.868711 0.893764 -0.250131
H58   H     H_    0.339833 0.859843 0.963641 0.124245
H59   H     H_    0.365631 0.850814 0.849615 0.141738
H60   H     H_    0.380953 0.942108 0.865577 0.214161
O41   O     O_3   0.874408 0.614307 0.219857 -0.605253
C107  C     C_3   0.780440 0.656475 0.241482 -0.364184
H61   H     H_    0.762722 0.713289 0.270372 0.203613
H62   H     H_    0.742319 0.606935 0.288153 0.137339
H63   H     H_    0.760174 0.685896 0.178284 0.206290
O42   O     O_3   0.885863 0.474235 0.851279 -0.572014
C108  C     C_3   0.898559 0.379412 0.891451 -0.231973
H64   H     H_    0.963899 0.336903 0.855453 0.109352
H65   H     H_    0.839828 0.361466 0.896535 0.134175
H66   H     H_    0.900952 0.361276 0.961376 0.193697

loop_
_geom_bond_atom_site_label_1
_geom_bond_atom_site_label_2
_geom_bond_distance
_ccdc_geom_bond_type
C103  H50   1.115315 S    
O39   C105  1.416217 S    
C46   C54   1.412378 A    
O9    C21   1.226458 A    
C56   C68   1.423689 A    
C31   O37   1.381510 S    
C104  H53   1.107801 S    
C59   C71   1.433780 A    
C98   H34   1.109915 S    
C7    H7    1.079345 S    
O11   C23   1.248750 A    
O31   C97   1.410240 S    
C1    C25   1.400971 A    
C55   C85   1.407911 A    
C91   H15   1.103610 S    
O12   Zn1   2.050831 S    
C43   C49   1.415192 A    
C35   O41   1.380030 S    
O14   Zn2   2.068548 S    
C77   C82   1.391750 A    
C82   O28   1.392963 S    
C42   C48   1.411577 A    
C34   O40   1.397511 S    
O4    Zn4   2.039656 S    
C4    C53   1.418138 A    
O5    Zn5   2.057242 S    
C97   H31   1.113553 S    
C18   C67   1.471264 S    
C60   C90   1.416679 A    
C70   C82   1.380059 A    
C6    C51   1.399802 A    
C94   H23   1.111529 S    
C96   H28   1.114739 S    
C8    C32   1.395131 A    
C5    C52   1.413749 A    
C72   C84   1.395358 A    
C92   H18   1.109183 S    
C107  H62   1.114666 S    
C7    C31   1.396766 A    
C103  H51   1.105772 S    
C71   C83   1.391238 A    
C11   H11   1.078470 S    
O27   C93   1.410431 S    
C106  H60   1.107260 S    
C101  H43   1.112948 S    
C36   C66   1.440664 A    
C102  H47   1.110883 S    
C66   C78   1.448289 A    
C99   H37   1.109124 S    
C30   O36   1.399599 S    
C13   C70   1.465847 S    
C38   C44   1.419404 A    
O2    Zn2   2.053069 S    
C62   C74   1.433664 A    
C39   C87   1.424619 A    
C9    C33   1.422713 A    
C32   O38   1.380873 S    
C28   C58   1.402323 A    
O40   C106  1.413817 S    
C6    H6    1.079287 S    
O10   C22   1.238824 A    
C104  H54   1.110704 S    
O24   C14   1.287851 A    
C96   H29   1.109838 S    
O38   C104  1.419762 S    
C76   C83   1.371243 A    
O7    C19   1.250464 A    
C40   C88   1.419917 A    
C75   C84   1.396422 A    
C58   C88   1.402115 A    
C95   H26   1.109382 S    
C3    C27   1.401339 A    
C78   C81   1.384464 A    
O1    C13   1.252243 A    
C100  H42   1.104091 S    
C56   C86   1.407615 A    
C103  H49   1.112082 S    
C29   C59   1.415696 A    
O17   Zn5   2.051975 S    
O3    C15   1.256743 A    
C104  H52   1.117015 S    
C73   C80   1.388467 A    
C64   C76   1.431655 A    
C98   H35   1.111208 S    
C63   C75   1.444756 A    
C3    C54   1.389831 A    
C64   C89   1.413082 A    
O9    Zn4   2.065578 S    
C27   O33   1.392059 S    
O6    Zn6   2.057242 S    
C65   C88   1.408263 A    
O10   Zn3   2.065578 S    
C65   C77   1.431811 A    
C83   O29   1.393944 S    
C48   C52   1.437499 A    
C63   C90   1.413372 A    
C26   C56   1.408796 A    
C1    H1    1.079105 S    
C84   O30   1.394742 S    
C12   C45   1.393780 A    
C23   C74   1.475494 S    
C41   C47   1.406974 A    
C74   C79   1.400720 A    
C57   C87   1.424096 A    
C69   C81   1.382431 A    
C93   H21   1.113428 S    
O4    C16   1.241876 A    
C35   C65   1.424760 A    
O28   C94   1.416299 S    
C80   O26   1.388495 S    
C95   H27   1.109556 S    
C93   H20   1.113460 S    
C3    H3    1.074567 S    
C94   H24   1.109410 S    
O16   C22   1.269852 A    
C108  H64   1.114348 S    
O13   C23   1.281207 A    
C39   C54   1.400709 A    
O3    Zn3   2.039656 S    
C107  H61   1.110757 S    
C28   O34   1.381568 S    
O23   Zn2   2.055232 S    
O14   C24   1.266118 A    
C38   C86   1.418291 A    
C33   O39   1.396922 S    
C2    C49   1.414725 A    
O33   C99   1.424091 S    
C41   C52   1.417536 A    
C11   C35   1.388783 A    
C45   C53   1.430545 A    
O36   C102  1.413194 S    
O5    C17   1.245998 A    
C102  H48   1.108101 S    
C61   C73   1.428935 A    
O35   C101  1.411776 S    
O17   C19   1.301530 A    
C41   C89   1.423103 A    
C60   C72   1.441329 A    
O18   C20   1.306791 A    
C108  H65   1.110830 S    
C55   C67   1.431717 A    
C11   C46   1.401496 A    
O2    C14   1.231859 A    
O20   C18   1.286548 A    
C16   C71   1.446762 S    
O21   C15   1.298098 A    
C105  H57   1.107010 S    
O41   C107  1.400396 S    
C9    H9    1.073635 S    
C15   C72   1.478697 S    
O22   C16   1.270626 A    
C10   H10   1.079338 S    
C106  H58   1.114055 S    
C37   C50   1.410458 A    
C96   H30   1.109733 S    
C61   C86   1.401614 A    
C99   H39   1.104811 S    
O8    C20   1.267193 A    
C95   H25   1.114719 S    
C39   C45   1.411287 A    
C66   C87   1.414988 A    
C24   C73   1.434455 S    
O13   Zn1   2.068548 S    
C59   C89   1.410681 A    
O19   Zn6   2.067691 S    
O32   C98   1.417458 S    
C105  H56   1.114122 S    
C33   C63   1.431902 A    
O15   Zn3   2.069429 S    
C17   C68   1.461211 S    
O25   C91   1.424042 S    
C98   H36   1.107592 S    
O15   C21   1.286978 A    
C27   C57   1.436802 A    
C37   C43   1.417260 A    
C21   C78   1.454869 S    
C32   C62   1.417396 A    
O24   Zn1   2.055234 S    
C37   C85   1.425768 A    
C1    C50   1.410204 A    
C34   C64   1.420472 A    
C40   C53   1.413620 A    
C91   H14   1.105851 S    
C97   H33   1.109240 S    
C4    C28   1.401600 A    
O16   Zn4   2.069429 S    
C5    C29   1.404566 A    
O20   Zn5   2.067690 S    
C107  H63   1.108966 S    
C2    H2    1.082417 S    
O8    Zn5   2.033472 S    
C6    C30   1.412469 A    
C92   H16   1.114253 S    
C58   C70   1.418572 A    
C91   H13   1.114625 S    
C4    H4    1.077785 S    
C57   C69   1.444417 A    
C12   C36   1.415231 A    
C101  H45   1.108148 S    
O18   Zn6   2.051976 S    
C93   H19   1.109186 S    
C2    C26   1.402051 A    
C38   C49   1.408941 A    
C97   H32   1.112394 S    
O29   C95   1.411871 S    
C10   C47   1.405360 A    
C8    H8    1.082433 S    
C101  H44   1.113052 S    
O11   Zn2   2.050831 S    
O23   C13   1.270845 A    
C94   H22   1.104613 S    
C68   C80   1.372004 A    
C108  H66   1.105223 S    
C92   H17   1.112036 S    
C67   C79   1.397522 A    
O42   C108  1.420727 S    
O30   C96   1.413898 S    
C62   C85   1.407092 A    
C30   C60   1.426650 A    
C20   C75   1.478400 S    
C40   C46   1.406535 A    
C8    C43   1.397745 A    
C106  H59   1.110505 S    
O12   C24   1.240313 A    
C42   C90   1.427207 A    
C22   C77   1.441096 S    
C12   H12   1.071077 S    
C42   C51   1.407332 A    
C47   C51   1.417384 A    
C102  H46   1.113577 S    
C99   H38   1.114801 S    
C26   O32   1.383245 S    
O26   C92   1.410626 S    
C25   C55   1.422400 A    
C19   C76   1.459469 S    
C100  H40   1.111588 S    
C25   O31   1.383525 S    
C31   C61   1.418291 A    
C105  H55   1.110930 S    
O37   C103  1.412410 S    
O6    C18   1.250346 A    
C81   O27   1.388159 S    
C7    C44   1.407261 A    
C5    H5    1.079049 S    
O22   Zn3   2.067050 S    
C44   C50   1.425202 A    
O7    Zn6   2.033474 S    
C79   O25   1.397166 S    
C14   C69   1.460199 S    
C9    C48   1.404482 A    
O1    Zn1   2.053069 S    
O21   Zn4   2.067052 S    
C36   O42   1.396314 S    
O19   C17   1.287783 A    
C10   C34   1.414438 A    
O34   C100  1.423071 S    
C100  H41   1.111152 S    
C29   O35   1.380414 S    
