data_str_m3_o1_o14_f0_pcu.sym.35
_audit_creation_date              2013-03-05T16:09:56-0500
_audit_creation_method            fapswitch 2.2
_symmetry_space_group_name_H-M    P1
_symmetry_Int_Tables_number       1
_space_group_crystal_system       triclinic
_cell_length_a                    10.674394
_cell_length_b                    9.838402
_cell_length_c                    10.679291
_cell_angle_alpha                 90.024597
_cell_angle_beta                  90.945446
_cell_angle_gamma                 91.188463
_cell_volume                      1121.1339904

loop_
_atom_site_label
_atom_site_type_symbol
_atom_site_description
_atom_site_fract_x
_atom_site_fract_y
_atom_site_fract_z
_atom_type_partial_charge
O1    O     O_R   0.316770 0.614620 0.499990 -0.615866
O2    O     O_R   0.683230 0.614620 0.500010 -0.636902
O3    O     O_R   0.316800 0.385290 0.500000 -0.624329
O4    O     O_R   0.683200 0.385290 0.500000 -0.621947
C1    C     C_R   0.260090 0.498226 0.504930 0.876648
C2    C     C_R   0.739498 0.500998 0.510290 0.846625
O5    O     O_R   0.500010 0.614690 0.316770 -0.624990
O6    O     O_R   0.499990 0.614690 0.683230 -0.621559
O7    O     O_R   0.500040 0.385360 0.316770 -0.612001
O8    O     O_R   0.499960 0.385360 0.683230 -0.635128
C3    C     C_R   0.505962 0.500183 0.260537 0.879606
C4    C     C_R   0.506244 0.500688 0.739813 0.850742
Zn1   Zn    Zn3+2 0.500000 0.653120 0.500000 0.934550
Zn2   Zn    Zn3+2 0.500000 0.346880 0.500000 0.931377
H1    H     H_    0.381370 0.335245 0.110488 0.156141
H2    H     H_    0.382197 0.335224 0.885169 0.156893
C5    C     C_R   0.687094 0.677403 0.134701 -0.183414
C6    C     C_R   0.678354 0.689268 0.874738 -0.208494
H3    H     H_    0.698821 0.672073 0.235127 0.156055
H4    H     H_    0.686420 0.691466 0.774376 0.152268
C7    C     C_R   0.764615 0.769148 0.071825 -0.134970
C8    C     C_R   0.759605 0.775761 0.942047 -0.159386
H5    H     H_    0.830322 0.833604 0.123929 0.130580
H6    H     H_    0.821786 0.845034 0.893027 0.131885
C9    C     C_R   0.597295 0.596289 0.936783 0.119144
C10   C     C_R   0.600073 0.592546 0.068171 0.097940
C11   C     C_R   0.518034 0.500215 0.128680 -0.110996
C12   C     C_R   0.516693 0.502500 0.872400 -0.106050
C13   C     C_R   0.442990 0.406610 0.062837 -0.215178
C14   C     C_R   0.443076 0.407042 0.935181 -0.233840
C15   C     C_R   0.065354 0.406018 0.600270 0.077082
C16   C     C_R   0.934507 0.416790 0.610142 0.092016
C17   C     C_R   0.872054 0.503117 0.524065 -0.064791
C18   C     C_R   0.127544 0.494923 0.515715 -0.077184
C19   C     C_R   0.936315 0.589693 0.443672 -0.227235
C20   C     C_R   0.063681 0.587550 0.441397 -0.228141
H7    H     H_    0.887522 0.657030 0.379975 0.150236
H8    H     H_    0.112543 0.654985 0.377392 0.153763
C21   C     C_R   0.577641 0.073774 0.579286 -0.077837
C22   C     C_R   0.422759 0.070190 0.420271 -0.068653
H9    H     H_    0.639614 0.129610 0.642813 0.121353
H10   H     H_    0.360919 0.123336 0.356656 0.117959
C23   C     C_R   0.577871 0.929964 0.579021 -0.066258
C24   C     C_R   0.422478 0.926264 0.420534 -0.068614
H11   H     H_    0.640566 0.877258 0.641812 0.118115
H12   H     H_    0.360329 0.870297 0.357193 0.126880
N1    N     N_R   0.500000 0.857200 0.500000 -0.080621
N2    N     N_R   0.500000 0.142810 0.500000 -0.078472
C25   C     C_3   0.136708 0.299050 0.675604 -0.419734
C26   C     C_3   0.137721 0.162951 0.605110 -0.316191
C27   C     C_3   0.213799 0.057924 0.676983 -0.860554
H13   H     H_    0.311986 0.095102 0.691078 0.273546
H14   H     H_    0.171609 0.037522 0.769678 0.249107
H15   H     H_    0.214453 0.961333 0.623138 0.253698
H16   H     H_    0.040222 0.122984 0.592222 0.205365
H17   H     H_    0.177870 0.176798 0.510690 0.236853
H18   H     H_    0.233278 0.334996 0.699202 0.210024
H19   H     H_    0.096288 0.279930 0.768492 0.196532
C28   C     C_3   0.864869 0.344896 0.716122 -0.456969
C29   C     C_3   0.889604 0.417591 0.841830 -0.364169
C30   C     C_3   0.828291 0.340845 0.949671 -0.853587
H20   H     H_    0.726373 0.325316 0.930986 0.271306
H21   H     H_    0.872218 0.240276 0.962247 0.251902
H22   H     H_    0.841117 0.400181 0.037627 0.255684
H23   H     H_    0.990902 0.431325 0.863554 0.218351
H24   H     H_    0.851776 0.520821 0.835710 0.231657
H25   H     H_    0.762280 0.342609 0.701305 0.219053
H26   H     H_    0.891292 0.236532 0.721650 0.203126

loop_
_geom_bond_atom_site_label_1
_geom_bond_atom_site_label_2
_geom_bond_distance
_ccdc_geom_bond_type
C26   H16   1.111293 S    
C30   H22   1.110767 S    
C21   C23   1.414915 A    
O7    Zn2   1.993219 S    
C2    C17   1.419886 S    
C12   C14   1.391520 A    
C13   C14   1.363306 A    
O3    Zn2   1.999408 S    
C28   H26   1.109789 S    
C11   C13   1.390849 A    
O7    C3    1.280498 A    
C18   C20   1.390551 A    
C19   C20   1.360770 A    
C24   N1    1.366487 A    
C3    C11   1.416135 S    
O6    C4    1.276683 A    
C27   H15   1.110733 S    
C1    C18   1.421121 S    
C20   H8    1.085001 S    
C26   C27   1.526841 S    
C15   C18   1.420397 A    
C29   H24   1.102272 S    
C28   C29   1.537236 S    
C21   H9    1.081408 S    
C7    C8    1.387700 A    
C16   C17   1.419399 A    
C9    C12   1.418250 A    
O5    C3    1.279631 A    
C23   H11   1.079953 S    
C10   C11   1.412731 A    
O2    C2    1.283819 A    
C6    C9    1.418134 A    
O8    C4    1.285289 A    
C15   C25   1.532530 S    
O1    C1    1.285506 A    
C5    C10   1.417809 A    
C22   H10   1.081887 S    
C17   C19   1.388872 A    
C4    C12   1.418565 S    
C24   H12   1.081934 S    
C29   H23   1.107669 S    
H1    C13   1.084782 S    
C23   N1    1.366462 A    
C6    H4    1.076855 S    
C7    H5    1.082617 S    
O4    Zn2   1.984016 S    
C30   H20   1.110235 S    
C8    H6    1.082631 S    
O1    Zn1   1.984479 S    
H2    C14   1.084429 S    
C27   H13   1.110759 S    
O6    Zn1   1.993120 S    
O3    C1    1.277768 A    
C22   C24   1.415948 A    
C25   H18   1.107877 S    
C19   H7    1.084388 S    
O4    C2    1.280025 A    
C25   C26   1.536153 S    
O8    Zn2   1.992902 S    
C30   H21   1.110931 S    
O2    Zn1   1.999905 S    
C22   N2    1.366415 A    
C5    H3    1.079131 S    
Zn2   N2    2.007724 S    
O5    Zn1   1.992803 S    
C16   C28   1.529861 S    
C28   H25   1.103636 S    
C9    C10   1.403463 A    
C6    C8    1.393309 A    
Zn1   N1    2.007821 S    
C29   C30   1.526402 S    
C26   H17   1.109478 S    
C25   H19   1.102943 S    
C15   C16   1.408596 A    
C21   N2    1.365941 A    
C27   H14   1.110929 S    
C5    C7    1.392196 A    
