data_str_m2_o14_o25_f0_pcu.sym.191
_audit_creation_date              2012-12-10T17:23:12-0500
_audit_creation_method            fapswitch 2.2
_symmetry_space_group_name_H-M    P1
_symmetry_Int_Tables_number       1
_space_group_crystal_system       triclinic
_cell_length_a                    15.856042
_cell_length_b                    10.85885
_cell_length_c                    9.61646
_cell_angle_alpha                 92.799756
_cell_angle_beta                  90.785426
_cell_angle_gamma                 93.757506
_cell_volume                      1649.9775903

loop_
_atom_site_label
_atom_site_type_symbol
_atom_type_description
_atom_site_fract_x
_atom_site_fract_y
_atom_site_fract_z
_atom_type_partial_charge
C1    C     C_R   0.504791 0.263201 0.497580 0.815489
C2    C     C_3   0.083228 0.497409 0.496310 -0.200743
C3    C     C_3   0.976546 0.576656 0.602653 -0.323288
C4    C     C_3   0.916410 0.498765 0.499845 -0.119577
C5    C     C_3   0.032549 0.611673 0.478031 0.312414
C6    C     C_3   0.971510 0.535410 0.376296 0.361768
C7    C     C_1   0.174879 0.497186 0.496193 0.204462
C8    C     C_1   0.824923 0.499357 0.501983 0.117033
C9    C     C_R   0.599646 0.141363 0.708091 -0.139123
C10   C     C_R   0.616282 0.094709 0.837808 0.183695
C11   C     C_R   0.580124 0.978557 0.867180 -0.175123
C12   C     C_R   0.340009 0.498434 0.499076 0.847171
C13   C     C_R   0.535659 0.905374 0.763750 -0.160029
C14   C     C_R   0.524165 0.947681 0.628176 0.038123
C15   C     C_R   0.546122 0.073336 0.608719 0.058570
C16   C     C_R   0.510011 0.129554 0.494942 -0.164709
C17   C     C_R   0.462450 0.058349 0.394030 -0.269518
C18   C     C_R   0.450904 0.930903 0.400948 0.425832
C19   C     C_R   0.487486 0.872763 0.513713 -0.229485
C20   C     C_R   0.618770 0.658629 0.154200 -0.056780
C21   C     C_R   0.679202 0.731113 0.086608 -0.152154
C22   C     C_R   0.679669 0.729059 0.943152 -0.203726
C23   C     C_R   0.495207 0.737752 0.503923 0.840493
C24   C     C_R   0.618943 0.655801 0.866529 -0.152504
C25   C     C_R   0.558841 0.576263 0.930659 0.169716
C26   C     C_R   0.558609 0.577159 0.080102 0.196245
C27   C     C_R   0.444200 0.424776 0.065485 0.209587
C28   C     C_R   0.443110 0.429869 0.918411 -0.026080
C29   C     C_R   0.659936 0.500337 0.500847 0.776645
C30   C     C_3   0.965869 0.382462 0.518275 -0.287856
C31   C     C_3   0.022103 0.420980 0.395196 0.306325
C32   C     C_1   0.250379 0.497564 0.497120 -0.047262
C33   C     C_1   0.749476 0.499880 0.502334 -0.144550
C34   C     C_3   0.027226 0.461103 0.618549 0.328686
Cu1   Cu    Cu3+1 0.499990 0.499990 0.640660 0.944617
Cu2   Cu    Cu3+1 0.500010 0.500010 0.359340 0.981769
H1    H     H_    0.586264 0.944165 0.970395 0.170752
H2    H     H_    0.504936 0.820921 0.796912 0.196480
H3    H     H_    0.621707 0.671838 0.264356 0.183164
H4    H     H_    0.724746 0.791668 0.146276 0.186388
H5    H     H_    0.725149 0.788630 0.890764 0.169955
H6    H     H_    0.619197 0.668957 0.757712 0.200413
H7    H     H_    0.396239 0.374797 0.855613 0.171579
H8    H     H_    0.937921 0.288120 0.535516 0.208057
H9    H     H_    0.957349 0.640384 0.688553 0.197590
H10   H     H_    0.430639 0.103431 0.312920 0.190771
H11   H     H_    0.626750 0.232579 0.687318 0.152888
N1    N     N_R   0.500800 0.501210 0.147910 -0.214193
N2    N     N_R   0.500830 0.501290 0.852040 -0.226874
O1    O     O_R   0.499990 0.319640 0.618810 -0.582391
O2    O     O_R   0.500000 0.319660 0.381240 -0.599274
O3    O     O_R   0.379070 0.499980 0.618770 -0.568167
O4    O     O_R   0.379080 0.500000 0.381190 -0.562062
O5    O     O_R   0.500000 0.680340 0.618760 -0.618801
O6    O     O_R   0.500010 0.680360 0.381190 -0.540814
O7    O     O_R   0.620920 0.500000 0.618810 -0.605068
O8    O     O_R   0.620930 0.500020 0.381230 -0.585762
S1    S     S_3+6 0.053627 0.316363 0.260091 0.097137
O9    O     O_2   0.108668 0.385381 0.159989 -0.179370
O10   O     O_2   0.102264 0.218049 0.322967 -0.269573
O11   O     O_3   0.967232 0.250706 0.175925 -0.473000
H12   H     H_    0.989230 0.194444 0.102877 0.401319
S2    S     S_3+6 0.380662 0.851024 0.276486 0.049018
O12   O     O_2   0.333415 0.744385 0.340887 -0.250413
O13   O     O_2   0.317538 0.936146 0.224873 -0.250095
O14   O     O_3   0.436595 0.799076 0.141026 -0.555669
H13   H     H_    0.395761 0.745042 0.083195 0.378749
C35   C     C_3   0.379982 0.332421 0.123304 -0.369252
C36   C     C_3   0.390370 0.200985 0.063747 -0.789665
H14   H     H_    0.376992 0.191709 0.950142 0.257334
H15   H     H_    0.455494 0.173494 0.084212 0.247843
H16   H     H_    0.344198 0.136814 0.113264 0.302055
H17   H     H_    0.383553 0.328781 0.236329 0.256983
H18   H     H_    0.315443 0.359127 0.096662 0.241244
S3    S     S_3+6 0.931166 0.584977 0.215523 0.083289
O15   O     O_2   0.871589 0.484743 0.149838 -0.280502
O16   O     O_2   0.884618 0.699602 0.243013 -0.280228
O17   O     O_3   0.011661 0.615573 0.107943 -0.410209
H19   H     H_    0.985036 0.646197 0.023658 0.371666
S4    S     S_3+6 0.078424 0.763233 0.453597 0.110424
O18   O     O_2   0.136191 0.802827 0.575054 -0.240100
O19   O     O_2   0.128118 0.762472 0.321658 -0.168045
O20   O     O_3   0.001375 0.861731 0.443039 -0.478007
H20   H     H_    0.030943 0.942323 0.424480 0.399768
S5    S     S_3+6 0.063930 0.410822 0.780853 0.081032
O21   O     O_2   0.115614 0.301148 0.754844 -0.219003
O22   O     O_2   0.117721 0.513292 0.855156 -0.212211
O23   O     O_3   0.980973 0.369953 0.879503 -0.452805
H21   H     H_    0.942840 0.438282 0.873928 0.348020
C37   C     C_3   0.666759 0.172924 0.947605 -0.445080
C38   C     C_3   0.759478 0.191400 0.907901 -0.705651
H22   H     H_    0.787419 0.100595 0.892955 0.254870
H23   H     H_    0.765822 0.242048 0.810601 0.238854
H24   H     H_    0.795225 0.246292 0.992453 0.290076
H25   H     H_    0.639377 0.264335 0.961522 0.217052
H26   H     H_    0.663573 0.129046 0.049662 0.211378

loop_
_geom_bond_atom_site_label_1
_geom_bond_atom_site_label_2
_ccdc_geom_bond_type
C27   N1    A    
S2    O13   D    
C24   H6    S    
C2    C7    S    
C4    C8    S    
C6    S3    S    
S5    O21   D    
C31   S1    S    
C30   C31   S    
C18   S2    S    
C22   H5    S    
S1    O10   D    
C15   C16   A    
C29   C33   S    
C11   H1    S    
C18   C19   A    
C36   H15   S    
Cu2   O4    S    
Cu1   Cu2   S    
C35   C36   S    
Cu1   N2    S    
Cu2   N1    S    
C27   C35   S    
C1    O1    A    
C12   O4    A    
C26   N1    A    
O23   H21   S    
C2    C34   S    
S1    O11   S    
C6    C31   S    
S2    O14   S    
C21   C22   A    
C12   C32   S    
Cu1   O5    S    
C30   H8    S    
O11   H12   S    
S4    O20   S    
C12   O3    A    
S5    O22   D    
C30   C34   S    
C37   H25   S    
C17   H10   S    
C4    C6    S    
Cu2   O8    S    
C38   H22   S    
C20   H3    S    
O17   H19   S    
C16   C17   A    
C3    C34   S    
C35   H17   S    
C3    H9    S    
C2    C31   S    
C34   S5    S    
C36   H16   S    
C19   C23   S    
S3    O15   D    
C38   H23   S    
S3    O16   D    
C28   N2    A    
O20   H20   S    
Cu1   O1    S    
C17   C18   A    
C1    C16   S    
C24   C25   A    
C5    S4    S    
C23   O6    A    
C1    O2    A    
C13   H2    S    
Cu2   O2    S    
S4    O19   D    
C29   O8    A    
C9    H11   S    
C22   C24   A    
S1    O9    D    
C2    C5    S    
C3    C4    S    
Cu1   O3    S    
C23   O5    A    
C9    C10   A    
S5    O23   S    
C7    C32   T    
Cu1   O7    S    
C14   C19   A    
S4    O18   D    
C3    C5    S    
C37   H26   S    
C29   O7    A    
C28   H7    S    
C25   C26   A    
Cu2   O6    S    
C38   H24   S    
C11   C13   A    
C37   C38   S    
C5    C6    S    
C21   H4    S    
C20   C26   A    
O14   H13   S    
C8    C33   T    
C9    C15   A    
C36   H14   S    
S3    O17   S    
C25   N2    A    
C10   C11   A    
S2    O12   D    
C20   C21   A    
C10   C37   S    
C27   C28   A    
C14   C15   A    
C13   C14   A    
C35   H18   S    
C4    C30   S    
