data_str_m12_o4_o9_f0_bcu.sym.107
_audit_creation_date              2013-03-05T15:55:03-0500
_audit_creation_method            fapswitch 2.2
_symmetry_space_group_name_H-M    P1
_symmetry_Int_Tables_number       1
_space_group_crystal_system       triclinic
_cell_length_a                    14.955987
_cell_length_b                    14.839787
_cell_length_c                    14.901829
_cell_angle_alpha                 109.256876
_cell_angle_beta                  110.258031
_cell_angle_gamma                 109.01355
_cell_volume                      2542.14526988

loop_
_atom_site_label
_atom_site_type_symbol
_atom_site_description
_atom_site_fract_x
_atom_site_fract_y
_atom_site_fract_z
_atom_type_partial_charge
C1    C     C_R   0.187072 0.278359 0.256003 -0.120510
H1    H     H_    0.127674 0.303509 0.256530 0.140895
N1    N     N_R   0.291070 0.347930 0.293870 -0.048571
C2    C     C_R   0.525499 0.431940 0.746229 -0.151058
H2    H     H_    0.552289 0.373417 0.748544 0.140219
N2    N     N_R   0.554050 0.497220 0.706150 -0.050017
C3    C     C_R   0.505700 0.201602 0.407371 -0.182500
H3    H     H_    0.487694 0.156485 0.324206 0.141503
N3    N     N_R   0.497240 0.291100 0.443210 -0.041323
C4    C     C_R   0.296539 0.602489 0.590944 -0.108590
H4    H     H_    0.334333 0.664842 0.675605 0.147394
N4    N     N_R   0.347890 0.554050 0.556810 -0.046292
C5    C     C_R   0.596539 0.289815 0.589909 -0.082947
H5    H     H_    0.658207 0.321285 0.673810 0.121624
N5    N     N_R   0.554050 0.347900 0.556830 -0.047569
C6    C     C_R   0.202365 0.509337 0.408496 -0.087850
H6    H     H_    0.148352 0.481067 0.323126 0.123639
N6    N     N_R   0.291070 0.497250 0.443190 -0.053813
C7    C     C_R   0.436096 0.526845 0.750504 -0.016382
H7    H     H_    0.383185 0.559137 0.761228 0.100551
N7    N     N_R   0.497240 0.554030 0.706140 -0.041276
C8    C     C_R   0.277338 0.184663 0.249994 -0.100309
H8    H     H_    0.299117 0.120891 0.239049 0.128313
N8    N     N_R   0.347890 0.291110 0.293870 -0.042706
C9    C     C_R   0.174806 0.174094 0.226034 0.056742
C10   C     C_R   0.451828 0.448892 0.775895 0.032973
C11   C     C_R   0.566934 0.197129 0.496931 0.074989
C12   C     C_R   0.205585 0.578900 0.499841 0.045111
C13   C     C_R   0.474325 0.720253 0.406112 -0.144306
H9    H     H_    0.445954 0.695338 0.320573 0.124222
N9    N     N_R   0.445950 0.652100 0.443170 -0.053196
C14   C     C_R   0.814600 0.561484 0.594576 -0.171393
H10   H     H_    0.872140 0.622827 0.679269 0.142764
N10   N     N_R   0.708930 0.502750 0.556810 -0.052987
C15   C     C_R   0.495054 0.404428 0.196015 -0.138571
H11   H     H_    0.509737 0.337788 0.164966 0.115206
N11   N     N_R   0.502760 0.445970 0.293860 -0.045586
C16   C     C_R   0.700838 0.791460 0.808896 0.326624
N12   N     N_R   0.652110 0.708890 0.706130 -0.091087
C17   C     C_R   0.799636 0.708405 0.806203 -0.197348
H12   H     H_    0.853244 0.677087 0.833672 0.121161
N13   N     N_R   0.708930 0.652070 0.706130 -0.062015
C18   C     C_R   0.405223 0.496844 0.195122 -0.132336
H13   H     H_    0.343901 0.519535 0.165511 0.091404
N14   N     N_R   0.445950 0.502780 0.293850 -0.043325
C19   C     C_R   0.566486 0.814912 0.590112 -0.035603
H14   H     H_    0.622877 0.879531 0.674764 0.175020
N15   N     N_R   0.502760 0.708900 0.556790 -0.039194
C20   C     C_R   0.726344 0.452467 0.411263 0.169793
N16   N     N_R   0.652110 0.445950 0.443190 -0.060758
Ni1   Ni    Ni4+2 0.369690 0.500010 0.369700 0.213455
Ni2   Ni    Ni4+2 0.630310 0.499990 0.630300 0.209812
Ni3   Ni    Ni4+2 0.500000 0.369720 0.369720 0.216176
Ni4   Ni    Ni4+2 0.500000 0.630280 0.630280 0.307540
C21   C     C_R   0.549523 0.824061 0.496166 0.037450
C22   C     C_R   0.830647 0.532791 0.505782 0.018845
C23   C     C_R   0.435682 0.435715 0.132208 0.086295
C24   C     C_R   0.797604 0.797595 0.872699 -0.016166
H15   H     H_    0.018151 0.543311 0.030389 0.105186
C25   C     C_R   0.115754 0.635227 0.207795 -0.121397
H16   H     H_    0.185477 0.689593 0.209141 0.114232
C26   C     C_R   0.120037 0.647335 0.306653 -0.158707
H17   H     H_    0.194026 0.711998 0.384287 0.131290
C27   C     C_R   0.029307 0.575987 0.304895 0.083989
C28   C     C_R   0.933595 0.494925 0.202044 -0.079198
H18   H     H_    0.861582 0.439716 0.197189 0.149970
C29   C     C_R   0.929979 0.483225 0.103779 -0.064081
H19   H     H_    0.856358 0.419968 0.025333 0.167447
C30   C     C_R   0.021139 0.552944 0.106647 -0.120221
C31   C     C_R   0.938532 0.572916 0.417001 -0.226629
H20   H     H_    0.864924 0.552548 0.347294 0.122011
C32   C     C_R   0.937344 0.579266 0.512501 0.069148
C33   C     C_R   0.039066 0.632356 0.611529 0.022866
C34   C     C_R   0.133899 0.659860 0.606608 -0.194643
H21   H     H_    0.209717 0.697647 0.682911 0.145139
C35   C     C_R   0.127817 0.618162 0.504563 0.051234
C36   C     C_R   0.032766 0.588575 0.409715 0.056829
C37   C     C_R   0.094127 0.757149 0.804227 -0.135094
H22   H     H_    0.111760 0.825322 0.788511 0.142893
C38   C     C_R   0.111547 0.775660 0.908566 -0.031447
H23   H     H_    0.141835 0.857555 0.972671 0.152886
C39   C     C_R   0.090167 0.688606 0.930231 -0.112789
H24   H     H_    0.104541 0.703585 0.011407 0.108904
C40   C     C_R   0.050754 0.582635 0.847305 -0.124695
H25   H     H_    0.034706 0.515309 0.864190 0.114990
C41   C     C_R   0.032604 0.563563 0.742550 -0.142954
H26   H     H_    0.002701 0.481404 0.678979 0.122007
C42   C     C_R   0.053238 0.650680 0.720249 0.076604
C43   C     C_R   0.449655 0.343693 0.876119 0.086052
C44   C     C_R   0.406733 0.399911 0.831545 0.004087
C45   C     C_R   0.334876 0.426555 0.860695 -0.142108
H27   H     H_    0.292259 0.461767 0.822204 0.129100
C46   C     C_R   0.332242 0.425580 0.953395 -0.175766
H28   H     H_    0.287799 0.459996 0.982775 0.128386
C47   C     C_R   0.400394 0.396585 0.015609 0.043805
C48   C     C_R   0.447048 0.342993 0.967606 0.148615
C49   C     C_3   0.557644 0.351987 0.017176 -0.638359
C50   C     C_3   0.561105 0.352516 0.917304 0.168999
H29   H     H_    0.620739 0.431566 0.094599 0.178991
H30   H     H_    0.553247 0.277783 0.022505 0.240832
H31   H     H_    0.628562 0.430912 0.938835 0.073758
C51   C     C_R   0.543159 0.922812 0.390276 0.179516
C52   C     C_R   0.593109 0.924046 0.489743 0.022113
C53   C     C_R   0.670923 0.026708 0.585597 -0.138291
H32   H     H_    0.718601 0.031835 0.662146 0.200710
C54   C     C_R   0.674561 0.122659 0.586626 -0.113248
H33   H     H_    0.723697 0.198686 0.664806 0.156522
C55   C     C_R   0.602215 0.115318 0.490509 -0.031792
C56   C     C_R   0.549780 0.017791 0.389925 0.050297
C57   C     C_3   0.434487 0.955173 0.293211 0.181245
C58   C     C_3   0.426794 0.852549 0.296325 -0.644125
H34   H     H_    0.376041 0.977640 0.311141 0.076608
H35   H     H_    0.368520 0.820536 0.322798 0.176501
H36   H     H_    0.417325 0.789812 0.222100 0.231726
C59   C     C_R   0.971137 0.069972 0.132572 0.034556
C60   C     C_R   0.071419 0.071593 0.171276 0.080626
C61   C     C_R   0.068092 0.969283 0.137504 -0.175351
H37   H     H_    0.141869 0.964257 0.171199 0.130884
C62   C     C_R   0.971679 0.873459 0.047027 -0.187455
H38   H     H_    0.974878 0.798420 0.015748 0.119175
C63   C     C_R   0.879007 0.879958 0.989178 0.159795
C64   C     C_R   0.877753 0.977030 0.041186 -0.006589
C65   C     C_3   0.833036 0.043248 0.003030 0.101031
C66   C     C_3   0.936425 0.145050 0.102718 0.044773
H39   H     H_    0.756716 0.032883 0.004938 0.173124
H40   H     H_    0.988872 0.195869 0.081080 0.114746
N17   N     N_R   0.636260 0.821093 0.852253 0.207664
O1    O     O_R   0.644414 0.819143 0.941364 -0.409699
O2    O     O_R   0.553890 0.826886 0.791773 -0.420859
C67   C     C_3   0.701514 0.358269 0.309435 -0.497735
C68   C     C_3   0.766374 0.300416 0.338697 -0.282186
C69   C     C_3   0.706460 0.180372 0.248403 -0.615611
H41   H     H_    0.627559 0.134740 0.242703 0.248198
H42   H     H_    0.689200 0.174148 0.167256 0.279001
H43   H     H_    0.757108 0.141771 0.268652 0.264323
H44   H     H_    0.849095 0.343830 0.350383 0.252627
H45   H     H_    0.777048 0.301692 0.416917 0.193934
H46   H     H_    0.613139 0.297111 0.266417 0.202059
H47   H     H_    0.715911 0.385006 0.252138 0.184287
N18   N     N_R   0.558632 0.254175 0.847729 0.260219
O3    O     O_R   0.477538 0.156272 0.805229 -0.351663
O4    O     O_R   0.640455 0.264236 0.831352 -0.421604
N19   N     N_R   0.430900 0.952355 0.192764 0.244169
O5    O     O_R   0.493713 0.926470 0.160062 -0.373696
O6    O     O_R   0.360728 0.971244 0.132545 -0.451300
N20   N     N_R   0.826914 0.036596 0.900820 0.222079
O7    O     O_R   0.769807 0.073467 0.852379 -0.386304
O8    O     O_R   0.896486 0.020564 0.873479 -0.431951
N21   N     N_R   0.913541 0.208629 0.181106 0.231676
O9    O     O_R   0.955031 0.226032 0.281709 -0.428029
O10   O     O_R   0.862251 0.259516 0.153928 -0.432996

loop_
_geom_bond_atom_site_label_1
_geom_bond_atom_site_label_2
_geom_bond_distance
_ccdc_geom_bond_type
C6    C12   1.384272 A    
C66   N21   1.460182 S    
C46   H28   1.081462 S    
C61   H37   1.081591 S    
C27   C36   1.490890 S    
C47   C48   1.401089 A    
C53   C54   1.401856 A    
C49   C50   1.509472 S    
C51   C58   1.497850 S    
C65   C66   1.512273 S    
C60   C61   1.410791 A    
N15   Ni4   1.845244 S    
C26   H17   1.083068 S    
C34   C35   1.396584 A    
C25   C30   1.395860 A    
C15   N11   1.328058 A    
N18   O4    1.300456 A    
C61   C62   1.404340 A    
N7    Ni4   1.845431 S    
C41   C42   1.404093 A    
C65   H39   1.112801 S    
N12   Ni4   1.853167 S    
C6    H6    1.078185 S    
C54   H33   1.081714 S    
N14   Ni1   1.863586 S    
C4    C12   1.383274 A    
N19   O5    1.302404 A    
C21   C52   1.463652 S    
C3    C11   1.369645 A    
C55   C56   1.404222 A    
C25   C26   1.399694 A    
C1    H1    1.071201 S    
C33   C34   1.377744 A    
C7    C10   1.393252 A    
C57   C58   1.506932 S    
C26   C27   1.408539 A    
C16   C24   1.382357 A    
C7    H7    1.079598 S    
C69   H41   1.109168 S    
C22   C32   1.469297 S    
C8    C9    1.389530 A    
C19   C21   1.394469 A    
C31   H20   1.080037 S    
N11   Ni3   1.845430 S    
C17   N13   1.341971 A    
C46   C47   1.406447 A    
C59   C64   1.377056 A    
C5    H5    1.080553 S    
C31   C36   1.400466 A    
C1    C9    1.389126 A    
N1    N8    1.378418 A    
C57   N19   1.465203 S    
C67   H47   1.108112 S    
C53   H32   1.076854 S    
C49   H29   1.112397 S    
N6    Ni1   1.863741 S    
C16   N17   1.437042 S    
N12   N13   1.378417 A    
N20   O8    1.302380 A    
C35   C36   1.415599 A    
C62   C63   1.409961 A    
C19   N15   1.345330 A    
N10   N16   1.376556 A    
N16   Ni3   1.853425 S    
C17   C24   1.384414 A    
C34   H21   1.079529 S    
C29   H19   1.082333 S    
C3    H3    1.077392 S    
N18   O3    1.302267 A    
C2    N2    1.328992 A    
C68   H44   1.110597 S    
C9    C60   1.464751 S    
N9    Ni1   1.849743 S    
C45   H27   1.081585 S    
N1    Ni1   1.849713 S    
C37   H22   1.083101 S    
C32   C33   1.417858 A    
C13   C21   1.378843 A    
C28   C29   1.395943 A    
N8    Ni3   1.853168 S    
N2    N7    1.378174 A    
C39   H24   1.081821 S    
C50   N18   1.465027 S    
C25   H16   1.079512 S    
C1    N1    1.328591 A    
C15   H11   1.072530 S    
C14   N10   1.317980 A    
C18   H13   1.080837 S    
N17   O2    1.299439 A    
C33   C42   1.475725 S    
C13   H9    1.074202 S    
C68   H45   1.113176 S    
C45   C46   1.400187 A    
C65   N20   1.461622 S    
C59   C60   1.396777 A    
C48   C49   1.498133 S    
C58   H35   1.110322 S    
C6    N6    1.341915 A    
N5    Ni2   1.849743 S    
C40   H25   1.081906 S    
C18   N14   1.342483 A    
C63   C64   1.402631 A    
C4    N4    1.324516 A    
H15   C30   1.080423 S    
C38   C39   1.397434 A    
C17   H12   1.080447 S    
C28   H18   1.080946 S    
C43   C44   1.403013 A    
C39   C40   1.399041 A    
N9    N15   1.376557 A    
C5    N5    1.345375 A    
C8    N8    1.338321 A    
N3    Ni3   1.845245 S    
N11   N14   1.378171 A    
N17   O1    1.301773 A    
C12   C35   1.472548 S    
C49   H30   1.112349 S    
C66   H40   1.112691 S    
N20   O7    1.299236 A    
C37   C42   1.404504 A    
N19   O6    1.300259 A    
C19   H14   1.077282 S    
C24   C63   1.468538 S    
C59   C66   1.500885 S    
C7    N7    1.337996 A    
C41   H26   1.083234 S    
C40   C41   1.398471 A    
C38   H23   1.081925 S    
C2    C10   1.384659 A    
C62   H38   1.080437 S    
C10   C44   1.461645 S    
C20   C22   1.413371 A    
C20   C67   1.505642 S    
N10   Ni2   1.863743 S    
C50   H31   1.113144 S    
C43   C50   1.506170 S    
C15   C23   1.372334 A    
N2    Ni2   1.863586 S    
C27   C28   1.409891 A    
C43   C48   1.380653 A    
N21   O10   1.298754 A    
C67   C68   1.537799 S    
N3    N5    1.376556 A    
C13   N9    1.326269 A    
C56   C57   1.505170 S    
C14   H10   1.068507 S    
C44   C45   1.409570 A    
C16   N12   1.336143 A    
C54   C55   1.407556 A    
C11   C55   1.461943 S    
C69   H43   1.109710 S    
C58   H36   1.112044 S    
C37   C38   1.397133 A    
C51   C52   1.400657 A    
C57   H34   1.113320 S    
C4    H4    1.078290 S    
C18   C23   1.383262 A    
C3    N3    1.324229 A    
C2    H2    1.073729 S    
C69   H42   1.109977 S    
C20   N16   1.339592 A    
C23   C47   1.461001 S    
N4    N6    1.376556 A    
C52   C53   1.404951 A    
C8    H8    1.078935 S    
C5    C11   1.388863 A    
C51   C56   1.382292 A    
C31   C32   1.401659 A    
C29   C30   1.393732 A    
C64   C65   1.506537 S    
N21   O9    1.302019 A    
C14   C22   1.380066 A    
N4    Ni4   1.853425 S    
C68   C69   1.526696 S    
N13   Ni2   1.849713 S    
C67   H46   1.108820 S    
