data_str_m9_o4_o16_f0_sra.sym.81
_audit_creation_date              2012-12-11T17:00:24-0500
_audit_creation_method            fapswitch 2.2
_symmetry_space_group_name_H-M    P1
_symmetry_Int_Tables_number       1
_space_group_crystal_system       triclinic
_cell_length_a                    6.952819
_cell_length_b                    13.741025
_cell_length_c                    20.282407
_cell_angle_alpha                 103.339849
_cell_angle_beta                  90.564416
_cell_angle_gamma                 90.148437
_cell_volume                      1885.35964928

loop_
_atom_site_label
_atom_site_type_symbol
_atom_type_description
_atom_site_fract_x
_atom_site_fract_y
_atom_site_fract_z
_atom_type_partial_charge
O1    O     O_R   0.506770 0.599700 0.449550 -0.546184
O2    O     O_R   0.179980 0.595740 0.587960 -0.545445
O3    O     O_R   0.004580 0.400300 0.550450 -0.539249
C1    C     C_R   0.348445 0.615499 0.615770 0.682819
O4    O     O_R   0.177380 0.611700 0.452380 -0.537053
O5    O     O_R   0.001970 0.416370 0.413900 -0.534303
C2    C     C_R   0.345485 0.637968 0.435774 0.708901
O6    O     O_R   0.509390 0.583630 0.586100 -0.549372
O7    O     O_3   0.337530 0.435890 0.487530 -0.368262
V1    V     V_3+5 0.064660 0.511890 0.502310 1.451511
O8    O     O_R   0.671950 0.404260 0.412040 -0.540824
C3    C     C_R   0.839868 0.385055 0.383945 0.692956
O9    O     O_R   0.674540 0.388300 0.547620 -0.546933
C4    C     C_R   0.844230 0.363600 0.565016 0.714708
V2    V     V_3+5 0.564030 0.488110 0.497690 1.430899
O10   O     O_3   0.841030 0.564110 0.512470 -0.374467
C5    C     C_R   0.970827 0.120846 0.606027 0.447840
H1    H     H_    0.942288 0.175828 0.515042 0.112913
C6    C     C_R   0.860862 0.286219 0.602696 -0.069952
C7    C     C_R   0.803223 0.308750 0.925955 -0.196374
C8    C     C_R   0.788079 0.383827 0.890889 -0.107118
C9    C     C_R   0.820879 0.363513 0.821565 -0.093711
C10   C     C_R   0.869214 0.266055 0.784588 0.039444
C11   C     C_R   0.895154 0.189923 0.821183 0.001540
C12   C     C_R   0.888359 0.241904 0.712337 -0.052146
C13   C     C_R   0.953227 0.145175 0.677939 0.009083
C14   C     C_R   0.998932 0.074476 0.715636 0.332312
C15   C     C_R   0.955569 0.094190 0.785208 0.105990
C16   C     C_R   0.843038 0.311110 0.672840 -0.187502
C17   C     C_R   0.924755 0.192461 0.569568 -0.280153
C18   C     C_R   0.857791 0.212263 0.892767 -0.053575
H2    H     H_    0.796714 0.385899 0.694808 0.117206
H3    H     H_    0.774592 0.326417 0.979845 0.103315
H4    H     H_    0.809486 0.426672 0.798833 0.142981
H5    H     H_    0.749672 0.458762 0.917692 0.120046
C19   C     C_R   0.728626 0.173541 0.231193 0.113620
C20   C     C_R   0.868934 0.183280 0.184161 -0.186385
C21   C     C_R   0.011704 0.256865 0.205681 -0.188689
H6    H     H_    0.124567 0.266113 0.171166 0.149114
C22   C     C_R   0.000150 0.326317 0.268773 0.343112
C23   C     C_R   0.850502 0.318004 0.314993 -0.202042
C24   C     C_R   0.721169 0.237905 0.295092 0.067508
C25   C     C_3   0.506398 0.237636 0.294026 -0.371673
C26   C     C_3   0.515292 0.167541 0.224164 -0.394078
H7    H     H_    0.446595 0.312261 0.293436 0.218190
H8    H     H_    0.445322 0.201753 0.333048 0.193225
H9    H     H_    0.460126 0.201430 0.182984 0.179635
H10   H     H_    0.461030 0.091181 0.222892 0.171749
C27   C     C_R   0.522660 0.697051 0.724052 0.045747
C28   C     C_R   0.353776 0.681781 0.684716 -0.064972
C29   C     C_R   0.184353 0.727157 0.714646 -0.137893
H11   H     H_    0.048410 0.715743 0.687411 0.131844
C30   C     C_R   0.185849 0.785030 0.781346 -0.211537
H12   H     H_    0.052035 0.811915 0.803716 0.134424
C31   C     C_R   0.357020 0.805550 0.819217 -0.087927
C32   C     C_R   0.524428 0.758316 0.789684 0.020577
C33   C     C_3   0.647069 0.686468 0.816366 -0.364340
C34   C     C_3   0.643350 0.619522 0.745645 0.174913
H13   H     H_    0.572132 0.654508 0.854857 0.184508
H14   H     H_    0.792175 0.717244 0.832403 0.118641
H15   H     H_    0.786512 0.607814 0.721072 0.072994
C35   C     C_R   0.282759 0.880975 0.386645 -0.113212
H16   H     H_    0.296489 0.833752 0.479760 0.156214
H17   H     H_    0.245906 0.956440 0.412848 0.170227
C36   C     C_R   0.350199 0.711831 0.394044 -0.114574
C37   C     C_R   0.442090 0.690829 0.069343 -0.159593
C38   C     C_R   0.496937 0.621861 0.105975 -0.149992
C39   C     C_R   0.475341 0.643510 0.175912 -0.072904
C40   C     C_R   0.383280 0.732240 0.210964 0.088000
C41   C     C_R   0.334782 0.804539 0.173246 0.018118
C42   C     C_R   0.351188 0.754661 0.282674 -0.019869
C43   C     C_R   0.296214 0.853824 0.315683 0.048957
C44   C     C_R   0.250401 0.924542 0.277811 0.340497
C45   C     C_R   0.265449 0.898441 0.207225 -0.301488
C46   C     C_R   0.366256 0.681803 0.322593 0.288422
C47   C     C_R   0.312376 0.811147 0.425248 -0.230994
C48   C     C_R   0.367216 0.783361 0.102368 -0.056820
H18   H     H_    0.470666 0.674813 0.015464 0.103981
H19   H     H_    0.543842 0.591869 0.201117 0.169227
H20   H     H_    0.566035 0.553124 0.080419 0.122437
H21   H     H_    0.226388 0.953645 0.179194 0.122066
O11   O     O_R   0.203450 0.916320 0.913910 -0.538472
O12   O     O_R   0.535520 0.888300 0.047620 -0.541037
O13   O     O_R   0.710860 0.083650 0.086100 -0.538525
C49   C     C_R   0.367769 0.862290 0.064489 0.689898
O14   O     O_R   0.532860 0.904250 0.912040 -0.546206
O15   O     O_R   0.708190 0.099710 0.949550 -0.539170
C50   C     C_R   0.363585 0.878054 0.886408 0.672536
O16   O     O_R   0.206120 0.900260 0.050460 -0.542212
O17   O     O_3   0.375280 0.064080 0.012470 -0.373064
V3    V     V_3+5 0.648180 0.988110 0.997690 1.421583
O18   O     O_R   0.038220 0.111740 0.952370 -0.536333
C51   C     C_R   0.868880 0.137675 0.934981 0.776803
O19   O     O_R   0.040880 0.095790 0.087940 -0.550890
C52   C     C_R   0.873115 0.116890 0.115280 0.709594
V4    V     V_3+5 0.148800 0.011950 0.002300 1.418670
O20   O     O_3   0.871820 0.935920 0.987530 -0.370132
O21   O     O_3   0.129108 0.404838 0.280558 -0.639129
H22   H     H_    0.067214 0.463960 0.309679 0.303857
O22   O     O_3   0.540312 0.530965 0.743651 -0.638312
H23   H     H_    0.536745 0.494131 0.695478 0.281337
O23   O     O_3   0.072769 0.982946 0.682714 -0.603818
H24   H     H_    0.157725 0.957143 0.714040 0.291465
O24   O     O_3   0.186938 0.018415 0.310774 -0.658696
H25   H     H_    0.153620 0.057671 0.276946 0.286807
O25   O     O_3   0.370440 0.581418 0.290875 -0.652097
H26   H     H_    0.424118 0.542019 0.321757 0.291616
O26   O     O_3   0.032660 0.027260 0.571942 -0.606188
H27   H     H_    0.035012 0.023415 0.522519 0.281782
N1    N     N_2   0.954605 0.013731 0.817365 -0.523613
H28   H     H_    0.085093 0.979508 0.818012 0.251138
C53   C     C_3   0.790928 0.948064 0.799643 -0.490380
H29   H     H_    0.789405 0.896923 0.834140 0.204989
H30   H     H_    0.801093 0.903634 0.746598 0.201349
H31   H     H_    0.654856 0.991415 0.806110 0.194042

loop_
_geom_bond_atom_site_label_1
_geom_bond_atom_site_label_2
_ccdc_geom_bond_type
C21   C22   A    
C31   C32   A    
O15   V3    S    
C23   C24   A    
C19   C24   A    
C1    O6    A    
C53   H30   S    
O17   V3    S    
C30   H12   S    
C32   C33   S    
C13   C14   A    
C20   C21   A    
C36   C47   A    
C5    C13   A    
O18   C51   A    
C19   C20   A    
C16   H2    S    
O14   V3    S    
C22   O21   S    
C21   H6    S    
O14   C50   A    
C33   H13   S    
O25   H26   S    
V2    O10   S    
O18   V4    S    
O26   H27   S    
C20   C52   S    
C44   C45   A    
C31   C50   S    
C40   C42   A    
N1    H28   S    
O24   H25   S    
C35   H17   S    
O8    V2    S    
C44   O24   S    
C39   C40   A    
C41   C45   A    
C10   C11   A    
H1    C17   S    
O13   V3    S    
O7    V1    S    
C26   H9    S    
C39   H19   S    
C37   C38   A    
C48   C49   S    
O9    C4    A    
C41   C48   A    
C5    C17   A    
C35   C47   A    
C40   C41   A    
C9    H4    S    
O5    C3    A    
C53   H29   S    
C30   C31   A    
C12   C16   A    
C37   H18   S    
O11   V4    S    
C29   H11   S    
C34   O22   S    
C5    O26   S    
O4    C2    A    
C49   O16   A    
C33   H14   S    
C15   N1    S    
C12   C13   A    
C18   C51   S    
C27   C34   S    
C38   C39   A    
C1    C28   S    
C29   C30   A    
O13   C52   A    
O2    C1    A    
C25   C26   S    
C3    C23   S    
C2    C36   S    
V4    O20   S    
C28   C29   A    
C35   C43   A    
O19   C52   A    
V3    O20   S    
O19   V4    S    
C25   H7    S    
O3    C4    A    
O1    V2    S    
C7    H3    S    
C22   C23   A    
O12   C49   A    
O21   H22   S    
O6    V2    S    
O9    V2    S    
C19   C26   S    
C24   C25   S    
C45   H21   S    
C6    C16   A    
C37   C48   A    
O1    C2    A    
C4    C6    S    
C38   H20   S    
C11   C15   A    
C43   C44   A    
O5    V1    S    
O8    C3    A    
O17   V4    S    
C8    H5    S    
C27   C32   A    
O12   V3    S    
C14   O23   S    
C36   C46   A    
O16   V4    S    
O7    V2    S    
C11   C18   A    
C42   C43   A    
O3    V1    S    
V1    O10   S    
C42   C46   A    
C33   C34   S    
C34   H15   S    
O11   C50   A    
O15   C51   A    
O22   H23   S    
C10   C12   A    
O23   H24   S    
C25   H8    S    
N1    C53   S    
O4    V1    S    
C7    C8    A    
C46   O25   S    
C27   C28   A    
H16   C47   S    
C14   C15   A    
C9    C10   A    
C8    C9    A    
C6    C17   A    
C53   H31   S    
C26   H10   S    
C7    C18   A    
O2    V1    S    
