data_str_m9_o11_o18_f0_sra.sym.10
_audit_creation_date              2012-12-11T14:21:01-0500
_audit_creation_method            fapswitch 2.2
_symmetry_space_group_name_H-M    P1
_symmetry_Int_Tables_number       1
_space_group_crystal_system       triclinic
_cell_length_a                    21.965992
_cell_length_b                    7.203523
_cell_length_c                    14.919682
_cell_angle_alpha                 89.606996
_cell_angle_beta                  106.868352
_cell_angle_gamma                 89.862687
_cell_volume                      2259.12727184

loop_
_atom_site_label
_atom_site_type_symbol
_atom_type_description
_atom_site_fract_x
_atom_site_fract_y
_atom_site_fract_z
_atom_type_partial_charge
O1    O     O_R   0.584770 0.505770 0.002090 -0.546728
O2    O     O_R   0.415230 0.005770 0.997910 -0.546482
O3    O     O_R   0.467060 0.173340 0.861950 -0.542193
O4    O     O_R   0.532940 0.673340 0.138050 -0.542861
C1    C     C_R   0.455119 0.345082 0.826071 0.670290
C2    C     C_R   0.544935 0.843389 0.174072 0.669630
O5    O     O_R   0.587510 0.175890 0.993210 -0.503233
O6    O     O_R   0.412490 0.675890 0.006790 -0.503139
O7    O     O_R   0.536540 0.008150 0.130100 -0.538793
O8    O     O_R   0.463460 0.508150 0.869900 -0.538718
C3    C     C_R   0.613089 0.344211 0.997355 0.754588
C4    C     C_R   0.386836 0.844430 0.002290 0.754803
O9    O     O_3   0.483140 0.340040 0.044760 -0.374486
O10   O     O_3   0.516860 0.840040 0.955240 -0.374454
V1    V     V_3+5 0.503130 0.064190 0.991700 1.476359
V2    V     V_3+5 0.496870 0.564190 0.008300 1.475558
C5    C     C_2   0.213467 0.727343 0.002904 -0.224996
C6    C     C_2   0.786222 0.228421 0.994082 -0.223505
C7    C     C_2   0.179433 0.886275 0.992322 -0.376052
C8    C     C_2   0.820424 0.386530 0.007111 -0.376693
H1    H     H_    0.191245 0.598979 0.015299 0.162891
H2    H     H_    0.808338 0.101559 0.979590 0.162587
H3    H     H_    0.199695 0.016341 0.978186 0.137466
H4    H     H_    0.800252 0.515328 0.022897 0.135805
C9    C     C_2   0.280012 0.709590 0.995996 0.492408
C10   C     C_2   0.719655 0.209222 0.000779 0.493452
C11   C     C_2   0.319561 0.857262 0.004073 -0.391336
C12   C     C_2   0.680227 0.357131 0.994943 -0.389747
H5    H     H_    0.302552 0.995649 0.012108 0.110523
H6    H     H_    0.697268 0.496094 0.988342 0.108545
C13   C     C_R   0.926890 0.891941 0.723930 -0.027192
C14   C     C_R   0.073163 0.382219 0.275722 -0.024093
C15   C     C_R   0.573253 0.846402 0.275590 -0.025139
C16   C     C_R   0.426599 0.356835 0.724881 -0.021538
C17   C     C_R   0.934997 0.953825 0.568721 -0.163879
C18   C     C_R   0.062963 0.333135 0.430715 -0.163115
C19   C     C_R   0.963396 0.939671 0.664843 -0.172728
C20   C     C_R   0.035101 0.351273 0.334578 -0.175673
C21   C     C_R   0.861684 0.859258 0.686943 -0.210897
C22   C     C_R   0.139194 0.394753 0.312746 -0.209463
C23   C     C_R   0.831069 0.877940 0.589619 0.082207
C24   C     C_R   0.168986 0.375274 0.410176 0.082608
C25   C     C_R   0.869348 0.925233 0.530837 0.142282
C26   C     C_R   0.129300 0.344131 0.468840 0.142403
C27   C     C_R   0.763929 0.855139 0.549109 0.056327
C28   C     C_R   0.236503 0.383863 0.450994 0.056456
C29   C     C_R   0.736385 0.880177 0.450254 0.061106
C30   C     C_R   0.263084 0.360047 0.550062 0.061293
C31   C     C_R   0.776968 0.925239 0.395171 -0.190341
C32   C     C_R   0.221238 0.330355 0.605064 -0.192175
C33   C     C_R   0.841915 0.946820 0.434803 -0.204069
C34   C     C_R   0.155894 0.322874 0.565075 -0.203965
C35   C     C_R   0.723391 0.809163 0.604144 -0.185085
C36   C     C_R   0.278305 0.415289 0.396099 -0.185296
C37   C     C_R   0.658425 0.787902 0.564501 -0.198367
C38   C     C_R   0.343639 0.422662 0.436032 -0.199167
C39   C     C_R   0.630938 0.810674 0.468545 0.138081
C40   C     C_R   0.370286 0.399358 0.532110 0.137821
C41   C     C_R   0.669207 0.858177 0.409781 0.082185
C42   C     C_R   0.330640 0.367313 0.590758 0.082891
C43   C     C_R   0.565237 0.783005 0.430712 -0.162811
C44   C     C_R   0.436646 0.409321 0.570088 -0.162105
C45   C     C_R   0.536767 0.798366 0.334657 -0.168877
C46   C     C_R   0.464593 0.389121 0.666074 -0.171000
C47   C     C_R   0.638518 0.878178 0.312536 -0.213654
C48   C     C_R   0.360533 0.345191 0.688006 -0.212414
H7    H     H_    0.870971 0.982580 0.389620 0.120582
H8    H     H_    0.125796 0.299305 0.610190 0.119794
H9    H     H_    0.663879 0.911870 0.262779 0.091286
H10   H     H_    0.334243 0.321112 0.737636 0.085706
H11   H     H_    0.486377 0.770900 0.306186 0.109333
H12   H     H_    0.515771 0.399768 0.694599 0.107651
H13   H     H_    0.629381 0.751586 0.609620 0.126590
H14   H     H_    0.373697 0.447509 0.390980 0.126515
H15   H     H_    0.964207 0.991078 0.524012 0.113365
H16   H     H_    0.032622 0.308856 0.475370 0.113277
H17   H     H_    0.013747 0.967690 0.693335 0.104389
H18   H     H_    0.983939 0.340232 0.305993 0.103490
H19   H     H_    0.836282 0.826085 0.736737 0.099105
H20   H     H_    0.165553 0.417055 0.263035 0.096666
H21   H     H_    0.760241 0.945692 0.320590 0.112978
H22   H     H_    0.237202 0.312056 0.679883 0.114164
H23   H     H_    0.740175 0.787437 0.678690 0.127697
H24   H     H_    0.262305 0.435671 0.321423 0.128350
H25   H     H_    0.536036 0.745529 0.475399 0.114143
H26   H     H_    0.466939 0.434490 0.525450 0.114138
O11   O     O_R   0.036450 0.233070 0.130130 -0.537686
O12   O     O_R   0.963550 0.733070 0.869870 -0.538460
O13   O     O_R   0.912470 0.560570 0.006790 -0.545087
O14   O     O_R   0.087530 0.060570 0.993210 -0.544510
C49   C     C_R   0.887068 0.392162 0.002965 0.761881
C50   C     C_R   0.112885 0.891882 0.996822 0.763084
O15   O     O_R   0.032920 0.562940 0.138050 -0.539723
O16   O     O_R   0.967080 0.062940 0.861950 -0.539925
O17   O     O_R   0.084790 0.730500 0.002090 -0.538080
O18   O     O_R   0.915210 0.230500 0.997910 -0.537629
C51   C     C_R   0.044730 0.393621 0.174443 0.683930
C52   C     C_R   0.955150 0.895297 0.825460 0.683635
O19   O     O_3   0.016820 0.396170 0.955260 -0.379825
O20   O     O_3   0.983180 0.896170 0.044740 -0.379590
V3    V     V_3+5 0.996880 0.672090 0.008300 1.413203
V4    V     V_3+5 0.003120 0.172090 0.991700 1.415012
O21   O     O_3   0.303372 0.532109 0.990918 -0.535641
C53   C     C_3   0.273087 0.457762 0.901980 -0.239633
H27   H     H_    0.278400 0.550369 0.844625 0.123038
H28   H     H_    0.221991 0.429434 0.893443 0.122995
H29   H     H_    0.296176 0.323353 0.895527 0.149223
O22   O     O_3   0.696102 0.031376 0.003543 -0.535480
C54   C     C_3   0.728359 0.946133 0.089676 -0.238239
H30   H     H_    0.728092 0.035580 0.150169 0.112662
H31   H     H_    0.777909 0.908389 0.092127 0.124373
H32   H     H_    0.703298 0.815748 0.096757 0.153145

loop_
_geom_bond_atom_site_label_1
_geom_bond_atom_site_label_2
_ccdc_geom_bond_type
C40   C44   A    
O18   V4    S    
C11   H5    S    
C6    C10   S    
C46   H12   S    
O2    C4    A    
C16   C48   A    
C2    O7    A    
C53   H28   S    
O12   V3    S    
C15   C47   A    
C21   C23   A    
O22   C54   S    
O5    C3    A    
C44   H26   S    
C13   C52   S    
C17   H15   S    
C17   C19   A    
C54   H31   S    
C39   C41   A    
O16   C52   A    
C40   C42   A    
C14   C51   S    
C24   C28   A    
C27   C29   A    
C31   H21   S    
C43   C45   A    
O14   V4    S    
C44   C46   A    
C7    C50   S    
C18   H16   S    
C49   O18   A    
C8    H4    S    
C13   C21   A    
C31   C33   A    
O1    C3    A    
C32   C34   A    
C22   H20   S    
C14   C20   A    
O13   C49   A    
C17   C25   A    
C34   H8    S    
O6    C4    A    
C26   C34   A    
C30   C32   A    
C42   C48   A    
O6    V2    S    
C23   C25   A    
C24   C26   A    
C36   H24   S    
C53   H27   S    
C30   C42   A    
C28   C30   A    
C35   C37   A    
C8    C49   S    
C36   C38   A    
C38   H14   S    
C4    C11   S    
C29   C31   A    
C54   H32   S    
O15   V3    S    
C9    O21   S    
C20   H18   S    
C19   H17   S    
C27   C35   A    
C50   O17   A    
C5    H1    S    
C13   C19   A    
C21   H19   S    
O4    V2    S    
C7    H3    S    
O11   V4    S    
O14   C50   A    
C15   C45   A    
C1    C16   S    
C28   C36   A    
C16   C46   A    
O1    V2    S    
C33   H7    S    
O2    V1    S    
C43   H25   S    
O4    C2    A    
C45   H11   S    
C37   C39   A    
C18   C26   A    
C10   O22   S    
C18   C20   A    
O15   C51   A    
O3    V1    S    
C32   H22   S    
O13   V3    S    
C6    H2    S    
C22   C24   A    
O3    C1    A    
C39   C43   A    
C9    C11   D    
C10   C12   D    
C2    C15   S    
C35   H23   S    
C5    C9    S    
C12   H6    S    
O7    V1    S    
C1    O8    A    
O8    V2    S    
C54   H30   S    
C41   C47   A    
C25   C33   A    
C48   H10   S    
C3    C12   S    
C47   H9    S    
O5    V1    S    
O20   V3    S    
C5    C7    D    
C38   C40   A    
C6    C8    D    
C14   C22   A    
C29   C41   A    
C37   H13   S    
O19   V4    S    
O16   V4    S    
O9    V2    S    
O21   C53   S    
C23   C27   A    
O10   V1    S    
C53   H29   S    
O12   C52   A    
O17   V3    S    
O11   C51   A    
