data_str_m9_o4_o18_f0_sra.sym.64
_audit_creation_date              2012-12-11T17:02:18-0500
_audit_creation_method            fapswitch 2.2
_symmetry_space_group_name_H-M    P1
_symmetry_Int_Tables_number       1
_space_group_crystal_system       triclinic
_cell_length_a                    21.633548
_cell_length_b                    7.083882
_cell_length_c                    14.839421
_cell_angle_alpha                 89.984553
_cell_angle_beta                  106.369204
_cell_angle_gamma                 90.118144
_cell_volume                      2181.948444

loop_
_atom_site_label
_atom_site_type_symbol
_atom_type_description
_atom_site_fract_x
_atom_site_fract_y
_atom_site_fract_z
_atom_type_partial_charge
O1    O     O_R   0.585850 0.505770 0.002130 -0.537158
O2    O     O_R   0.414150 0.005770 0.997870 -0.538570
O3    O     O_R   0.467530 0.173560 0.861970 -0.537177
O4    O     O_R   0.532470 0.673560 0.138030 -0.536784
C1    C     C_R   0.454847 0.343943 0.825271 0.681342
C2    C     C_R   0.544731 0.844132 0.174681 0.685952
O5    O     O_R   0.588690 0.175900 0.993250 -0.543679
O6    O     O_R   0.411310 0.675900 0.006750 -0.544013
O7    O     O_R   0.536170 0.007950 0.130090 -0.536933
O8    O     O_R   0.463830 0.507950 0.869910 -0.537176
C3    C     C_R   0.615090 0.344810 0.998210 0.694835
C4    C     C_R   0.384826 0.844378 0.001339 0.696419
O9    O     O_3   0.482630 0.339970 0.044740 -0.374213
O10   O     O_3   0.517370 0.839970 0.955260 -0.374419
V1    V     V_3+5 0.503220 0.064200 0.991700 1.413661
V2    V     V_3+5 0.496780 0.564200 0.008300 1.415852
C5    C     C_R   0.275339 0.996297 0.948657 0.035186
C6    C     C_R   0.723831 0.502753 0.046906 0.046366
C7    C     C_R   0.315557 0.851895 0.997050 -0.108114
C8    C     C_R   0.684318 0.353384 0.002200 -0.091024
C9    C     C_R   0.287381 0.712910 0.040961 -0.140511
C10   C     C_R   0.713067 0.210602 0.961841 -0.168862
H1    H     H_    0.316167 0.597375 0.078326 0.139325
H2    H     H_    0.684269 0.093757 0.925795 0.120430
C11   C     C_R   0.222805 0.728906 0.042885 -0.101119
C12   C     C_R   0.778036 0.224780 0.961561 -0.127858
H3    H     H_    0.203938 0.628573 0.083106 0.156140
H4    H     H_    0.797646 0.123120 0.923300 0.164170
C13   C     C_R   0.183820 0.880138 0.998844 -0.127264
C14   C     C_R   0.816912 0.376988 0.004405 -0.124319
C15   C     C_R   0.211405 0.011894 0.951002 0.071480
C16   C     C_R   0.788322 0.515391 0.046762 0.077374
C17   C     C_3   0.217990 0.222430 0.961804 0.338391
C18   C     C_3   0.782527 0.723475 0.028019 0.361901
C19   C     C_3   0.286201 0.204439 0.953334 -0.383697
C20   C     C_3   0.712855 0.709453 0.031937 -0.449064
H5    H     H_    0.324448 0.249250 0.017053 0.174209
H6    H     H_    0.675455 0.740854 0.965108 0.158177
H7    H     H_    0.292236 0.260533 0.886367 0.158237
H8    H     H_    0.704327 0.778734 0.094544 0.173569
C21   C     C_R   0.930042 0.883613 0.722283 -0.139382
C22   C     C_R   0.069530 0.383501 0.277995 -0.108616
C23   C     C_R   0.573368 0.847297 0.276319 -0.034996
C24   C     C_R   0.425608 0.346206 0.723534 -0.033712
C25   C     C_R   0.943462 0.902262 0.564998 0.231129
C26   C     C_R   0.055291 0.402727 0.434916 0.225771
C27   C     C_R   0.970621 0.899479 0.663432 0.158487
C28   C     C_R   0.028645 0.402154 0.336299 0.160197
C29   C     C_R   0.863757 0.862609 0.683933 -0.211346
C30   C     C_R   0.135493 0.357011 0.317234 -0.276616
C31   C     C_R   0.835637 0.848077 0.586189 0.059804
C32   C     C_R   0.162783 0.340190 0.414970 0.047865
C33   C     C_R   0.875792 0.882151 0.526831 0.040885
C34   C     C_R   0.122722 0.379014 0.473742 0.058058
C35   C     C_R   0.768092 0.813118 0.545785 0.076917
C36   C     C_R   0.229826 0.300360 0.455871 0.034208
C37   C     C_R   0.739883 0.850056 0.447930 0.002108
C38   C     C_R   0.258404 0.342819 0.553093 0.021230
C39   C     C_R   0.781231 0.892369 0.392070 -0.169930
C40   C     C_R   0.217305 0.390038 0.608569 -0.165781
C41   C     C_R   0.847522 0.901426 0.430150 -0.140541
C42   C     C_R   0.150987 0.400103 0.570365 -0.139474
C43   C     C_R   0.728111 0.734663 0.597962 0.182266
C44   C     C_R   0.269283 0.214423 0.404763 0.188933
C45   C     C_R   0.661506 0.726913 0.559215 -0.263399
C46   C     C_R   0.335838 0.210874 0.442522 -0.182959
C47   C     C_R   0.632891 0.779218 0.466624 0.109004
C48   C     C_R   0.365010 0.270298 0.533999 0.079604
C49   C     C_R   0.671494 0.837091 0.408569 0.080392
C50   C     C_R   0.326846 0.330830 0.592098 0.081144
C51   C     C_R   0.565822 0.761747 0.430099 -0.150925
C52   C     C_R   0.432174 0.255201 0.569876 -0.151564
C53   C     C_R   0.536422 0.792870 0.335237 -0.172499
C54   C     C_R   0.462097 0.290416 0.664275 -0.167782
C55   C     C_R   0.639878 0.874250 0.312729 -0.194551
C56   C     C_R   0.358936 0.371386 0.687561 -0.192204
H9    H     H_    0.876395 0.930831 0.382851 0.183802
H10   H     H_    0.122185 0.433502 0.617206 0.185844
H11   H     H_    0.665454 0.916217 0.263320 0.099654
H12   H     H_    0.333561 0.413893 0.737076 0.097848
H13   H     H_    0.485095 0.768814 0.307097 0.105588
H14   H     H_    0.513485 0.267506 0.691960 0.099719
H15   H     H_    0.632081 0.670212 0.601220 0.126440
H16   H     H_    0.364895 0.148803 0.401428 0.138268
H17   H     H_    0.834729 0.869424 0.732192 0.162577
H18   H     H_    0.165288 0.359210 0.270058 0.128152
H19   H     H_    0.764205 0.914487 0.317419 0.146215
H20   H     H_    0.234601 0.416009 0.682895 0.146313
H21   H     H_    0.536345 0.716238 0.474292 0.117148
H22   H     H_    0.461334 0.207714 0.525682 0.115054
O11   O     O_R   0.036080 0.231270 0.130120 -0.539308
O12   O     O_R   0.963920 0.731270 0.869880 -0.529687
O13   O     O_R   0.911300 0.558970 0.006750 -0.523345
O14   O     O_R   0.088700 0.058970 0.993250 -0.544854
C57   C     C_R   0.884954 0.389928 0.002129 0.708955
C58   C     C_R   0.115342 0.890731 0.999188 0.693161
O15   O     O_R   0.032450 0.561140 0.138040 -0.541837
O16   O     O_R   0.967550 0.061140 0.861960 -0.539662
O17   O     O_R   0.085870 0.728910 0.002130 -0.532323
O18   O     O_R   0.914130 0.228910 0.997870 -0.527209
C59   C     C_R   0.044295 0.392488 0.175303 0.693379
C60   C     C_R   0.955799 0.892427 0.824768 0.722778
O19   O     O_3   0.017320 0.394650 0.955270 -0.363799
O20   O     O_3   0.982680 0.894650 0.044730 -0.354133
V3    V     V_3+5 0.996780 0.670490 0.008300 1.500121
V4    V     V_3+5 0.003220 0.170490 0.991700 1.475984
N1    N     N_3   0.983418 0.928879 0.502857 -0.674252
H23   H     H_    0.031482 0.954403 0.539360 0.274339
H24   H     H_    0.982728 0.803432 0.465640 0.251850
N2    N     N_3   0.015092 0.430332 0.496584 -0.673428
H25   H     H_    0.967130 0.455536 0.459658 0.274229
H26   H     H_    0.015376 0.305132 0.533887 0.251696
N3    N     N_3   0.039090 0.915747 0.702972 -0.667134
H27   H     H_    0.055390 0.797760 0.745298 0.246607
H28   H     H_    0.048774 0.036194 0.745340 0.248903
N4    N     N_3   0.960427 0.423282 0.296057 -0.670340
H29   H     H_    0.943211 0.306689 0.253028 0.244371
H30   H     H_    0.952117 0.544637 0.254314 0.248176
N5    N     N_3   0.754553 0.641688 0.686142 -0.690631
H31   H     H_    0.741514 0.499110 0.678117 0.236917
H32   H     H_    0.733160 0.700006 0.734667 0.212641
N6    N     N_3   0.243957 0.098708 0.323197 -0.682070
H33   H     H_    0.198401 0.045141 0.320265 0.246181
H34   H     H_    0.243517 0.175608 0.263082 0.217369
N7    N     N_3   0.217932 0.288878 0.055238 -0.692530
H35   H     H_    0.243618 0.195483 0.106804 0.212840
H36   H     H_    0.170680 0.294107 0.059553 0.247468
N8    N     N_3   0.788957 0.776105 0.934910 -0.651452
H37   H     H_    0.747425 0.844131 0.895352 0.196041
H38   H     H_    0.793729 0.658764 0.894945 0.222507
I1    I     I_    0.153729 0.376211 0.849445 -0.462586
I2    I     I_    0.844543 0.882770 0.140538 -0.441346

loop_
_geom_bond_atom_site_label_1
_geom_bond_atom_site_label_2
_ccdc_geom_bond_type
C23   C53   A    
C46   C48   A    
C43   C45   A    
O1    C3    A    
O2    C4    A    
N8    H37   S    
C2    O7    A    
O20   V4    S    
C40   H20   S    
N4    H29   S    
O5    C3    A    
C19   H5    S    
O11   C59   A    
C17   C19   S    
C45   H15   S    
C38   C40   A    
C58   O17   A    
C52   H22   S    
C21   C60   S    
C6    C8    A    
C40   C42   A    
C53   H13   S    
C24   C56   A    
N2    H25   S    
O13   V3    S    
C17   N7    S    
C33   C41   A    
C41   H9    S    
C45   C47   A    
C35   C43   A    
C30   C32   A    
N1    H23   S    
C36   C44   A    
C36   C38   A    
C18   C20   S    
O12   C60   A    
C28   N4    S    
O15   V3    S    
C17   I1    S    
C25   C27   A    
C25   C33   A    
O6    V2    S    
C11   C13   A    
N1    H24   S    
O11   V4    S    
C54   H14   S    
C21   C29   A    
O20   V3    S    
C32   C34   A    
C39   H19   S    
N5    H32   S    
C23   C55   A    
O17   V3    S    
C26   C28   A    
C3    C8    S    
C39   C41   A    
C29   H17   S    
C20   H8    S    
C52   C54   A    
C51   C53   A    
C57   O18   A    
C38   C50   A    
C34   C42   A    
C31   C35   A    
C29   C31   A    
O16   C60   A    
C48   C52   A    
C31   C33   A    
C44   C46   A    
O4    V2    S    
C19   H7    S    
C14   C57   S    
C43   N5    S    
C51   H21   S    
O6    C4    A    
C26   C34   A    
C15   C17   S    
C21   C27   A    
O19   V3    S    
O1    V2    S    
C22   C28   A    
O14   C58   A    
O2    V1    S    
C22   C30   A    
O4    C2    A    
C1    C24   S    
C8    C10   A    
C12   C14   A    
C2    C23   S    
C35   C37   A    
C50   C56   A    
N7    H35   S    
C5    C15   A    
C10   H2    S    
C6    C16   A    
N6    H34   S    
C20   H6    S    
C22   C59   S    
O3    V1    S    
N3    H27   S    
C27   N3    S    
C9    C11   A    
O14   V4    S    
C7    C9    A    
O18   V4    S    
C42   H10   S    
C56   H12   S    
C24   C54   A    
O3    C1    A    
N8    H38   S    
C13   C58   S    
N5    H31   S    
C18   N8    S    
C11   H3    S    
C12   H4    S    
O16   V4    S    
C37   C49   A    
C9    H1    S    
O7    V1    S    
C1    O8    A    
C13   C15   A    
C26   N2    S    
O8    V2    S    
C14   C16   A    
O13   C57   A    
C6    C20   S    
C44   N6    S    
C4    C7    S    
O5    V1    S    
C5    C7    A    
N4    H30   S    
C49   C55   A    
O19   V4    S    
C47   C51   A    
N2    H26   S    
C37   C39   A    
C30   H18   S    
C46   H16   S    
C18   I2    S    
C25   N1    S    
O12   V3    S    
C48   C50   A    
C10   C12   A    
O9    V2    S    
N7    H36   S    
O10   V1    S    
C5    C19   S    
C47   C49   A    
N6    H33   S    
C55   H11   S    
O15   C59   A    
C32   C36   A    
C16   C18   S    
N3    H28   S    
