data_str_m2_o9_o18_f0_pcu.sym.260
_audit_creation_date              2012-12-10T19:45:46-0500
_audit_creation_method            fapswitch 2.2
_symmetry_space_group_name_H-M    P1
_symmetry_Int_Tables_number       1
_space_group_crystal_system       triclinic
_cell_length_a                    10.836562
_cell_length_b                    14.67569
_cell_length_c                    14.671927
_cell_angle_alpha                 65.489205
_cell_angle_beta                  103.735762
_cell_angle_gamma                 102.589455
_cell_volume                      2043.42295801

loop_
_atom_site_label
_atom_site_type_symbol
_atom_type_description
_atom_site_fract_x
_atom_site_fract_y
_atom_site_fract_z
_atom_type_partial_charge
C1    C     C_R   0.480146 0.119545 0.312254 0.826980
C2    C     C_R   0.606966 0.781787 0.972757 -0.222038
C3    C     C_R   0.402057 0.152489 0.128746 -0.302397
C4    C     C_R   0.591984 0.848352 0.871631 -0.281147
C5    C     C_R   0.524310 0.289364 0.178263 0.372537
C6    C     C_R   0.486580 0.708337 0.820979 0.339649
C7    C     C_R   0.491953 0.359682 0.078187 -0.026238
C8    C     C_R   0.521105 0.638576 0.920766 -0.020010
C9    C     C_R   0.437502 0.321034 0.001410 0.113315
C10   C     C_R   0.571740 0.677552 0.997807 0.114367
C11   C     C_R   0.514803 0.466289 0.051577 0.060332
C12   C     C_R   0.519726 0.880425 0.687748 0.859886
C13   C     C_R   0.501447 0.531808 0.947328 0.071557
C14   C     C_R   0.472550 0.488123 0.873663 -0.178218
C15   C     C_R   0.544809 0.509447 0.125537 -0.198809
C16   C     C_R   0.263091 0.998960 0.503054 0.829141
C17   C     C_R   0.737349 0.999953 0.498611 0.779929
C18   C     C_R   0.432801 0.385371 0.899833 -0.247397
C19   C     C_R   0.581031 0.612445 0.099310 -0.235314
C20   C     C_R   0.706888 0.281543 0.674375 -0.328816
C21   C     C_R   0.289957 0.717614 0.327182 -0.324472
C22   C     C_R   0.677907 0.201870 0.641514 0.068719
C23   C     C_R   0.870943 0.998622 0.498385 -0.070098
C24   C     C_R   0.324136 0.799396 0.356987 0.066113
C25   C     C_R   0.517894 0.285019 0.508920 0.065241
C26   C     C_R   0.474552 0.711491 0.495806 0.056572
C27   C     C_R   0.543186 0.369152 0.538162 -0.024018
C28   C     C_R   0.444074 0.625237 0.469590 -0.025694
C29   C     C_R   0.638865 0.364682 0.623970 0.167176
C30   C     C_R   0.350496 0.630858 0.382374 0.162084
C31   C     C_R   0.476465 0.455975 0.486915 0.062610
C32   C     C_R   0.506311 0.536233 0.523636 0.059239
C33   C     C_R   0.599326 0.525766 0.611753 -0.257122
C34   C     C_R   0.130082 0.998345 0.506003 -0.063664
C35   C     C_R   0.381851 0.465689 0.399828 -0.242139
C36   C     C_R   0.664823 0.442229 0.660003 -0.212609
C37   C     C_R   0.319786 0.550994 0.349390 -0.211507
C38   C     C_R   0.357242 0.089336 0.766603 -0.189326
C39   C     C_R   0.673772 0.878847 0.240142 -0.251418
C40   C     C_R   0.265325 0.039491 0.711468 0.513616
C41   C     C_R   0.756738 0.939648 0.290206 0.507875
C42   C     C_R   0.187215 0.096300 0.622532 0.037591
C43   C     C_R   0.816521 0.890616 0.391263 0.070961
C44   C     C_R   0.196485 0.201169 0.594544 -0.234844
C45   C     C_R   0.907788 0.948112 0.447404 0.060821
C46   C     C_R   0.797886 0.784836 0.438267 -0.232102
C47   C     C_R   0.284989 0.249331 0.652291 -0.139096
C48   C     C_R   0.719255 0.726916 0.386607 -0.137885
C49   C     C_R   0.366530 0.193717 0.737294 -0.201600
C50   C     C_R   0.654498 0.773905 0.288998 -0.166944
C51   C     C_R   0.964312 0.047615 0.553237 -0.276174
C52   C     C_R   0.036925 0.949062 0.451746 -0.240780
C53   C     C_3   0.185050 0.886602 0.823634 -0.007790
C54   C     C_3   0.272327 0.828122 0.920161 -0.318449
C55   C     C_3   0.199006 0.769999 0.008871 -0.941822
C56   C     C_R   0.093858 0.046931 0.559141 0.035552
C57   C     C_3   0.706645 0.093188 0.155097 0.046944
C58   C     C_3   0.753484 0.104107 0.059874 -0.348866
C59   C     C_3   0.657495 0.149955 0.964376 -0.945323
C60   C     C_3   0.276505 0.680131 0.754200 0.057847
C61   C     C_3   0.185195 0.640485 0.678013 -0.294552
C62   C     C_3   0.045747 0.642088 0.680443 -0.961116
C63   C     C_3   0.739381 0.336020 0.227574 0.023013
C64   C     C_3   0.820097 0.259011 0.312429 -0.288407
C65   C     C_3   0.955683 0.273753 0.291012 -0.910022
C66   C     C_R   0.468722 0.187514 0.204778 -0.140701
C67   C     C_R   0.532328 0.812162 0.795184 -0.121537
C68   C     C_R   0.392751 0.217855 0.027195 -0.204594
Cu1   Cu    Cu3+1 0.466270 0.918260 0.475690 0.947662
Cu2   Cu    Cu3+1 0.533730 0.081740 0.524310 0.954984
H1    H     H_    0.437339 0.231513 0.780330 0.154541
H2    H     H_    0.443578 0.279985 0.447275 0.127314
H3    H     H_    0.624522 0.581359 0.645495 0.140238
H4    H     H_    0.353951 0.408828 0.367691 0.137961
H5    H     H_    0.421373 0.047118 0.832221 0.129706
H6    H     H_    0.625104 0.910134 0.162811 0.125533
H7    H     H_    0.135954 0.245708 0.527411 0.152499
H8    H     H_    0.845480 0.747248 0.514926 0.148584
H9    H     H_    0.291878 0.330164 0.630130 0.152966
H10   H     H_    0.707956 0.645390 0.422547 0.157531
H11   H     H_    0.936474 0.084578 0.594287 0.158291
H12   H     H_    0.589962 0.728822 0.250511 0.143404
H13   H     H_    0.064485 0.911497 0.411110 0.158797
H14   H     H_    0.401769 0.355869 0.840319 0.144035
H15   H     H_    0.612141 0.641489 0.158957 0.140979
H16   H     H_    0.278551 0.866863 0.313762 0.122765
H17   H     H_    0.728295 0.136589 0.681759 0.117640
H18   H     H_    0.780949 0.277623 0.739657 0.137902
H19   H     H_    0.217950 0.722756 0.260451 0.141002
H20   H     H_    0.106843 0.831914 0.803168 0.166335
H21   H     H_    0.137797 0.937931 0.839389 0.130385
H22   H     H_    0.314101 0.773643 0.905891 0.221564
H23   H     H_    0.348173 0.188228 0.968888 0.148768
H24   H     H_    0.352036 0.881235 0.941491 0.215047
H25   H     H_    0.158467 0.822936 0.026553 0.253032
H26   H     H_    0.265183 0.728248 0.077134 0.256625
H27   H     H_    0.120113 0.714704 0.990301 0.255476
H28   H     H_    0.707370 0.170378 0.150878 0.164804
H29   H     H_    0.605255 0.057644 0.157351 0.145878
H30   H     H_    0.847190 0.153688 0.053734 0.221272
H31   H     H_    0.768220 0.029521 0.064986 0.210649
H32   H     H_    0.562523 0.102313 0.969805 0.251329
H33   H     H_    0.691568 0.154006 0.897038 0.252533
H34   H     H_    0.647565 0.811640 0.031422 0.146772
H35   H     H_    0.647133 0.227463 0.954076 0.265449
H36   H     H_    0.261783 0.759380 0.733898 0.181835
H37   H     H_    0.253744 0.632142 0.831749 0.138736
H38   H     H_    0.206516 0.688123 0.600238 0.236545
H39   H     H_    0.199750 0.561681 0.696299 0.216975
H40   H     H_    0.021818 0.593819 0.757199 0.255877
H41   H     H_    0.981862 0.612356 0.624754 0.258074
H42   H     H_    0.028753 0.720637 0.660418 0.259472
H43   H     H_    0.782781 0.412834 0.224889 0.167042
H44   H     H_    0.743446 0.334871 0.152695 0.120790
H45   H     H_    0.480978 0.531220 0.795003 0.201374
H46   H     H_    0.825224 0.266524 0.385630 0.229338
H47   H     H_    0.773578 0.181626 0.319814 0.233211
H48   H     H_    0.952692 0.264195 0.219235 0.266518
H49   H     H_    0.011249 0.216585 0.353901 0.267815
H50   H     H_    0.005119 0.350269 0.285025 0.242049
H51   H     H_    0.624635 0.928166 0.853472 0.171530
H52   H     H_    0.361254 0.073904 0.147581 0.169433
H53   H     H_    0.539442 0.465499 0.204629 0.202434
H54   H     H_    0.736502 0.438158 0.726725 0.146160
H55   H     H_    0.248404 0.555254 0.282463 0.141643
H56   H     H_    0.547506 0.715322 0.558636 0.135099
N1    N     N_R   0.584450 0.204570 0.560790 -0.177960
N2    N     N_R   0.415550 0.795430 0.439210 -0.181933
O1    O     O_R   0.455540 0.022090 0.338120 -0.604680
O2    O     O_3   0.791195 0.044092 0.244023 -0.643111
O3    O     O_3   0.403576 0.676593 0.749009 -0.624417
O4    O     O_3   0.613932 0.317421 0.250210 -0.617726
O5    O     O_R   0.544460 0.977910 0.661880 -0.592500
O6    O     O_R   0.512510 0.160150 0.379180 -0.539233
O7    O     O_R   0.487490 0.839850 0.620820 -0.547334
O8    O     O_R   0.291160 0.930970 0.479480 -0.597418
O9    O     O_R   0.708840 0.069030 0.520520 -0.599558
O10   O     O_R   0.348130 0.069020 0.520540 -0.583800
O11   O     O_R   0.651870 0.930980 0.479460 -0.584728
O12   O     O_3   0.255305 0.935850 0.742018 -0.652414

loop_
_geom_bond_atom_site_label_1
_geom_bond_atom_site_label_2
_ccdc_geom_bond_type
Cu2   N1    S    
Cu1   O11   S    
C35   H4    S    
C34   C56   A    
C8    C13   A    
C23   C45   A    
C27   C29   A    
C53   O12   S    
C14   C18   A    
C2    C4    A    
C3    C68   A    
C47   H9    S    
C61   H39   S    
C22   N1    A    
C39   C41   A    
C38   C49   A    
C21   H19   S    
C53   C54   S    
C15   C19   A    
C29   C36   A    
C17   C23   S    
C15   H53   S    
C64   H46   S    
C44   H7    S    
C35   C37   A    
C1    O1    A    
C41   O2    S    
C14   H45   S    
C57   H29   S    
C20   H18   S    
C33   C36   A    
C51   C56   A    
C26   H56   S    
C61   H38   S    
C16   C34   S    
C63   H44   S    
C11   C15   A    
C59   H35   S    
C5    O4    S    
C62   H41   S    
Cu1   N2    S    
C12   O7    A    
C53   H21   S    
Cu2   O5    S    
C18   H14   S    
C65   H48   S    
C51   H11   S    
C44   C47   A    
C20   C29   A    
C42   C56   S    
C40   C42   A    
Cu1   O7    S    
C13   C14   A    
C41   C43   A    
C61   C62   S    
C42   C44   A    
C60   O3    S    
C47   C49   A    
C37   H55   S    
C38   H5    S    
C12   C67   S    
C46   C48   A    
C27   C31   A    
C57   O2    S    
C28   C32   A    
C58   H30   S    
C55   H25   S    
C5    C7    A    
C55   H26   S    
C6    C8    A    
C45   C52   A    
C58   C59   S    
C22   H17   S    
C64   H47   S    
C30   C37   A    
C60   C61   S    
C52   H13   S    
C7    C11   A    
C54   H22   S    
C23   C51   A    
C31   C32   A    
C62   H40   S    
C2    H34   S    
C10   C19   A    
C55   H27   S    
C1    C66   S    
C65   H49   S    
C17   O11   A    
C58   H31   S    
C26   N2    A    
C39   H6    S    
Cu2   O6    S    
C43   C45   S    
C60   H37   S    
C33   H3    S    
C6    C67   A    
C20   C22   A    
Cu2   O10   S    
Cu1   O8    S    
C12   O5    A    
C31   C35   A    
C3    C66   A    
C1    O6    A    
C16   O8    A    
C60   H36   S    
C50   H12   S    
C46   H8    S    
C7    C9    A    
C54   C55   S    
C32   C33   A    
C36   H54   S    
C59   H32   S    
C26   C28   A    
C16   O10   A    
C6    O3    S    
C19   H15   S    
C4    C67   A    
C3    H52   S    
C25   C27   A    
C21   C30   A    
C34   C52   A    
C68   H23   S    
C59   H33   S    
C64   C65   S    
C48   H10   S    
C28   C30   A    
C25   N1    A    
C9    C68   A    
C5    C66   A    
C38   C40   A    
C11   C13   A    
C57   C58   S    
C25   H2    S    
Cu1   O1    S    
C57   H28   S    
C40   O12   S    
C48   C50   A    
C65   H50   S    
C63   O4    S    
C4    H51   S    
Cu1   Cu2   S    
C43   C46   A    
C54   H24   S    
C63   C64   S    
C63   H43   S    
C9    C18   A    
C39   C50   A    
C62   H42   S    
Cu2   O9    S    
C8    C10   A    
C49   H1    S    
C21   C24   A    
C53   H20   S    
C24   N2    A    
C17   O9    A    
C24   H16   S    
C2    C10   A    
