data_str_m2_o1_o14_f0_pcu.sym.59
_audit_creation_date              2013-03-05T16:04:07-0500
_audit_creation_method            fapswitch 2.2
_symmetry_space_group_name_H-M    P1
_symmetry_Int_Tables_number       1
_space_group_crystal_system       triclinic
_cell_length_a                    10.825887
_cell_length_b                    9.637392
_cell_length_c                    10.777364
_cell_angle_alpha                 89.999677
_cell_angle_beta                  93.737871
_cell_angle_gamma                 89.998877
_cell_volume                      1122.04616651

loop_
_atom_site_label
_atom_site_type_symbol
_atom_site_description
_atom_site_fract_x
_atom_site_fract_y
_atom_site_fract_z
_atom_type_partial_charge
O1    O     O_R   0.319640 0.618740 0.499990 -0.568245
O2    O     O_R   0.680360 0.618740 0.500010 -0.568391
O3    O     O_R   0.319620 0.381170 0.499990 -0.591059
O4    O     O_R   0.680380 0.381170 0.500010 -0.591038
C1    C     C_R   0.262566 0.499154 0.502314 0.782549
C2    C     C_R   0.737433 0.499152 0.497688 0.782521
O5    O     O_R   0.500000 0.618810 0.319650 -0.588457
O6    O     O_R   0.500000 0.618810 0.680350 -0.588280
O7    O     O_R   0.499970 0.381240 0.319640 -0.578217
O8    O     O_R   0.500030 0.381240 0.680360 -0.578234
C3    C     C_R   0.510146 0.500183 0.263102 0.780692
C4    C     C_R   0.489837 0.500184 0.736895 0.780780
Cu1   Cu    Cu3+1 0.500000 0.640660 0.500000 0.983225
Cu2   Cu    Cu3+1 0.500000 0.359340 0.500000 0.949523
H1    H     H_    0.505029 0.276882 0.113019 0.195047
H2    H     H_    0.494849 0.276880 0.886978 0.195006
C5    C     C_R   0.585182 0.749386 0.105673 -0.098032
C6    C     C_R   0.414822 0.749406 0.894314 -0.097991
C7    C     C_R   0.547847 0.876825 0.048416 -0.043236
C8    C     C_R   0.452142 0.876832 0.951593 -0.043264
C9    C     C_R   0.472296 0.625745 0.939604 -0.008456
C10   C     C_R   0.527679 0.625738 0.060390 -0.008494
C11   C     C_R   0.522293 0.500344 0.128535 -0.154424
C12   C     C_R   0.477662 0.500348 0.871459 -0.154430
C13   C     C_R   0.506243 0.374816 0.064233 -0.106651
C14   C     C_R   0.493666 0.374816 0.935763 -0.106731
C15   C     C_R   0.064220 0.369073 0.500846 -0.167787
C16   C     C_R   0.935788 0.369072 0.499225 -0.167771
H3    H     H_    0.112514 0.270649 0.500246 0.149935
H4    H     H_    0.887501 0.270649 0.499881 0.149935
C17   C     C_R   0.871354 0.495671 0.495256 -0.030453
C18   C     C_R   0.128646 0.495674 0.504747 -0.030471
C19   C     C_R   0.936358 0.619772 0.492484 -0.170612
C20   C     C_R   0.063632 0.619776 0.507448 -0.170635
H5    H     H_    0.888687 0.716467 0.478870 0.187709
H6    H     H_    0.111298 0.716478 0.521005 0.187730
C21   C     C_R   0.412073 0.076794 0.432463 -0.059953
C22   C     C_R   0.587931 0.076787 0.567533 -0.059890
H7    H     H_    0.342040 0.135375 0.378487 0.147494
H8    H     H_    0.657969 0.135362 0.621506 0.147481
C23   C     C_R   0.407684 0.929717 0.434613 0.117386
C24   C     C_R   0.592317 0.929710 0.565383 0.117296
N1    N     N_R   0.500000 0.852070 0.500000 -0.178649
N2    N     N_R   0.500000 0.147940 0.500000 -0.182690
C25   C     C_2   0.692511 0.738505 0.199860 0.379933
H9    H     H_    0.736350 0.638467 0.217290 0.057871
O9    O     O_2   0.732343 0.837910 0.260010 -0.604449
C26   C     C_2   0.307524 0.738562 0.800095 0.379942
H10   H     H_    0.263480 0.638595 0.782870 0.057738
O10   O     O_2   0.268006 0.837900 0.739641 -0.604273
C27   C     C_2   0.607551 0.009242 0.087823 0.435911
H11   H     H_    0.614295 0.039430 0.184967 0.113319
O11   O     O_2   0.650551 0.085339 0.011020 -0.579473
C28   C     C_2   0.392381 0.009243 0.912245 0.435439
H12   H     H_    0.385619 0.039490 0.815116 0.113480
O12   O     O_2   0.349363 0.085278 0.989085 -0.579512
C29   C     C_R   0.294752 0.872560 0.367424 0.143817
C30   C     C_R   0.178318 0.919368 0.401667 -0.230770
C31   C     C_R   0.070613 0.891994 0.326673 -0.136219
C32   C     C_R   0.077569 0.818331 0.215919 -0.061715
C33   C     C_R   0.192760 0.777740 0.177602 -0.144257
C34   C     C_R   0.300321 0.808878 0.251198 -0.083834
H13   H     H_    0.171235 0.978812 0.486215 0.142952
H14   H     H_    0.981919 0.927764 0.354675 0.159937
H15   H     H_    0.994291 0.796460 0.158129 0.141353
H16   H     H_    0.199276 0.727212 0.088542 0.130143
H17   H     H_    0.387439 0.792410 0.213353 0.154889
C35   C     C_R   0.705247 0.872539 0.632567 0.143771
C36   C     C_R   0.821682 0.919305 0.598296 -0.230792
C37   C     C_R   0.929391 0.891935 0.673287 -0.136241
C38   C     C_R   0.922433 0.818329 0.784074 -0.061790
C39   C     C_R   0.807241 0.777775 0.822415 -0.144168
C40   C     C_R   0.699679 0.808894 0.748811 -0.083812
H18   H     H_    0.828764 0.978713 0.513725 0.142920
H19   H     H_    0.018087 0.927671 0.645262 0.159830
H20   H     H_    0.005714 0.796471 0.841868 0.141146
H21   H     H_    0.800725 0.727294 0.911498 0.130209
H22   H     H_    0.612559 0.792442 0.786660 0.154939

loop_
_geom_bond_atom_site_label_1
_geom_bond_atom_site_label_2
_geom_bond_distance
_ccdc_geom_bond_type
O6    Cu1   1.955070 S    
C15   H3    1.083305 S    
C6    C9    1.416364 A    
C7    C8    1.421761 A    
C29   C34   1.399709 A    
C25   H9    1.085531 S    
O5    C3    1.303549 A    
C31   H14   1.081499 S    
C34   H17   1.063573 S    
C21   C23   1.418474 A    
O1    C1    1.308697 A    
C12   C14   1.399379 A    
C22   C24   1.418479 A    
C36   C37   1.399843 A    
C38   H20   1.082568 S    
H1    C13   1.080897 S    
O2    Cu1   1.963941 S    
C5    C7    1.421274 A    
C33   H16   1.082686 S    
C35   C36   1.410379 A    
C40   H22   1.063594 S    
C17   C19   1.389008 A    
C37   C38   1.395068 A    
C20   H6    1.070676 S    
C1    C18   1.452143 S    
C35   C40   1.399724 A    
C26   O10   1.219707 D    
C2    C17   1.452136 S    
C31   C32   1.395046 A    
C9    C10   1.397243 A    
C24   C35   1.485619 S    
C23   N1    1.401258 A    
O2    C2    1.308689 A    
C25   O9    1.219640 D    
H2    C14   1.080896 S    
C28   O12   1.220632 D    
C27   H11   1.084492 S    
O4    C2    1.295001 A    
O8    Cu2   1.955209 S    
C30   C31   1.399842 A    
C32   C33   1.394917 A    
C27   O11   1.220626 D    
C18   C20   1.388998 A    
O7    Cu2   1.955208 S    
C22   N2    1.347501 A    
C39   H21   1.082704 S    
O6    C4    1.303545 A    
C19   C20   1.376779 A    
C36   H18   1.083289 S    
O7    C3    1.306209 A    
O3    Cu2   1.964063 S    
O8    C4    1.306225 A    
C8    C28   1.480208 S    
C26   H10   1.085577 S    
C32   H15   1.082562 S    
O1    Cu1   1.963949 S    
C24   N1    1.401234 A    
Cu1   N1    2.037441 S    
Cu2   N2    2.037345 S    
C30   H13   1.083280 S    
C28   H12   1.084483 S    
C15   C18   1.404677 A    
C16   C17   1.404674 A    
C5    C25   1.495902 S    
C39   C40   1.398108 A    
O3    C1    1.294995 A    
C6    C26   1.495841 S    
C4    C12   1.464747 S    
C5    C10   1.416381 A    
C21   N2    1.347486 A    
C16   H4    1.083306 S    
C13   C14   1.382381 A    
C23   C29   1.485634 S    
C38   C39   1.394939 A    
C21   H7    1.083711 S    
C22   H8    1.083713 S    
C29   C30   1.410384 A    
C3    C11   1.464736 S    
C19   H5    1.070700 S    
C6    C8    1.421246 A    
C11   C13   1.399386 A    
O4    Cu2   1.964070 S    
C33   C34   1.398103 A    
C7    C27   1.480194 S    
O5    Cu1   1.955073 S    
C9    C12   1.417316 A    
C37   H19   1.081513 S    
C10   C11   1.417313 A    
Cu1   Cu2   2.711191 S    
C15   C16   1.389355 A    
