data_str_m9_o11_o17_f0_sra.sym.152
_audit_creation_date              2012-12-11T14:19:19-0500
_audit_creation_method            fapswitch 2.2
_symmetry_space_group_name_H-M    P1
_symmetry_Int_Tables_number       1
_space_group_crystal_system       triclinic
_cell_length_a                    19.578572
_cell_length_b                    7.259624
_cell_length_c                    17.722421
_cell_angle_alpha                 89.869395
_cell_angle_beta                  107.547745
_cell_angle_gamma                 89.878421
_cell_volume                      2401.70910718

loop_
_atom_site_label
_atom_site_type_symbol
_atom_type_description
_atom_site_fract_x
_atom_site_fract_y
_atom_site_fract_z
_atom_type_partial_charge
O1    O     O_R   0.414820 0.494320 0.416790 -0.538701
O2    O     O_R   0.585180 0.994320 0.583210 -0.540555
O3    O     O_R   0.560270 0.819500 0.430140 -0.553687
O4    O     O_R   0.439730 0.319500 0.569860 -0.554693
C1    C     C_R   0.582341 0.655503 0.416737 0.763578
C2    C     C_R   0.418946 0.154991 0.584769 0.769272
O5    O     O_R   0.413840 0.823740 0.407440 -0.539948
O6    O     O_R   0.586160 0.323740 0.592560 -0.538777
O7    O     O_R   0.437710 0.998590 0.560350 -0.528280
O8    O     O_R   0.562290 0.498590 0.439650 -0.525186
C3    C     C_R   0.386825 0.656081 0.386225 0.756673
C4    C     C_R   0.613738 0.155496 0.613062 0.760012
O9    O     O_3   0.508000 0.662290 0.550200 -0.385307
O10   O     O_3   0.492000 0.162290 0.449800 -0.381779
V1    V     V_3+5 0.498520 0.935380 0.490690 1.411288
V2    V     V_3+5 0.501480 0.435380 0.509310 1.413140
C5    C     C_2   0.803465 0.250000 0.762870 0.182099
C6    C     C_2   0.203053 0.764411 0.228695 0.175938
C7    C     C_2   0.817625 0.120416 0.821178 -0.337150
C8    C     C_2   0.182579 0.618781 0.178609 -0.340367
H1    H     H_    0.775629 0.026592 0.824684 0.096898
H2    H     H_    0.220430 0.507780 0.181140 0.095368
C9    C     C_2   0.729714 0.283479 0.706526 0.172204
C10   C     C_2   0.278459 0.788308 0.281488 0.166802
C11   C     C_2   0.684752 0.141188 0.675667 -0.357636
C12   C     C_2   0.315688 0.644677 0.324197 -0.355860
H3    H     H_    0.703080 0.002067 0.693882 0.116736
H4    H     H_    0.290717 0.509660 0.316048 0.116041
C13   C     C_R   0.292950 0.137584 0.594170 0.053802
C14   C     C_R   0.708663 0.661409 0.406789 0.051254
C15   C     C_R   0.367971 0.144374 0.631703 -0.152635
C16   C     C_R   0.633631 0.647050 0.370118 -0.147955
C17   C     C_R   0.395272 0.132102 0.714749 0.320542
C18   C     C_R   0.606728 0.618971 0.288041 0.327704
C19   C     C_R   0.348201 0.122890 0.761386 -0.025763
C20   C     C_R   0.653718 0.618206 0.241161 -0.029560
C21   C     C_R   0.273603 0.120104 0.725025 0.006825
C22   C     C_R   0.728208 0.628234 0.276771 0.008510
C23   C     C_R   0.245811 0.120780 0.641276 0.113277
C24   C     C_R   0.756042 0.640031 0.360195 0.116780
C25   C     C_R   0.374933 0.112142 0.844056 -0.285440
C26   C     C_R   0.626992 0.603832 0.159001 -0.288583
C27   C     C_R   0.329285 0.112006 0.892055 0.413237
C28   C     C_R   0.671623 0.612875 0.109987 0.441521
C29   C     C_R   0.254141 0.121384 0.856109 -0.072197
C30   C     C_R   0.746916 0.624689 0.145147 -0.063021
C31   C     C_R   0.226557 0.116791 0.772561 -0.082465
C32   C     C_R   0.775051 0.624917 0.228900 -0.087499
C33   C     C_R   0.151849 0.115898 0.736109 0.034163
C34   C     C_R   0.849952 0.627260 0.265229 0.034889
C35   C     C_R   0.125406 0.097592 0.653513 -0.189438
C36   C     C_R   0.876471 0.615127 0.348134 -0.185640
C37   C     C_R   0.171225 0.103369 0.606847 -0.179132
C38   C     C_R   0.830764 0.627941 0.394799 -0.179214
C39   C     C_R   0.206098 0.139877 0.902080 0.354975
C40   C     C_R   0.794794 0.638342 0.098869 0.338033
C41   C     C_R   0.131136 0.125120 0.865740 -0.278411
C42   C     C_R   0.869881 0.625046 0.135241 -0.283850
C43   C     C_R   0.104564 0.135998 0.782445 0.312325
C44   C     C_R   0.897071 0.641305 0.218290 0.313203
H5    H     H_    0.431859 0.101289 0.871371 0.161543
H6    H     H_    0.570425 0.586749 0.132637 0.158092
H7    H     H_    0.068449 0.084292 0.624230 0.146430
H8    H     H_    0.933389 0.601285 0.377672 0.142977
H9    H     H_    0.147088 0.095306 0.543461 0.130497
H10   H     H_    0.854923 0.626366 0.458300 0.130522
O11   O     O_R   0.937810 0.773680 0.060480 -0.555454
O12   O     O_R   0.062190 0.273680 0.939520 -0.554158
O13   O     O_R   0.086190 0.439740 0.092580 -0.544610
O14   O     O_R   0.913810 0.939740 0.907420 -0.544820
C45   C     C_R   0.112416 0.608579 0.114789 0.750929
C46   C     C_R   0.887384 0.108810 0.885625 0.743215
O15   O     O_R   0.939760 0.444210 0.069890 -0.540988
O16   O     O_R   0.060240 0.944210 0.930110 -0.541549
O17   O     O_R   0.914790 0.269640 0.916760 -0.528513
O18   O     O_R   0.085210 0.769640 0.083240 -0.530742
C47   C     C_R   0.919583 0.613345 0.085556 0.797742
C48   C     C_R   0.080899 0.113404 0.914914 0.791588
O19   O     O_3   0.992050 0.601530 0.949880 -0.390674
O20   O     O_3   0.007950 0.101530 0.050120 -0.391885
V3    V     V_3+5 0.001480 0.328340 0.009300 1.383492
V4    V     V_3+5 0.998520 0.828340 0.990700 1.380687
C49   C     C_3   0.863643 0.365050 0.751874 -0.737322
H11   H     H_    0.850536 0.419776 0.690579 0.192055
H12   H     H_    0.875119 0.481944 0.794071 0.219676
H13   H     H_    0.911539 0.276822 0.761577 0.228628
C50   C     C_3   0.149638 0.909852 0.234164 -0.717110
H14   H     H_    0.168419 0.987004 0.290693 0.189240
H15   H     H_    0.140357 0.009417 0.184439 0.224773
H16   H     H_    0.099183 0.841445 0.233275 0.212859
O21   O     O_3   0.032896 0.178830 0.747407 -0.583091
C51   C     C_3   0.026125 0.359364 0.713945 0.029075
H17   H     H_    0.971262 0.372433 0.672156 0.144094
H18   H     H_    0.062268 0.386102 0.677474 0.127874
C52   C     C_3   0.038066 0.510018 0.777151 -0.327572
H19   H     H_    0.006023 0.480317 0.817485 0.232600
H20   H     H_    0.095461 0.513271 0.812679 0.177780
C53   C     C_3   0.016606 0.698875 0.739494 -0.779491
H21   H     H_    0.050540 0.736324 0.701643 0.228969
H22   H     H_    0.023840 0.803512 0.786605 0.258145
H23   H     H_    0.959385 0.699475 0.703219 0.222892
O22   O     O_3   0.969527 0.677669 0.252030 -0.580021
C54   C     C_3   0.979740 0.857672 0.285552 0.033447
H24   H     H_    0.036393 0.867341 0.322964 0.142209
H25   H     H_    0.947754 0.885684 0.326306 0.126162
C55   C     C_3   0.964131 0.010406 0.222572 -0.336565
H26   H     H_    0.992517 0.980983 0.178722 0.234098
H27   H     H_    0.905742 0.016597 0.191198 0.177036
C56   C     C_3   0.988329 0.197609 0.259947 -0.770943
H28   H     H_    0.958089 0.234837 0.301660 0.228089
H29   H     H_    0.978302 0.303974 0.212971 0.259045
H30   H     H_    0.046601 0.195672 0.292049 0.221008
C57   C     C_3   0.710368 0.480868 0.680312 -0.709569
H31   H     H_    0.751391 0.580631 0.713073 0.193765
H32   H     H_    0.704510 0.494085 0.616473 0.203863
H33   H     H_    0.660076 0.523442 0.691292 0.217127
C58   C     C_3   0.308731 0.981815 0.288531 -0.692568
H34   H     H_    0.275319 0.073861 0.241636 0.192734
H35   H     H_    0.310717 0.041330 0.346755 0.203282
H36   H     H_    0.363010 0.981808 0.281390 0.208739
C59   C     C_3   0.262910 0.148210 0.504621 -0.785182
H37   H     H_    0.304121 0.171301 0.474451 0.194460
H38   H     H_    0.235109 0.017623 0.481429 0.205253
H39   H     H_    0.224517 0.264899 0.487617 0.205800
C60   C     C_3   0.738552 0.700035 0.494605 -0.796906
H40   H     H_    0.696774 0.733015 0.522933 0.200807
H41   H     H_    0.769219 0.578540 0.525227 0.201000
H42   H     H_    0.774561 0.821383 0.504068 0.213263
O23   O     O_3   0.468141 0.108209 0.749608 -0.578879
C61   C     C_3   0.500568 0.281579 0.770450 0.029953
H43   H     H_    0.476982 0.355560 0.811471 0.131394
H44   H     H_    0.494090 0.368290 0.716974 0.141167
C62   C     C_3   0.580224 0.251026 0.811467 -0.300071
H45   H     H_    0.587104 0.174825 0.867679 0.186934
H46   H     H_    0.602629 0.164848 0.773104 0.203332
C63   C     C_3   0.621184 0.432234 0.828752 -0.796489
H47   H     H_    0.615606 0.492609 0.883336 0.270872
H48   H     H_    0.600504 0.533380 0.780225 0.217988
H49   H     H_    0.679017 0.407423 0.837649 0.247371
O24   O     O_3   0.536066 0.565966 0.255700 -0.574540
C64   C     C_3   0.492676 0.721364 0.226676 0.042326
H50   H     H_    0.514556 0.807138 0.187307 0.126374
H51   H     H_    0.487783 0.808231 0.276386 0.125976
C65   C     C_3   0.418402 0.652301 0.179963 -0.322498
H52   H     H_    0.423887 0.546295 0.137018 0.183423
H53   H     H_    0.393603 0.584596 0.221366 0.197758
C66   C     C_3   0.369671 0.806711 0.135238 -0.777596
H54   H     H_    0.371980 0.812055 0.073757 0.266718
H55   H     H_    0.385547 0.943244 0.162881 0.232266
H56   H     H_    0.313486 0.778420 0.133113 0.238608
O25   O     O_3   0.355757 0.073701 0.972641 -0.556983
C67   C     C_3   0.413452 0.188392 0.013059 0.102700
H57   H     H_    0.401241 0.240131 0.066473 0.154400
H58   H     H_    0.419560 0.311034 0.978346 0.089202
C68   C     C_3   0.483311 0.077159 0.039519 -0.381400
H59   H     H_    0.472335 0.936968 0.057504 0.216433
H60   H     H_    0.506137 0.064493 0.989714 0.175944
C69   C     C_3   0.539850 0.165233 0.108554 -0.821473
H61   H     H_    0.517560 0.200178 0.157431 0.250651
H62   H     H_    0.560746 0.290073 0.087646 0.251105
H63   H     H_    0.585314 0.068097 0.131636 0.223634
O26   O     O_3   0.643522 0.585741 0.028738 -0.557616
C70   C     C_3   0.581894 0.695404 0.993743 0.064890
H64   H     H_    0.589370 0.761310 0.940394 0.153373
H65   H     H_    0.575063 0.809943 0.031989 0.095112
C71   C     C_3   0.514212 0.576110 0.967835 -0.367617
H66   H     H_    0.527464 0.439003 0.948313 0.213882
H67   H     H_    0.492670 0.555690 0.018195 0.175410
C72   C     C_3   0.454949 0.664523 0.900899 -0.830453
H68   H     H_    0.474452 0.698566 0.849824 0.247822
H69   H     H_    0.435420 0.790826 0.922491 0.254669
H70   H     H_    0.409199 0.567936 0.880605 0.222189
O27   O     O_3   0.232789 0.185960 0.981551 -0.548252
C73   C     C_3   0.222448 0.377598 0.991236 0.123472
H71   H     H_    0.228075 0.402145 0.054540 0.116710
H72   H     H_    0.168075 0.425056 0.957990 0.127690
C74   C     C_3   0.276707 0.500024 0.967877 -0.387181
H73   H     H_    0.327611 0.503410 0.016791 0.187959
H74   H     H_    0.288102 0.449088 0.914242 0.198504
C75   C     C_3   0.248099 0.695253 0.949234 -0.780005
H75   H     H_    0.199265 0.696409 0.897164 0.217172
H76   H     H_    0.289518 0.777882 0.934378 0.267087
H77   H     H_    0.235179 0.757097 0.000509 0.248465
O28   O     O_3   0.768357 0.680249 0.018889 -0.546925
C76   C     C_3   0.782732 0.868228 0.006539 0.137973
H78   H     H_    0.798756 0.875912 0.951828 0.128924
H79   H     H_    0.827310 0.929410 0.054696 0.104036
C77   C     C_3   0.716548 0.988993 0.995828 -0.388008
H80   H     H_    0.677137 0.958079 0.937741 0.188095
H81   H     H_    0.692563 0.960978 0.043955 0.204844
C78   C     C_3   0.735515 0.193047 0.998460 -0.760812
H82   H     H_    0.773677 0.229118 0.056882 0.229259
H83   H     H_    0.686153 0.275759 0.989705 0.275822
H84   H     H_    0.759734 0.227667 0.951120 0.230719

loop_
_geom_bond_atom_site_label_1
_geom_bond_atom_site_label_2
_ccdc_geom_bond_type
C69   H62   S    
C50   H14   S    
C68   H60   S    
C58   H34   S    
C72   H69   S    
C72   H68   S    
C20   C26   A    
C66   H54   S    
O1    C3    A    
C25   H5    S    
O2    C4    A    
C2    O7    A    
C62   H45   S    
C52   C53   S    
C27   O25   S    
C31   C33   A    
C23   C37   A    
O27   C73   S    
O5    C3    A    
C10   C58   S    
C5    C9    S    
C28   O26   S    
C77   C78   S    
C6    C10   S    
O12   V3    S    
C70   H65   S    
C10   C12   D    
O26   C70   S    
C46   O17   A    
C45   O18   A    
C76   H79   S    
C55   H26   S    
C42   C44   A    
O28   C76   S    
C77   H81   S    
C18   O24   S    
O13   C45   A    
C73   H71   S    
C39   O27   S    
C59   H39   S    
C42   C47   S    
C17   C19   A    
C57   H31   S    
C52   H19   S    
C36   C38   A    
C74   H74   S    
O11   C47   A    
C62   C63   S    
C34   C36   A    
O25   C67   S    
C15   C17   A    
C8    C45   S    
C21   C31   A    
C37   H9    S    
C26   H6    S    
C22   C32   A    
C69   H63   S    
C75   H77   S    
C57   H33   S    
C32   C34   A    
C2    C15   S    
C14   C60   S    
O6    V2    S    
C22   C24   A    
C68   C69   S    
C71   H67   S    
C25   C27   A    
C7    C46   S    
C26   C28   A    
O16   V4    S    
C65   C66   S    
C44   O22   S    
O15   V3    S    
C28   C30   A    
C29   C31   A    
O12   C48   A    
C30   C32   A    
C78   H82   S    
C70   C71   S    
C35   H7    S    
O24   C64   S    
C65   H53   S    
C36   H8    S    
C58   H36   S    
O18   V4    S    
O21   C51   S    
O17   V3    S    
C76   C77   S    
C40   O28   S    
C3    C12   S    
C33   C35   A    
C51   C52   S    
C13   C59   S    
C77   H80   S    
C5    C49   S    
C64   H51   S    
C63   H49   S    
O4    V2    S    
C61   H44   S    
C78   H83   S    
C9    C57   S    
C49   H11   S    
C67   C68   S    
O6    C4    A    
C74   C75   S    
C13   C23   A    
C51   H18   S    
C14   C24   A    
C54   H25   S    
O1    V2    S    
C43   O21   S    
O2    V1    S    
C27   C29   A    
C73   C74   S    
C59   H37   S    
C19   C25   A    
O11   V4    S    
O13   V3    S    
C38   H10   S    
O4    C2    A    
C49   H12   S    
C67   H58   S    
C53   H21   S    
C24   C38   A    
C39   C41   A    
C60   H40   S    
C72   H70   S    
C56   H30   S    
C61   C62   S    
C20   C22   A    
C66   H56   S    
C68   H59   S    
O3    V1    S    
C75   H75   S    
C19   C21   A    
C63   H48   S    
C62   H46   S    
O23   C61   S    
C17   O23   S    
C75   H76   S    
C66   H55   S    
C57   H32   S    
C41   C48   S    
C8    H2    S    
O20   V3    S    
O3    C1    A    
O19   V4    S    
C52   H20   S    
O9    V2    S    
C64   C65   S    
C11   H3    S    
C53   H23   S    
C12   H4    S    
C6    C50   S    
C33   C43   A    
C4    C11   S    
C65   H52   S    
C34   C44   A    
C1    C16   S    
C58   H35   S    
C61   H43   S    
O7    V1    S    
C78   H84   S    
C1    O8    A    
C13   C15   A    
O8    V2    S    
C64   H50   S    
C14   C16   A    
C76   H78   S    
C69   H61   S    
C71   H66   S    
C55   H27   S    
C60   H42   S    
C56   H29   S    
O5    V1    S    
C51   H17   S    
C5    C7    D    
C18   C20   A    
C40   C42   A    
C54   C55   S    
C6    C8    D    
C9    C11   D    
O22   C54   S    
O14   V4    S    
C53   H22   S    
C73   H72   S    
C59   H38   S    
C70   H64   S    
C41   C43   A    
C49   H13   S    
C67   H57   S    
C29   C39   A    
C71   C72   S    
C21   C23   A    
C74   H73   S    
O16   C48   A    
C50   H16   S    
C30   C40   A    
C54   H24   S    
C60   H41   S    
C50   H15   S    
O15   C47   A    
O10   V1    S    
C63   H47   S    
O14   C46   A    
C35   C37   A    
C56   H28   S    
C16   C18   A    
C7    H1    S    
C55   C56   S    
