data_str_m3_o14_o22_f0_pcu.sym.102
_audit_creation_date              2013-03-05T15:53:45-0500
_audit_creation_method            fapswitch 2.2
_symmetry_space_group_name_H-M    P1
_symmetry_Int_Tables_number       1
_space_group_crystal_system       triclinic
_cell_length_a                    10.753616
_cell_length_b                    10.767185
_cell_length_c                    9.929517
_cell_angle_alpha                 88.865292
_cell_angle_beta                  89.651013
_cell_angle_gamma                 91.644162
_cell_volume                      1148.97656565

loop_
_atom_site_label
_atom_site_type_symbol
_atom_site_description
_atom_site_fract_x
_atom_site_fract_y
_atom_site_fract_z
_atom_type_partial_charge
O1    O     O_R   0.500000 0.316780 0.614690 -0.659327
O2    O     O_R   0.499990 0.316750 0.385360 -0.585963
C1    C     C_R   0.506279 0.260093 0.502742 0.933029
O3    O     O_R   0.314800 0.499990 0.614670 -0.662834
O4    O     O_R   0.314790 0.499970 0.385330 -0.625292
C2    C     C_R   0.258581 0.509988 0.500867 0.826474
Zn1   Zn    Zn3+2 0.500010 0.500020 0.653130 0.963457
Zn2   Zn    Zn3+2 0.499990 0.499980 0.346870 1.007581
O5    O     O_R   0.500010 0.683250 0.614640 -0.608507
O6    O     O_R   0.500000 0.683220 0.385310 -0.591836
O7    O     O_R   0.685210 0.500030 0.614670 -0.593625
O8    O     O_R   0.685200 0.500010 0.385330 -0.596427
C3    C     C_R   0.496728 0.739461 0.497742 0.916152
C4    C     C_R   0.742224 0.503945 0.500579 0.910551
C5    C     C_3   0.071649 0.513579 0.654630 -0.107010
H1    H     H_    0.104179 0.426005 0.700202 0.151486
C6    C     C_3   0.928208 0.501705 0.653555 0.211989
H2    H     H_    0.902940 0.405750 0.691131 0.090298
H3    H     H_    0.103246 0.719836 0.490163 0.158358
H4    H     H_    0.892100 0.715289 0.477792 0.220649
C7    C     C_3   0.073131 0.637490 0.431834 -0.010682
C8    C     C_3   0.070194 0.399319 0.434143 -0.490421
C9    C     C_3   0.121977 0.517518 0.504579 0.107466
H5    H     H_    0.106522 0.394076 0.330129 0.214988
H6    H     H_    0.100887 0.314332 0.488880 0.164172
C10   C     C_3   0.878831 0.510709 0.504616 -0.076781
C11   C     C_3   0.928787 0.630956 0.431232 -0.327238
C12   C     C_3   0.928315 0.398201 0.429113 -0.416726
H7    H     H_    0.891556 0.310182 0.476807 0.216383
H8    H     H_    0.898069 0.400520 0.322030 0.250659
H9    H     H_    0.893130 0.632020 0.326095 0.216615
C13   C     C_R   0.426863 0.103198 0.746157 -0.124762
H10   H     H_    0.469925 0.185422 0.786612 0.184629
C14   C     C_R   0.345841 0.037069 0.833404 -0.119333
H11   H     H_    0.321455 0.074930 0.929962 0.160162
C15   C     C_R   0.296369 0.922599 0.795850 -0.122896
H12   H     H_    0.230229 0.872455 0.860775 0.151368
C16   C     C_R   0.337887 0.869951 0.677569 -0.126953
H13   H     H_    0.300638 0.780400 0.649954 0.126672
C17   C     C_R   0.427499 0.932326 0.594565 0.071487
C18   C     C_R   0.458023 0.056550 0.617634 0.064400
C19   C     C_R   0.517090 0.126726 0.510635 -0.294802
C20   C     C_R   0.570724 0.067094 0.399924 0.196014
C21   C     C_R   0.560982 0.938944 0.393548 0.234073
C22   C     C_R   0.490153 0.872118 0.491548 -0.296963
H14   H     H_    0.655700 0.621062 0.121257 0.196998
C23   C     C_R   0.302209 0.368057 0.136649 0.215029
C24   C     C_R   0.191943 0.353892 0.063380 -0.195801
H15   H     H_    0.108140 0.316191 0.111948 0.170928
C25   C     C_R   0.201635 0.338523 0.926303 -0.228131
H16   H     H_    0.125696 0.293891 0.873039 0.164539
C26   C     C_R   0.312897 0.369473 0.861089 -0.183147
H17   H     H_    0.322011 0.341638 0.759135 0.204713
C27   C     C_R   0.408116 0.434079 0.928552 0.114139
C28   C     C_R   0.406077 0.433575 0.072983 0.151156
N1    N     N_R   0.498810 0.498800 0.142780 -0.130885
C29   C     C_R   0.585457 0.566649 0.069475 -0.017139
H18   H     H_    0.647120 0.630092 0.871462 0.225864
C30   C     C_R   0.582971 0.569276 0.926673 -0.016365
N2    N     N_R   0.498760 0.498720 0.857170 -0.143816
C31   C     C_3   0.119954 0.618645 0.748813 -0.786326
H19   H     H_    0.091279 0.711676 0.713551 0.246856
H20   H     H_    0.083107 0.602407 0.852353 0.280472
H21   H     H_    0.221044 0.620504 0.765059 0.244024
C32   C     C_3   0.124102 0.663316 0.288022 -0.850134
H22   H     H_    0.224922 0.687998 0.289882 0.255450
H23   H     H_    0.107245 0.582941 0.221799 0.261659
H24   H     H_    0.077621 0.744775 0.242608 0.256681
N3    N     N_R   0.641403 0.135226 0.297767 0.242850
O9    O     O_R   0.624826 0.112841 0.170716 -0.343113
O10   O     O_R   0.728805 0.213880 0.331892 -0.420388
N4    N     N_R   0.627612 0.876940 0.290284 0.245178
O11   O     O_R   0.571936 0.849541 0.178309 -0.368061
O12   O     O_R   0.747567 0.867078 0.298916 -0.395288
C33   C     C_3   0.319596 0.253207 0.222748 -0.795139
H25   H     H_    0.257289 0.173860 0.193600 0.205217
H26   H     H_    0.413370 0.216880 0.205879 0.278788
H27   H     H_    0.295265 0.270204 0.329071 0.235678
N5    N     N_R   0.870320 0.586606 0.748469 0.223648
O13   O     O_R   0.848845 0.701458 0.715111 -0.418505
O14   O     O_R   0.857566 0.551065 0.874014 -0.438362

loop_
_geom_bond_atom_site_label_1
_geom_bond_atom_site_label_2
_geom_bond_distance
_ccdc_geom_bond_type
C16   C17   1.410760 A    
C28   N1    1.398384 A    
C1    C19   1.444623 S    
C17   C18   1.391789 A    
C18   C19   1.426751 A    
C33   H25   1.114416 S    
Zn2   N1    2.026921 S    
C27   N2    1.367498 A    
C21   C22   1.405904 A    
Zn1   O7    2.025565 S    
C10   C11   1.553641 S    
C6    C10   1.576488 S    
C12   H7    1.112271 S    
H3    C7    1.110224 S    
O4    C2    1.301275 A    
O7    C4    1.284219 A    
C29   C30   1.418105 A    
C5    H1    1.104622 S    
C6    N5    1.473436 S    
N1    C29   1.365035 A    
Zn1   O5    2.002104 S    
C14   H11   1.082933 S    
N3    O10   1.298066 A    
O5    C3    1.299530 A    
C32   H23   1.108681 S    
C8    H6    1.114237 S    
C25   C26   1.386006 A    
C13   C18   1.422320 A    
C5    C9    1.581448 S    
C7    C11   1.551849 S    
C30   N2    1.364688 A    
C20   N3    1.440118 S    
C8    C12   1.526536 S    
N3    O9    1.301424 A    
O3    Zn1   2.030233 S    
C26   C27   1.402512 A    
C6    H2    1.117078 S    
C17   C22   1.401236 A    
C11   H9    1.114293 S    
N4    O12   1.300549 A    
N5    O14   1.302023 A    
H18   C30   1.077246 S    
O1    C1    1.281039 A    
C13   C14   1.395492 A    
C31   H21   1.099640 S    
C20   C21   1.383508 A    
C23   C24   1.401107 A    
Zn2   O8    2.030235 S    
C32   H24   1.111170 S    
C31   H20   1.108381 S    
C25   H16   1.081821 S    
C5    C31   1.561494 S    
C4    C10   1.469567 S    
C33   H26   1.105042 S    
O3    C2    1.288890 A    
C24   H15   1.084184 S    
O8    C4    1.302455 A    
C7    C9    1.572542 S    
H14   C29   1.081418 S    
C8    H5    1.105058 S    
C19   C20   1.412399 A    
Zn1   N2    2.025751 S    
C26   H17   1.066205 S    
C23   C28   1.439933 A    
C5    C6    1.544256 S    
C27   C28   1.434058 A    
C15   H12   1.082388 S    
C7    C32   1.543669 S    
O1    Zn1   2.016965 S    
O2    Zn2   2.002104 S    
N4    O11   1.301034 A    
O6    C3    1.281328 A    
O4    Zn2   2.025564 S    
H4    C11   1.108538 S    
C10   C12   1.542984 S    
C13   H10   1.073511 S    
C15   C16   1.390892 A    
O2    C1    1.307817 A    
C23   C33   1.506121 S    
C12   H8    1.113834 S    
C3    C22   1.432240 S    
C16   H13   1.074699 S    
C2    C9    1.473824 S    
C24   C25   1.378056 A    
C21   N4    1.433902 S    
C14   C15   1.387147 A    
C31   H19   1.107340 S    
C33   H27   1.106152 S    
N5    O13   1.301307 A    
Zn2   O6    2.016965 S    
C32   H22   1.109189 S    
C8    C9    1.555077 S    
