data_str_m3_o10_o14_f0_pcu.sym.23
_audit_creation_date              2012-12-10T16:50:08-0500
_audit_creation_method            fapswitch 2.2
_symmetry_space_group_name_H-M    P1
_symmetry_Int_Tables_number       1
_space_group_crystal_system       triclinic
_cell_length_a                    7.870623
_cell_length_b                    8.560153
_cell_length_c                    10.702249
_cell_angle_alpha                 94.470662
_cell_angle_beta                  85.500787
_cell_angle_gamma                 92.998531
_cell_volume                      715.866879054

loop_
_atom_site_label
_atom_site_type_symbol
_atom_type_description
_atom_site_fract_x
_atom_site_fract_y
_atom_site_fract_z
_atom_type_partial_charge
C1    C     C_R   0.544318 0.792781 0.488077 1.019858
C2    C     C_R   0.455186 0.205428 0.496493 0.960868
C3    C     C_R   0.498798 0.500957 0.260907 0.800267
C4    C     C_R   0.387302 0.798897 0.907541 -0.095075
C5    C     C_R   0.296603 0.906783 0.989056 -0.144545
C6    C     C_R   0.275953 0.887999 0.116318 -0.183534
C7    C     C_R   0.346274 0.762364 0.163805 -0.172352
C8    C     C_R   0.425415 0.643655 0.082936 0.120447
C9    C     C_2   0.452391 0.857478 0.786896 0.889351
C10   C     C_3   0.927186 0.232580 0.321514 -0.705979
C11   C     C_R   0.439581 0.657186 0.952012 -0.010473
C12   C     C_R   0.510247 0.530046 0.873710 -0.129150
C13   C     C_R   0.581784 0.405678 0.924123 -0.172202
C14   C     C_R   0.578172 0.399461 0.051531 -0.211266
C15   C     C_R   0.497887 0.514765 0.129802 -0.063002
C16   C     C_2   0.568058 0.955417 0.479491 -0.308499
C17   C     C_2   0.431586 0.041147 0.482174 -0.328594
C18   C     C_R   0.503264 0.513864 0.739788 0.898452
H1    H     H_    0.636926 0.310296 0.864254 0.173007
H2    H     H_    0.145497 0.341744 0.371971 0.281821
H3    H     H_    0.995202 0.175456 0.236618 0.188709
H4    H     H_    0.800758 0.260023 0.294482 0.273496
H5    H     H_    0.915702 0.148613 0.395728 0.219813
H6    H     H_    0.987644 0.611641 0.603870 0.189690
H7    H     H_    0.254031 0.013532 0.955773 0.166704
H8    H     H_    0.214243 0.976274 0.179511 0.137961
H9    H     H_    0.338532 0.762773 0.264615 0.163982
H10   H     H_    0.633633 0.301524 0.089407 0.146459
H11   H     H_    0.697329 0.005012 0.481775 0.174992
H12   H     H_    0.301853 0.990853 0.480475 0.186165
H13   H     H_    0.697322 0.810192 0.809441 0.300676
N1    N     N_2   0.950330 0.457950 0.466250 0.008115
N2    N     N_2   0.049670 0.542050 0.533750 -0.148934
N3    N     N_2   0.024482 0.371467 0.363637 -0.201740
O1    O     O_R   0.389250 0.738570 0.508280 -0.606248
O2    O     O_R   0.625752 0.853905 0.746863 -0.801930
O3    O     O_R   0.678390 0.711630 0.486650 -0.611513
O4    O     O_R   0.355400 0.513470 0.694050 -0.602377
O5    O     O_R   0.644540 0.486530 0.672420 -0.612474
O6    O     O_R   0.321610 0.288370 0.513350 -0.642933
O7    O     O_R   0.610750 0.261430 0.491720 -0.618465
O8    O     O_R   0.355460 0.513470 0.327580 -0.662549
O9    O     O_R   0.644600 0.486530 0.305950 -0.617016
O10   O     O_2   0.356401 0.924702 0.727327 -0.595657
Zn1   Zn    Zn3+2 0.306930 0.517990 0.514440 0.967650
Zn2   Zn    Zn3+2 0.693070 0.482010 0.485560 0.978024

loop_
_geom_bond_atom_site_label_1
_geom_bond_atom_site_label_2
_ccdc_geom_bond_type
C9    O2    S    
C11   C12   A    
C3    O8    A    
C14   H10   S    
C6    C7    A    
C10   H5    S    
N2    Zn1   S    
H6    N2    S    
C1    O3    A    
C18   O5    A    
H2    N3    S    
N1    N2    D    
C4    C9    S    
C3    C15   S    
C7    C8    A    
C10   N3    S    
C1    C16   S    
C13   C14   A    
C10   H4    S    
C2    C17   S    
C17   H12   S    
C9    O10   D    
C3    O9    A    
C6    H8    S    
O7    Zn2   S    
O5    Zn2   S    
C5    H7    S    
C8    C15   A    
C8    C11   A    
C10   H3    S    
C18   O4    A    
C5    C6    A    
O9    Zn2   S    
C13   H1    S    
C2    O7    A    
O1    Zn1   S    
C2    O6    A    
C7    H9    S    
O6    Zn1   S    
C1    O1    A    
C16   H11   S    
C12   C18   S    
C14   C15   A    
C4    C5    A    
O4    Zn1   S    
C12   C13   A    
O3    Zn2   S    
H13   O2    S    
N1    Zn2   S    
C16   C17   D    
C4    C11   A    
O8    Zn1   S    
N1    N3    S    
