data_str_m3_o5_o29_f0_pcu.sym.87
_audit_creation_date              2013-03-05T16:48:44-0500
_audit_creation_method            fapswitch 2.2
_symmetry_space_group_name_H-M    P1
_symmetry_Int_Tables_number       1
_space_group_crystal_system       triclinic
_cell_length_a                    27.770735
_cell_length_b                    8.916217
_cell_length_c                    8.097914
_cell_angle_alpha                 90.027057
_cell_angle_beta                  90.000016
_cell_angle_gamma                 89.999919
_cell_volume                      2005.1234482

loop_
_atom_site_label
_atom_site_type_symbol
_atom_site_description
_atom_site_fract_x
_atom_site_fract_y
_atom_site_fract_z
_atom_type_partial_charge
O1    O     O_R   0.500000 0.285350 0.636850 -0.613915
O2    O     O_R   0.500000 0.714650 0.363150 -0.613915
O3    O     O_R   0.500000 0.714650 0.636850 -0.613700
O4    O     O_R   0.500000 0.285350 0.363150 -0.613700
C1    C     C_R   0.500000 0.217994 0.499975 0.946761
C2    C     C_R   0.500000 0.782006 0.500025 0.946761
O5    O     O_R   0.428760 0.500000 0.636860 -0.623823
O6    O     O_R   0.571240 0.500000 0.363140 -0.623819
O7    O     O_R   0.571240 0.500000 0.636860 -0.623819
O8    O     O_R   0.428760 0.500000 0.363140 -0.623822
C3    C     C_R   0.405756 0.500000 0.500000 0.871970
C4    C     C_R   0.594244 0.500000 0.500000 0.871975
Zn1   Zn    Zn3+2 0.500000 0.500000 0.682780 0.996731
Zn2   Zn    Zn3+2 0.500000 0.500000 0.317220 0.996731
C5    C     C_R   0.177793 0.368916 0.529346 0.506500
C6    C     C_R   0.822219 0.631117 0.470772 0.506440
C7    C     C_R   0.177793 0.631091 0.470656 0.506500
C8    C     C_R   0.822219 0.368899 0.529228 0.506439
O9    O     O_2   0.202827 0.241579 0.557056 -0.533989
O10   O     O_2   0.797189 0.758493 0.443231 -0.534076
O11   O     O_2   0.202828 0.758428 0.442945 -0.533989
O12   O     O_2   0.797189 0.241523 0.556769 -0.534075
N1    N     N_R   0.201649 0.500004 0.500000 -0.361047
N2    N     N_R   0.798358 0.500008 0.500000 -0.360969
C9    C     C_R   0.277809 0.495487 0.649847 -0.096700
C10   C     C_R   0.722189 0.506156 0.350228 -0.096498
C11   C     C_R   0.277808 0.504518 0.350153 -0.096700
C12   C     C_R   0.722189 0.493858 0.649772 -0.096497
C13   C     C_R   0.327829 0.495664 0.650087 -0.205245
C14   C     C_R   0.672168 0.505965 0.349987 -0.205414
C15   C     C_R   0.327829 0.504339 0.349913 -0.205244
C16   C     C_R   0.672168 0.494043 0.650013 -0.205414
C17   C     C_R   0.252891 0.500003 0.500000 0.320706
C18   C     C_R   0.747111 0.500008 0.500000 0.320227
C19   C     C_R   0.101808 0.500005 0.500001 -0.050147
C20   C     C_R   0.898203 0.500007 0.500001 -0.050166
C21   C     C_R   0.127435 0.366409 0.529885 -0.021347
C22   C     C_R   0.872577 0.633618 0.470211 -0.021295
C23   C     C_R   0.127435 0.633601 0.470118 -0.021347
C24   C     C_R   0.872577 0.366397 0.529790 -0.021295
C25   C     C_R   0.102490 0.233551 0.559413 -0.137842
C26   C     C_R   0.897523 0.766491 0.440770 -0.137822
C27   C     C_R   0.102490 0.766459 0.440590 -0.137841
C28   C     C_R   0.897522 0.233523 0.559231 -0.137822
C29   C     C_R   0.353161 0.500001 0.500000 -0.040888
C30   C     C_R   0.646837 0.500002 0.500000 -0.040864
H1    H     H_    0.121450 0.129470 0.582770 0.191346
H2    H     H_    0.878562 0.870587 0.417497 0.191331
H3    H     H_    0.121451 0.870539 0.417233 0.191346
H4    H     H_    0.878562 0.129427 0.582503 0.191332
C31   C     C_R   0.974466 0.363896 0.530243 0.048449
C32   C     C_R   0.025546 0.636110 0.469724 0.048443
C33   C     C_R   0.974467 0.636117 0.469759 0.048449
C34   C     C_R   0.025546 0.363902 0.530280 0.048443
C35   C     C_R   0.949282 0.500007 0.500001 0.070416
C36   C     C_R   0.050730 0.500006 0.500001 0.070430
C37   C     C_R   0.947386 0.231903 0.559573 -0.220280
C38   C     C_R   0.052626 0.768083 0.440276 -0.220292
C39   C     C_R   0.947386 0.768110 0.440428 -0.220279
C40   C     C_R   0.052626 0.231928 0.559728 -0.220291
H5    H     H_    0.963281 0.124226 0.583721 0.136566
H6    H     H_    0.036731 0.875742 0.416024 0.136615
H7    H     H_    0.963281 0.875787 0.416280 0.136566
H8    H     H_    0.036731 0.124270 0.583981 0.136615
C41   C     C_1   0.500000 0.065221 0.499964 -0.182723
C42   C     C_1   0.500000 0.934779 0.500035 -0.182723
N3    N     N_1   0.500000 0.500000 0.073640 -0.035340
N4    N     N_1   0.500000 0.500000 0.926360 -0.035340
H9    H     H_    0.346579 0.507716 0.232650 0.164245
H10   H     H_    0.653417 0.489349 0.767214 0.164265
H11   H     H_    0.346579 0.492286 0.767349 0.164245
H12   H     H_    0.653417 0.510657 0.232786 0.164265
H13   H     H_    0.258337 0.507796 0.234288 0.137671
H14   H     H_    0.741656 0.489307 0.765588 0.137931
H15   H     H_    0.258338 0.492209 0.765712 0.137672
H16   H     H_    0.741656 0.510708 0.234412 0.137932

loop_
_geom_bond_atom_site_label_1
_geom_bond_atom_site_label_2
_geom_bond_distance
_ccdc_geom_bond_type
C38   H6    1.074719 S    
C19   C23   1.408617 A    
O3    C2    1.260540 A    
C12   H14   1.083302 S    
C33   C39   1.416793 A    
C34   C40   1.416803 A    
C11   C17   1.397480 A    
O5    C3    1.279224 A    
C7    N1    1.364464 A    
C2    C42   1.362161 S    
O1    C1    1.260392 A    
C19   C21   1.408616 A    
C22   C26   1.393057 A    
C9    C13   1.389108 A    
C7    C23   1.398664 A    
C8    C24   1.398667 A    
C5    C21   1.398664 A    
C20   C24   1.408594 A    
O7    Zn1   2.013028 S    
C27   C38   1.384824 A    
C10   C18   1.397526 A    
N1    C17   1.423009 S    
C10   H16   1.083302 S    
Zn2   N3    1.972490 S    
C31   C37   1.416792 A    
C24   C28   1.393057 A    
O3    Zn1   1.949844 S    
C6    O10   1.350179 S    
C5    N1    1.364464 A    
C12   C18   1.397527 A    
C6    N2    1.364521 A    
O4    Zn2   1.949844 S    
O2    C2    1.260392 A    
C33   C35   1.422035 A    
C23   C27   1.393053 A    
C34   C36   1.422037 A    
C11   C15   1.389106 A    
N3    N4    1.192660 T    
C12   C16   1.389106 A    
C4    C30   1.460555 S    
O8    Zn2   2.013031 S    
C27   H3    1.083694 S    
C16   H10   1.083382 S    
C7    O11   1.350178 S    
C13   C29   1.404858 A    
C9    H15   1.083321 S    
C5    O9    1.350177 S    
O5    Zn1   2.013031 S    
C28   C37   1.384821 A    
O6    C4    1.279217 A    
C25   H1    1.083693 S    
C26   H2    1.083689 S    
C32   C38   1.416803 A    
C1    C41   1.362161 S    
C10   C14   1.389103 A    
C8    N2    1.364522 A    
C3    C29   1.460585 S    
O1    Zn1   1.949500 S    
C32   C33   1.418504 A    
C28   H4    1.083686 S    
O6    Zn2   2.013028 S    
C19   C36   1.418493 A    
C8    O12   1.350181 S    
C16   C30   1.404804 A    
C14   C30   1.404803 A    
C25   C40   1.384824 A    
O4    C1    1.260540 A    
C26   C39   1.384821 A    
C14   H12   1.083381 S    
C37   H5    1.074711 S    
C39   H7    1.074712 S    
C40   H8    1.074721 S    
C31   C34   1.418507 A    
C20   C22   1.408595 A    
C20   C35   1.418501 A    
C31   C35   1.422036 A    
C21   C25   1.393052 A    
O2    Zn2   1.949499 S    
O7    C4    1.279216 A    
N2    C18   1.423150 S    
O8    C3    1.279223 A    
C15   H9    1.083403 S    
C41   C42   1.163050 T    
C15   C29   1.404864 A    
C6    C22   1.398669 A    
C11   H13   1.083327 S    
C32   C36   1.422040 A    
C9    C17   1.397484 A    
C13   H11   1.083405 S    
Zn1   N4    1.972490 S    
