data_str_m2_o16_o16_f0_pcu.sym.225
_audit_creation_date              2012-12-10T17:31:25-0500
_audit_creation_method            fapswitch 2.2
_symmetry_space_group_name_H-M    P1
_symmetry_Int_Tables_number       1
_space_group_crystal_system       triclinic
_cell_length_a                    19.006005
_cell_length_b                    18.417821
_cell_length_c                    12.35587
_cell_angle_alpha                 89.999706
_cell_angle_beta                  129.161844
_cell_angle_gamma                 90.000399
_cell_volume                      3353.58046354

loop_
_atom_site_label
_atom_site_type_symbol
_atom_type_description
_atom_site_fract_x
_atom_site_fract_y
_atom_site_fract_z
_atom_type_partial_charge
C1    C     C_R   0.613515 0.898958 0.654382 0.821452
C2    C     C_R   0.613102 0.101405 0.653799 0.820804
C3    C     C_R   0.113105 0.398597 0.653803 0.820818
C4    C     C_R   0.113515 0.601042 0.654381 0.821453
C5    C     C_R   0.241963 0.779728 0.032720 0.109561
C6    C     C_R   0.240694 0.219081 0.030627 0.108362
C7    C     C_R   0.740684 0.280929 0.030610 0.108339
C8    C     C_R   0.741962 0.720270 0.032719 0.109560
C9    C     C_R   0.657535 0.281934 0.007774 0.062831
C10   C     C_R   0.657879 0.717537 0.006981 0.057882
C11   C     C_R   0.157880 0.782461 0.006980 0.057893
C12   C     C_R   0.157539 0.218066 0.007777 0.062846
C13   C     C_R   0.580810 0.249247 0.889262 -0.184011
C14   C     C_R   0.581173 0.749576 0.887429 -0.178341
C15   C     C_R   0.081174 0.750423 0.887427 -0.178342
C16   C     C_R   0.080814 0.250748 0.889258 -0.184001
C17   C     C_R   0.586587 0.212065 0.797611 -0.159303
C18   C     C_R   0.587610 0.787475 0.797120 -0.145770
C19   C     C_R   0.087611 0.712526 0.797118 -0.145774
C20   C     C_R   0.086594 0.287933 0.797612 -0.159290
C21   C     C_R   0.317200 0.813403 0.153339 -0.335018
C22   C     C_R   0.316183 0.185314 0.150761 -0.343860
C23   C     C_R   0.816175 0.314695 0.150742 -0.343865
C24   C     C_R   0.817199 0.686597 0.153338 -0.335027
C25   C     C_R   0.225764 0.854927 0.215179 0.626124
C26   C     C_R   0.226544 0.146690 0.217524 0.614920
C27   C     C_R   0.726546 0.353304 0.217529 0.614934
C28   C     C_R   0.725764 0.645071 0.215179 0.626155
C29   C     C_R   0.679877 0.158780 0.742023 -0.239295
C30   C     C_R   0.681556 0.842795 0.744633 -0.236283
C31   C     C_R   0.181557 0.657205 0.744635 -0.236288
C32   C     C_R   0.179888 0.341230 0.742041 -0.239301
C33   C     C_R   0.684661 0.998676 0.286352 -0.289383
C34   C     C_R   0.184662 0.501329 0.286354 -0.289380
C35   C     C_R   0.343545 0.002884 0.627293 -0.007642
C36   C     C_R   0.843545 0.497101 0.627298 -0.007421
C37   C     C_R   0.308524 0.006999 0.699051 0.393738
C38   C     C_R   0.808533 0.492987 0.699062 0.393737
C39   C     C_R   0.383511 0.098284 0.341651 0.832588
C40   C     C_R   0.383503 0.901775 0.341668 0.836325
C41   C     C_R   0.883503 0.598224 0.341667 0.836320
C42   C     C_R   0.883511 0.401716 0.341650 0.832598
C43   C     C_R   0.368052 0.003716 0.844735 -0.248233
C44   C     C_R   0.868056 0.496279 0.844743 -0.248437
C45   C     C_R   0.462618 0.000826 0.921127 -0.082024
C46   C     C_R   0.962620 0.499176 0.921130 -0.081975
C47   C     C_R   0.494763 0.999796 0.842823 0.256455
C48   C     C_R   0.994764 0.500208 0.842824 0.256417
C49   C     C_R   0.526420 0.000023 0.071962 -0.003707
C50   C     C_R   0.026422 0.499980 0.071964 -0.003687
C51   C     C_R   0.620517 0.999012 0.140160 0.157547
C52   C     C_R   0.120519 0.500994 0.140162 0.157533
C53   C     C_R   0.650407 0.998627 0.062403 -0.262402
C54   C     C_R   0.150409 0.501381 0.062405 -0.262398
C55   C     C_R   0.589183 0.999059 0.917626 -0.141201
C56   C     C_R   0.089184 0.500947 0.917627 -0.141190
C57   C     C_R   0.501707 0.000384 0.159469 0.005360
C58   C     C_R   0.001708 0.499617 0.159470 0.005355
C59   C     C_R   0.656001 0.999239 0.365702 0.152909
C60   C     C_R   0.156001 0.500764 0.365703 0.152896
C61   C     C_R   0.651560 0.317041 0.102428 -0.253315
C62   C     C_R   0.650913 0.681164 0.099586 -0.253081
C63   C     C_R   0.150913 0.818833 0.099586 -0.253083
C64   C     C_R   0.151560 0.182952 0.102421 -0.253324
C65   C     C_R   0.308724 0.853557 0.240072 -0.174730
C66   C     C_R   0.308693 0.146539 0.239882 -0.166008
C67   C     C_R   0.808691 0.353461 0.239877 -0.166016
C68   C     C_R   0.808724 0.646442 0.240072 -0.174759
C69   C     C_R   0.759091 0.163038 0.755385 0.624544
C70   C     C_R   0.762031 0.840734 0.761352 0.628210
C71   C     C_R   0.262034 0.659263 0.761357 0.628215
C72   C     C_R   0.259110 0.336987 0.755424 0.624556
C73   C     C_R   0.332939 0.704267 0.860664 -0.197223
C74   C     C_R   0.328804 0.290325 0.851978 -0.214091
C75   C     C_R   0.828777 0.209711 0.851922 -0.214183
C76   C     C_R   0.832934 0.795727 0.860654 -0.197228
C77   C     C_R   0.327245 0.744862 0.949485 -0.280408
C78   C     C_R   0.323515 0.250395 0.941833 -0.294393
C79   C     C_R   0.823491 0.249636 0.941784 -0.294454
C80   C     C_R   0.827241 0.755133 0.949476 -0.280420
C81   C     C_R   0.745893 0.245498 0.933777 0.115017
C82   C     C_R   0.748135 0.756892 0.937789 0.116097
C83   C     C_R   0.248137 0.743106 0.937792 0.116098
C84   C     C_R   0.245908 0.254518 0.933804 0.115027
C85   C     C_R   0.670135 0.204888 0.823751 -0.006173
C86   C     C_R   0.671804 0.796244 0.825822 -0.003414
C87   C     C_R   0.171806 0.703755 0.825822 -0.003417
C88   C     C_R   0.170146 0.295120 0.823767 -0.006174
Cu1   Cu    Cu3+1 0.526340 0.000000 0.421010 0.994290
Cu2   Cu    Cu3+1 0.026340 0.500000 0.421010 0.994289
Cu3   Cu    Cu3+1 0.473640 0.000000 0.578990 0.966406
Cu4   Cu    Cu3+1 0.973640 0.500000 0.578990 0.966419
H1    H     H_    0.722415 0.998112 0.114231 0.156872
H2    H     H_    0.222416 0.501896 0.114232 0.156885
H3    H     H_    0.756761 0.998009 0.339082 0.157782
H4    H     H_    0.256762 0.501999 0.339085 0.157793
H5    H     H_    0.431702 0.000750 0.116476 0.132819
H6    H     H_    0.931703 0.499250 0.116476 0.132819
H7    H     H_    0.298173 0.002400 0.514538 0.215296
H8    H     H_    0.798162 0.497570 0.514541 0.215393
H9    H     H_    0.338257 0.005178 0.895470 0.165779
H10   H     H_    0.838259 0.494813 0.895475 0.165777
H11   H     H_    0.619382 0.999309 0.868645 0.204832
H12   H     H_    0.119384 0.500694 0.868646 0.204832
H13   H     H_    0.516011 0.252097 0.867445 0.141320
H14   H     H_    0.515780 0.745429 0.863479 0.145224
H15   H     H_    0.015780 0.754570 0.863476 0.145225
H16   H     H_    0.016013 0.247891 0.867430 0.141307
H17   H     H_    0.588076 0.318153 0.085071 0.162633
H18   H     H_    0.586742 0.678770 0.080013 0.165545
H19   H     H_    0.086742 0.821227 0.080011 0.165531
H20   H     H_    0.088072 0.181834 0.085054 0.162633
H21   H     H_    0.383675 0.810379 0.182019 0.177486
H22   H     H_    0.382130 0.187520 0.177397 0.175358
H23   H     H_    0.882119 0.312493 0.177368 0.175371
H24   H     H_    0.883674 0.689622 0.182018 0.177484
H25   H     H_    0.385372 0.778156 0.024047 0.161995
H26   H     H_    0.380568 0.215627 0.014154 0.160910
H27   H     H_    0.880536 0.284413 0.014091 0.160916
H28   H     H_    0.885366 0.721836 0.024034 0.161996
H29   H     H_    0.394259 0.705956 0.872101 0.157986
H30   H     H_    0.388973 0.286831 0.860529 0.158257
H31   H     H_    0.888938 0.213217 0.860455 0.158261
H32   H     H_    0.894252 0.794036 0.872085 0.157984
H33   H     H_    0.524006 0.190591 0.704473 0.170814
H34   H     H_    0.525061 0.808293 0.702959 0.171983
H35   H     H_    0.025062 0.691708 0.702956 0.171981
H36   H     H_    0.024013 0.309402 0.704468 0.170798
H37   H     H_    0.705427 0.998955 0.478430 0.210095
H38   H     H_    0.205427 0.501047 0.478431 0.210108
N1    N     N_R   0.566260 0.000000 0.302220 -0.198423
N2    N     N_R   0.066260 0.500000 0.302220 -0.198425
N3    N     N_R   0.434410 0.000000 0.697680 -0.238453
N4    N     N_R   0.934410 0.500000 0.697680 -0.238507
O1    O     O_R   0.608610 0.924520 0.551740 -0.516087
O2    O     O_R   0.608610 0.075480 0.551740 -0.516530
O3    O     O_R   0.108610 0.424520 0.551740 -0.516531
O4    O     O_R   0.108610 0.575480 0.551740 -0.516090
O5    O     O_R   0.564110 0.924510 0.685150 -0.620005
O6    O     O_R   0.564110 0.075490 0.685150 -0.620126
O7    O     O_R   0.064110 0.424510 0.685150 -0.620129
O8    O     O_R   0.064110 0.575490 0.685150 -0.620003
O9    O     O_R   0.435880 0.075470 0.314850 -0.602833
O10   O     O_R   0.435880 0.924530 0.314850 -0.600940
O11   O     O_R   0.935880 0.575470 0.314850 -0.600941
O12   O     O_R   0.935880 0.424530 0.314850 -0.602836
O13   O     O_R   0.391380 0.075460 0.448260 -0.541606
O14   O     O_R   0.391380 0.924540 0.448260 -0.533631
O15   O     O_R   0.891380 0.575460 0.448260 -0.533619
O16   O     O_R   0.891380 0.424540 0.448260 -0.541612
F1    F     F_    0.215571 0.894103 0.297537 -0.653085
F2    F     F_    0.217245 0.109019 0.302195 -0.689851
F3    F     F_    0.717253 0.390967 0.302211 -0.689829
F4    F     F_    0.715571 0.605894 0.297537 -0.652966
O17   O     O_3   0.216140 0.010254 0.630443 -0.572364
C89   C     C_3   0.174830 0.066966 0.530877 0.096297
H39   H     H_    0.156255 0.047239 0.430764 0.216691
H40   H     H_    0.219470 0.115727 0.566959 0.151374
C90   C     C_3   0.088411 0.090422 0.504482 -0.748396
H41   H     H_    0.104925 0.111197 0.602616 0.248623
H42   H     H_    0.054596 0.134229 0.424838 0.205314
H43   H     H_    0.041161 0.043700 0.465987 0.256691
O18   O     O_3   0.716151 0.489704 0.630428 -0.572246
C91   C     C_3   0.674980 0.432778 0.531314 0.096079
H44   H     H_    0.719707 0.384045 0.567831 0.151096
H45   H     H_    0.656427 0.452250 0.431080 0.216791
C92   C     C_3   0.588562 0.409387 0.504984 -0.748322
H46   H     H_    0.541222 0.456075 0.466044 0.256716
H47   H     H_    0.554862 0.365403 0.425702 0.205232
H48   H     H_    0.605059 0.388873 0.603252 0.248664
F5    F     F_    0.770845 0.120540 0.678093 -0.659406
F6    F     F_    0.773834 0.884009 0.684956 -0.658305
F7    F     F_    0.273837 0.615988 0.684963 -0.658295
F8    F     F_    0.270864 0.379491 0.678137 -0.659393

loop_
_geom_bond_atom_site_label_1
_geom_bond_atom_site_label_2
_ccdc_geom_bond_type
C27   F3    S    
C83   C87   A    
C26   F2    S    
C80   H28   S    
Cu1   O1    S    
C72   C74   A    
C37   O17   S    
O18   C91   S    
C3    O7    A    
C61   H17   S    
C35   N3    A    
Cu3   O13   S    
C91   H45   S    
C32   C72   A    
C15   C19   A    
C59   N1    A    
C18   C86   A    
C2    C29   S    
C9    C61   A    
C48   N4    A    
C89   H39   S    
C78   H26   S    
C34   H4    S    
C5    C11   A    
Cu2   O11   S    
C77   H25   S    
C6    C12   A    
C12   C64   A    
C64   H20   S    
C41   O15   A    
C77   C83   A    
C23   C67   A    
C6    C22   A    
C55   H11   S    
C49   C57   A    
C41   O11   A    
C48   C56   A    
C25   C63   A    
C15   H15   S    
C70   F6    S    
C22   C66   A    
C9    C13   A    
C27   C61   A    
C30   C70   A    
C11   C15   A    
C12   C16   A    
C44   C46   A    
C49   C51   A    
C79   H27   S    
C50   C52   A    
C90   H42   S    
C3    O3    A    
C72   F8    S    
C30   C86   A    
Cu4   O8    S    
C29   C85   A    
C1    O5    A    
Cu2   N2    S    
C45   C47   A    
C33   C59   A    
Cu1   O2    S    
C47   N3    A    
C34   C60   A    
C92   H47   S    
C60   N2    A    
C10   C62   A    
C35   H7    S    
C33   H3    S    
C21   C65   A    
Cu3   O14   S    
Cu2   O4    S    
C52   C54   A    
C92   H48   S    
C29   C69   A    
C53   C55   A    
C54   C56   A    
C31   C87   A    
C40   O14   A    
C53   H1    S    
C76   H32   S    
C84   C88   A    
C6    C84   A    
C56   H12   S    
C13   H13   S    
C10   C14   A    
C58   N2    A    
C92   H46   S    
C71   C73   A    
C63   H19   S    
C44   H10   S    
C17   C85   A    
C82   C86   A    
C24   C68   A    
C23   H23   S    
C2    O2    A    
C71   F7    S    
C51   C53   A    
C26   C66   A    
C37   C43   A    
C43   H9    S    
C38   C44   A    
C91   H44   S    
Cu2   Cu4   S    
C90   H41   S    
Cu3   N3    S    
C45   C49   A    
C16   C20   A    
C4    O8    A    
C57   H5    S    
C90   H43   S    
C25   C65   A    
C36   H8    S    
Cu4   O7    S    
C43   C45   A    
Cu3   O5    S    
C21   H21   S    
C38   O18   S    
C7    C81   A    
C39   O9    A    
C24   H24   S    
C73   H29   S    
C40   C65   S    
C40   O10   A    
Cu4   O16   S    
C42   C67   S    
C28   F4    S    
C39   C66   S    
C75   H31   S    
Cu1   Cu3   S    
C60   H38   S    
C42   O12   A    
O17   C89   S    
Cu2   O3    S    
C35   C37   A    
C47   C55   A    
C7    C9    A    
C41   C68   S    
C59   H37   S    
C74   H30   S    
C34   C52   A    
C14   C18   A    
C57   N1    A    
C89   C90   S    
Cu4   N4    S    
C76   C80   A    
C28   C68   A    
C36   N4    A    
C5    C83   A    
C20   H36   S    
C26   C64   A    
C58   H6    S    
C33   C51   A    
Cu1   O10   S    
C46   C50   A    
C22   H22   S    
C79   C81   A    
Cu1   N1    S    
C13   C17   A    
C25   F1    S    
C2    O6    A    
C89   H40   S    
C19   C87   A    
Cu2   O12   S    
Cu1   O9    S    
C18   H34   S    
C70   C76   A    
C17   H33   S    
C62   H18   S    
C7    C23   A    
C20   C88   A    
C36   C38   A    
C1    C30   S    
C8    C24   A    
C80   C82   A    
C69   C75   A    
C91   C92   S    
C69   F5    S    
C3    C32   S    
C42   O16   A    
C54   H2    S    
C4    C31   S    
C27   C67   A    
C16   H16   S    
C4    O4    A    
Cu3   O6    S    
C46   C48   A    
C78   C84   A    
C8    C82   A    
C5    C21   A    
C8    C10   A    
C74   C78   A    
C14   H14   S    
C39   O13   A    
Cu4   O15   S    
C73   C77   A    
C19   H35   S    
C1    O1    A    
C11   C63   A    
C75   C79   A    
C81   C85   A    
C50   C58   A    
C28   C62   A    
C31   C71   A    
C32   C88   A    
