data_str_m2_o10_o17_f0_pcu.sym.70
_audit_creation_date              2012-10-26T19:40:09-0400
_audit_creation_method            fapswitch 2.2
_symmetry_space_group_name_H-M    P1
_symmetry_Int_Tables_number       1
_space_group_crystal_system       triclinic
_cell_length_a                    14.991268
_cell_length_b                    8.738295
_cell_length_c                    7.536173
_cell_angle_alpha                 103.21382
_cell_angle_beta                  94.492446
_cell_angle_gamma                 94.173462
_cell_volume                      953.94239084

loop_
_atom_site_label
_atom_site_type_symbol
_atom_type_description
_atom_site_fract_x
_atom_site_fract_y
_atom_site_fract_z
_atom_type_partial_charge
Br1   Br    Br    0.401139 0.924188 0.222194 -0.525932
Br2   Br    Br    0.598854 0.075808 0.777806 -0.525829
C1    C     C_R   0.496476 0.200324 0.454083 0.577782
C2    C     C_R   0.176414 0.355691 0.401591 -0.028354
C3    C     C_R   0.767221 0.512438 0.496058 0.011378
C4    C     C_R   0.232776 0.487516 0.503968 0.011396
C5    C     C_R   0.802166 0.381950 0.392155 -0.135232
C6    C     C_R   0.197838 0.617934 0.608075 -0.135296
C7    C     C_R   0.894741 0.374409 0.391661 0.023859
C8    C     C_R   0.105264 0.625416 0.608726 0.023822
C9    C     C_R   0.953087 0.503020 0.498611 0.027687
C10   C     C_R   0.046917 0.496819 0.501736 0.027685
C11   C     C_R   0.917661 0.637988 0.602300 0.019840
C12   C     C_R   0.503522 0.799675 0.545917 0.577783
C13   C     C_R   0.082342 0.361866 0.397989 0.019842
C14   C     C_R   0.930113 0.240336 0.288465 -0.000223
C15   C     C_R   0.069890 0.759402 0.712137 -0.000251
C16   C     C_3   0.784190 0.791731 0.698089 -0.389994
C17   C     C_3   0.215810 0.208251 0.301820 -0.390072
C18   C     C_3   0.870583 0.100005 0.173223 -0.406936
C19   C     C_3   0.129424 0.899579 0.827752 -0.406839
C20   C     C_3   0.388044 0.386098 0.949767 -0.094163
C21   C     C_3   0.611944 0.613962 0.050264 -0.094179
C22   C     C_R   0.022998 0.236087 0.292652 -0.106202
C23   C     C_R   0.977004 0.763683 0.707855 -0.106216
C24   C     C_2   0.483042 0.033234 0.433298 0.107358
C25   C     C_2   0.516955 0.966764 0.566702 0.107356
C26   C     C_R   0.329316 0.495434 0.501081 0.532648
C27   C     C_R   0.670683 0.504561 0.498920 0.532630
C28   C     C_R   0.823585 0.644237 0.598468 -0.028376
Cu1   Cu    Cu3+1 0.510010 0.517380 0.684380 0.999955
Cu2   Cu    Cu3+1 0.489990 0.482620 0.315620 0.999934
H1    H     H_    0.755551 0.284691 0.314845 0.138673
H2    H     H_    0.200280 0.191127 0.151770 0.129429
H3    H     H_    0.827326 0.047776 0.261315 0.138036
H4    H     H_    0.827936 0.137414 0.066420 0.159683
H5    H     H_    0.910196 0.005762 0.102745 0.115695
H6    H     H_    0.172103 0.861862 0.934300 0.159806
H7    H     H_    0.172650 0.952129 0.739829 0.138036
H8    H     H_    0.089806 0.993672 0.898592 0.115630
H9    H     H_    0.359727 0.306151 0.030325 0.118147
H10   H     H_    0.341164 0.478594 0.948801 0.137375
H11   H     H_    0.392394 0.309398 0.813523 0.146265
H12   H     H_    0.244456 0.715196 0.685402 0.138694
H13   H     H_    0.640265 0.693855 0.969649 0.118180
H14   H     H_    0.607569 0.690716 0.186460 0.146243
H15   H     H_    0.658842 0.521497 0.051333 0.137373
H16   H     H_    0.048240 0.132719 0.211315 0.111524
H17   H     H_    0.951757 0.867001 0.789286 0.111562
H18   H     H_    0.710510 0.788334 0.668982 0.170028
H19   H     H_    0.799573 0.808802 0.848200 0.129450
H20   H     H_    0.812842 0.896301 0.654078 0.136389
H21   H     H_    0.289520 0.211699 0.330623 0.170113
H22   H     H_    0.187284 0.103683 0.345964 0.136409
N1    N     N_2   0.474890 0.456420 0.038520 -0.118921
N2    N     N_2   0.525110 0.543580 0.961480 -0.118921
O1    O     O_R   0.506510 0.286130 0.619770 -0.489124
O2    O     O_R   0.493490 0.713870 0.380230 -0.489143
O3    O     O_R   0.489600 0.256770 0.308360 -0.464625
O4    O     O_R   0.510400 0.743230 0.691640 -0.464617
O5    O     O_R   0.378710 0.514640 0.655720 -0.536160
O6    O     O_R   0.621290 0.485360 0.344280 -0.536136
O7    O     O_R   0.361800 0.485290 0.344300 -0.505998
O8    O     O_R   0.638200 0.514710 0.655700 -0.505957

loop_
_geom_bond_atom_site_label_1
_geom_bond_atom_site_label_2
_ccdc_geom_bond_type
Cu1   O4    S    
C9    C10   A    
C3    C5    A    
Br2   C25   S    
C21   H13   S    
C12   C25   S    
C15   C19   S    
C9    C11   A    
Cu1   O5    S    
Cu2   N1    S    
C20   H11   S    
C19   H7    S    
C10   C13   A    
Cu2   O2    S    
C14   C18   S    
C15   C23   A    
C26   O5    A    
C17   H21   S    
C2    C13   A    
C27   O8    A    
C16   H20   S    
C21   N2    S    
C14   C22   A    
C21   H14   S    
C18   H5    S    
C7    C9    A    
Cu1   O1    S    
C24   C25   D    
C20   H10   S    
C19   H8    S    
C8    C10   A    
C16   C28   S    
C1    O1    A    
C17   H22   S    
C2    C4    A    
C13   C22   A    
C7    C14   A    
C16   H19   S    
Cu1   N2    S    
C3    C27   S    
Br1   C24   S    
C12   O2    A    
C23   H17   S    
N1    N2    D    
C20   H9    S    
C21   H15   S    
C5    H1    S    
C8    C15   A    
Cu2   O6    S    
C22   H16   S    
C26   O7    A    
C6    H12   S    
C11   C28   A    
C12   O4    A    
C16   H18   S    
C6    C8    A    
C3    C28   A    
C5    C7    A    
C27   O6    A    
C4    C6    A    
C20   N1    S    
Cu2   O3    S    
C2    C17   S    
Cu1   O8    S    
C18   H3    S    
C1    C24   S    
C4    C26   S    
C19   H6    S    
Cu1   Cu2   S    
Cu2   O7    S    
C1    O3    A    
C11   C23   A    
C17   H2    S    
C18   H4    S    
