data_str_m2_o10_o14_f0_pcu.sym.142
_audit_creation_date              2012-12-10T16:43:23-0500
_audit_creation_method            fapswitch 2.2
_symmetry_space_group_name_H-M    P1
_symmetry_Int_Tables_number       1
_space_group_crystal_system       triclinic
_cell_length_a                    10.806771
_cell_length_b                    8.662844
_cell_length_c                    7.442222
_cell_angle_alpha                 103.192514
_cell_angle_beta                  94.082302
_cell_angle_gamma                 91.049062
_cell_volume                      676.184372981

loop_
_atom_site_label
_atom_site_type_symbol
_atom_type_description
_atom_site_fract_x
_atom_site_fract_y
_atom_site_fract_z
_atom_type_partial_charge
C1    C     C_R   0.498058 0.199648 0.453050 0.891395
C2    C     C_R   0.067248 0.662970 0.624166 0.078262
C3    C     C_R   0.128768 0.532610 0.512153 -0.094704
C4    C     C_R   0.059238 0.407866 0.392335 -0.193121
C5    C     C_R   0.931665 0.402925 0.383952 -0.204831
C6    C     C_R   0.870030 0.521820 0.496952 -0.077568
C7    C     C_2   0.499708 0.031565 0.426376 -0.370281
C8    C     C_2   0.518691 0.968200 0.571887 -0.376298
C9    C     C_R   0.263220 0.516880 0.505680 0.804873
C10   C     C_R   0.512534 0.799906 0.546090 0.853341
C11   C     C_R   0.737137 0.502516 0.497667 0.778739
C12   C     C_R   0.127291 0.804883 0.738516 0.144375
C13   C     C_R   0.058084 0.921110 0.847499 -0.108715
C14   C     C_R   0.930382 0.908552 0.836760 -0.190742
C15   C     C_R   0.869242 0.779604 0.718057 -0.175741
C16   C     C_R   0.935109 0.653877 0.614729 0.068213
Cu1   Cu    Cu3+1 0.513920 0.517380 0.684380 0.937309
Cu2   Cu    Cu3+1 0.486080 0.482620 0.315620 0.946154
H1    H     H_    0.104561 0.310440 0.306056 0.147554
H2    H     H_    0.596686 0.620748 0.051766 0.228573
H3    H     H_    0.103117 0.026586 0.937021 0.133323
H4    H     H_    0.878139 0.002056 0.916598 0.144076
H5    H     H_    0.769269 0.782096 0.706844 0.152275
H6    H     H_    0.880753 0.302528 0.293354 0.144816
H7    H     H_    0.483833 0.959608 0.285953 0.177526
H8    H     H_    0.534752 0.040184 0.712253 0.181137
H9    H     H_    0.403276 0.379318 0.948220 0.227279
N1    N     N_2   0.465100 0.456430 0.038520 -0.217459
N2    N     N_2   0.534900 0.543570 0.961480 -0.220414
O1    O     O_R   0.509050 0.286130 0.619770 -0.579180
O2    O     O_R   0.485540 0.256780 0.308360 -0.587959
O3    O     O_R   0.331410 0.514680 0.655740 -0.587671
O4    O     O_R   0.307900 0.485330 0.344330 -0.577155
O5    O     O_R   0.514460 0.743220 0.691640 -0.602218
O6    O     O_R   0.490950 0.713870 0.380230 -0.581856
O7    O     O_R   0.692100 0.514670 0.655670 -0.581570
O8    O     O_R   0.668590 0.485320 0.344260 -0.586952
C17   C     C_3   0.260987 0.847680 0.738401 -0.829247
H10   H     H_    0.282687 0.975968 0.797789 0.210027
H11   H     H_    0.315747 0.782194 0.825820 0.273175
H12   H     H_    0.284224 0.825164 0.592883 0.221264

loop_
_geom_bond_atom_site_label_1
_geom_bond_atom_site_label_2
_ccdc_geom_bond_type
C9    O4    A    
Cu2   N1    S    
C10   O6    A    
C3    C9    S    
Cu1   O7    S    
C8    H8    S    
Cu2   O6    S    
C7    H7    S    
C2    C12   A    
C14   H4    S    
C15   H5    S    
Cu1   Cu2   S    
C13   H3    S    
C7    C8    D    
C10   O5    A    
C13   C14   A    
C17   H11   S    
Cu1   O1    S    
C5    C6    A    
C5    H6    S    
C1    O1    A    
Cu2   O8    S    
C2    C3    A    
H2    N2    S    
C12   C17   S    
C17   H10   S    
Cu2   O4    S    
Cu1   O5    S    
C6    C16   A    
C3    C4    A    
Cu1   N2    S    
C1    O2    A    
C2    C16   A    
C12   C13   A    
C17   H12   S    
C8    C10   S    
C6    C11   S    
C11   O8    A    
Cu1   O3    S    
C14   C15   A    
N1    N2    D    
Cu2   O2    S    
C9    O3    A    
C1    C7    S    
C4    H1    S    
C15   C16   A    
C4    C5    A    
H9    N1    S    
C11   O7    A    
