data_str_m2_o10_o13_f0_pcu.sym.212
_audit_creation_date              2012-12-10T16:43:00-0500
_audit_creation_method            fapswitch 2.2
_symmetry_space_group_name_H-M    P1
_symmetry_Int_Tables_number       1
_space_group_crystal_system       triclinic
_cell_length_a                    7.448529
_cell_length_b                    8.659228
_cell_length_c                    12.96863
_cell_angle_alpha                 88.612237
_cell_angle_beta                  80.102552
_cell_angle_gamma                 102.667546
_cell_volume                      802.28139515

loop_
_atom_site_label
_atom_site_type_symbol
_atom_type_description
_atom_site_fract_x
_atom_site_fract_y
_atom_site_fract_z
_atom_type_partial_charge
C1    C     C_R   0.453006 0.199809 0.502945 0.887580
C2    C     C_R   0.546999 0.800193 0.497051 0.887452
C3    C     C_R   0.468336 0.496577 0.700558 0.802499
C4    C     C_R   0.531662 0.503428 0.299443 0.802542
C5    C     C_R   0.546822 0.515687 0.187088 -0.076775
C6    C     C_R   0.453158 0.484342 0.812917 -0.076785
C7    C     C_R   0.312737 0.331022 0.975114 -0.206357
C8    C     C_R   0.687183 0.669050 0.024900 -0.206314
C9    C     C_R   0.321920 0.356871 0.868761 -0.230991
C10   C     C_R   0.677994 0.643216 0.131247 -0.231002
C11   C     C_R   0.575176 0.591308 0.863218 -0.078230
C12   C     C_R   0.424826 0.408688 0.136789 -0.078139
C13   C     C_R   0.566362 0.565878 0.971719 0.117181
C14   C     C_R   0.433570 0.434170 0.028296 0.117178
C15   C     C_2   0.426550 0.032097 0.503560 -0.395399
C16   C     C_2   0.573472 0.967907 0.496434 -0.395403
Cu1   Cu    Cu3+1 0.686350 0.517570 0.488220 0.939231
Cu2   Cu    Cu3+1 0.313650 0.482430 0.511780 0.939206
H1    H     H_    0.770345 0.726166 0.170907 0.151120
H2    H     H_    0.229543 0.273949 0.829103 0.151113
H3    H     H_    0.211168 0.228697 0.014560 0.155851
H4    H     H_    0.788743 0.771388 0.985449 0.155898
H5    H     H_    0.934664 0.377553 0.582475 0.217032
H6    H     H_    0.065336 0.622450 0.417527 0.217002
H7    H     H_    0.284892 0.961123 0.509285 0.184833
H8    H     H_    0.715137 0.038878 0.490702 0.184833
N1    N     N_2   0.033570 0.455950 0.529530 -0.215171
N2    N     N_2   0.966430 0.544050 0.470470 -0.215204
O1    O     O_R   0.621060 0.286250 0.492350 -0.588453
O2    O     O_R   0.378940 0.713750 0.507650 -0.588509
O3    O     O_R   0.306310 0.256580 0.512240 -0.589650
O4    O     O_R   0.693690 0.743420 0.487760 -0.589624
O5    O     O_R   0.631800 0.512400 0.642670 -0.579450
O6    O     O_R   0.368200 0.487600 0.357330 -0.579435
O7    O     O_R   0.317060 0.482730 0.662570 -0.595815
O8    O     O_R   0.682940 0.517270 0.337430 -0.595769
C17   C     C_R   0.296058 0.267274 0.196776 0.098699
C18   C     C_R   0.366040 0.137052 0.224154 -0.143700
C19   C     C_R   0.244147 0.000735 0.276197 -0.136136
C20   C     C_R   0.052415 0.994233 0.301677 -0.136066
C21   C     C_R   0.982171 0.124400 0.275910 -0.135953
C22   C     C_R   0.103579 0.260966 0.223819 -0.105657
H9    H     H_    0.514264 0.140556 0.203990 0.115931
H10   H     H_    0.298173 0.899839 0.296318 0.128859
H11   H     H_    0.958480 0.887942 0.340750 0.150575
H12   H     H_    0.833600 0.119051 0.295353 0.131237
H13   H     H_    0.047858 0.360752 0.203291 0.133080
C23   C     C_R   0.704264 0.732496 0.803209 0.098708
C24   C     C_R   0.896614 0.738333 0.776179 -0.105393
C25   C     C_R   0.018392 0.874715 0.724154 -0.135967
C26   C     C_R   0.948666 0.005176 0.698451 -0.136361
C27   C     C_R   0.757065 0.999138 0.723892 -0.136026
C28   C     C_R   0.634790 0.863000 0.775881 -0.143842
H14   H     H_    0.951933 0.638321 0.796680 0.133101
H15   H     H_    0.166884 0.879709 0.704747 0.131423
H16   H     H_    0.042901 0.111337 0.659454 0.150655
H17   H     H_    0.703448 0.100262 0.703813 0.128782
H18   H     H_    0.486681 0.859869 0.796052 0.115977

loop_
_geom_bond_atom_site_label_1
_geom_bond_atom_site_label_2
_ccdc_geom_bond_type
C8    H4    S    
C21   H12   S    
C4    O8    A    
C8    C13   A    
C1    C15   S    
Cu1   O8    S    
H5    N1    S    
C7    C14   A    
C2    C16   S    
Cu2   O7    S    
C9    H2    S    
C25   H15   S    
C3    O7    A    
C10   H1    S    
C28   H18   S    
C3    C6    S    
C20   H11   S    
C6    C9    A    
C1    O1    A    
Cu1   Cu2   S    
C18   H9    S    
C13   C14   A    
C11   C13   A    
C6    C11   A    
C11   C23   S    
C17   C18   A    
Cu1   O5    S    
Cu2   O2    S    
C5    C10   A    
C23   C24   A    
C12   C14   A    
C26   H16   S    
C22   H13   S    
Cu2   O6    S    
C1    O3    A    
C16   H8    S    
C23   C28   A    
C26   C27   A    
C4    O6    A    
C15   H7    S    
C27   H17   S    
C3    O5    A    
C19   H10   S    
C15   C16   D    
C19   C20   A    
H6    N2    S    
C17   C22   A    
Cu1   O1    S    
C27   C28   A    
C5    C12   A    
C2    O4    A    
C24   C25   A    
C21   C22   A    
C12   C17   S    
C7    C9    A    
Cu1   O4    S    
C20   C21   A    
C2    O2    A    
Cu2   O3    S    
C25   C26   A    
C7    H3    S    
Cu1   N2    S    
C8    C10   A    
Cu2   N1    S    
C24   H14   S    
C4    C5    S    
N1    N2    D    
C18   C19   A    
