data_str_m3_o10_o29_f0_pcu.sym.212
_audit_creation_date              2012-12-10T16:59:17-0500
_audit_creation_method            fapswitch 2.2
_symmetry_space_group_name_H-M    P1
_symmetry_Int_Tables_number       1
_space_group_crystal_system       triclinic
_cell_length_a                    7.832831
_cell_length_b                    8.537416
_cell_length_c                    27.719337
_cell_angle_alpha                 92.563031
_cell_angle_beta                  84.959866
_cell_angle_gamma                 93.503935
_cell_volume                      1841.58827781

loop_
_atom_site_label
_atom_site_type_symbol
_atom_type_description
_atom_site_fract_x
_atom_site_fract_y
_atom_site_fract_z
_atom_type_partial_charge
C1    C     C_R   0.545350 0.794415 0.498782 0.968736
C2    C     C_R   0.454650 0.205585 0.501218 0.968730
C3    C     C_R   0.504525 0.500578 0.897961 -0.049134
C4    C     C_R   0.495455 0.499363 0.102040 -0.049134
C5    C     C_R   0.544460 0.640861 0.873414 -0.022886
C6    C     C_R   0.455534 0.359078 0.126586 -0.022886
C7    C     C_R   0.582551 0.779888 0.899535 -0.143423
C8    C     C_R   0.417454 0.220049 0.100465 -0.143424
C9    C     C_R   0.466508 0.360651 0.871141 -0.022510
C10   C     C_R   0.533457 0.639294 0.128860 -0.022509
C11   C     C_R   0.502702 0.500729 0.646480 -0.038527
C12   C     C_R   0.497292 0.499250 0.353520 -0.038534
C13   C     C_R   0.538527 0.642501 0.026765 0.047729
C14   C     C_R   0.461448 0.357441 0.973236 0.047727
C15   C     C_R   0.458976 0.357168 0.024441 0.048284
C16   C     C_R   0.541009 0.642773 0.975559 0.048282
C17   C     C_R   0.497608 0.499686 0.050845 0.072188
C18   C     C_R   0.502372 0.500255 0.949156 0.072188
C19   C     C_R   0.575757 0.780715 0.055040 -0.227705
C20   C     C_R   0.424201 0.219230 0.944961 -0.227706
C21   C     C_R   0.573086 0.778732 0.105012 -0.137251
C22   C     C_R   0.426867 0.221214 0.894989 -0.137250
C23   C     C_R   0.500851 0.500224 0.593835 0.871258
C24   C     C_R   0.499148 0.499772 0.406165 0.871254
C25   C     C_R   0.581081 0.781230 0.949535 -0.225477
C26   C     C_R   0.418920 0.218707 0.050465 -0.225474
C27   C     C_2   0.569331 0.957920 0.498090 -0.353258
C28   C     C_2   0.430669 0.042080 0.501910 -0.353258
C29   C     C_R   0.544941 0.638657 0.822938 0.507449
C30   C     C_R   0.455056 0.361282 0.177063 0.507449
C31   C     C_R   0.468596 0.363725 0.820718 0.509311
C32   C     C_R   0.531366 0.636220 0.179283 0.509313
C33   C     C_R   0.351611 0.517994 0.726295 -0.098454
C34   C     C_R   0.648330 0.481767 0.273703 -0.098464
C35   C     C_R   0.349739 0.517486 0.676259 -0.193572
C36   C     C_R   0.650209 0.482296 0.323739 -0.193584
C37   C     C_R   0.657295 0.484629 0.667455 -0.186819
C38   C     C_R   0.342737 0.515523 0.332547 -0.186815
C39   C     C_R   0.658690 0.485615 0.717524 -0.097196
C40   C     C_R   0.341336 0.514525 0.282478 -0.097208
C41   C     C_R   0.505931 0.502129 0.746778 0.321546
C42   C     C_R   0.494050 0.497815 0.253222 0.321541
H1    H     H_    0.776810 0.471013 0.645318 0.178254
H2    H     H_    0.223258 0.529290 0.354686 0.178248
H3    H     H_    0.777884 0.473036 0.733659 0.137209
H4    H     H_    0.222175 0.527245 0.266345 0.137220
H5    H     H_    0.614046 0.889060 0.881400 0.191489
H6    H     H_    0.385972 0.110874 0.118600 0.191482
H7    H     H_    0.771037 0.469559 0.338990 0.174939
H8    H     H_    0.228878 0.530079 0.661007 0.174908
H9    H     H_    0.766346 0.469021 0.250780 0.138441
H10   H     H_    0.233560 0.530589 0.749217 0.138429
H11   H     H_    0.602895 0.887691 0.124919 0.197093
H12   H     H_    0.397047 0.112257 0.875083 0.197096
H13   H     H_    0.608193 0.893664 0.040031 0.142133
H14   H     H_    0.391752 0.106283 0.959970 0.142139
H15   H     H_    0.612494 0.893920 0.966378 0.140344
H16   H     H_    0.387521 0.106015 0.033622 0.140338
H17   H     H_    0.700541 0.008440 0.494456 0.203317
H18   H     H_    0.299459 0.991560 0.505544 0.203317
N1    N     N_R   0.507068 0.501441 0.797989 -0.362177
N2    N     N_R   0.492913 0.498501 0.202012 -0.362181
N3    N     N_2   0.950320 0.457960 0.486880 0.019836
N4    N     N_2   0.049680 0.542040 0.513120 0.019832
O1    O     O_R   0.389250 0.738570 0.503220 -0.605624
O2    O     O_R   0.610750 0.261430 0.496780 -0.605625
O3    O     O_R   0.678390 0.711630 0.494810 -0.604112
O4    O     O_R   0.321610 0.288370 0.505190 -0.604115
O5    O     O_R   0.355440 0.513440 0.575450 -0.614541
O6    O     O_R   0.644560 0.486560 0.424550 -0.614544
O7    O     O_R   0.644590 0.486500 0.567040 -0.611189
O8    O     O_R   0.355410 0.513500 0.432960 -0.611187
O9    O     O_2   0.582204 0.772208 0.798881 -0.528691
O10   O     O_2   0.417807 0.227729 0.201119 -0.528686
O11   O     O_2   0.567421 0.769353 0.205511 -0.526698
O12   O     O_2   0.432528 0.230594 0.794490 -0.526703
Zn1   Zn    Zn3+2 0.306940 0.517990 0.505620 1.029463
Zn2   Zn    Zn3+2 0.693060 0.482010 0.494380 1.029462
I1    I     I_    0.037413 0.284744 0.437550 -0.249711
I2    I     I_    0.962590 0.715265 0.562447 -0.249732

loop_
_geom_bond_atom_site_label_1
_geom_bond_atom_site_label_2
_ccdc_geom_bond_type
C21   H11   S    
O6    Zn2   S    
C8    C26   A    
N4    Zn1   S    
C31   N1    A    
O5    Zn1   S    
C34   C42   A    
C41   N1    S    
C20   H14   S    
C32   O11   S    
C24   O6    A    
C39   C41   A    
N3    I1    S    
C33   H10   S    
C40   H4    S    
C34   H9    S    
C19   C21   A    
C2    O4    A    
C30   O10   S    
C9    C22   A    
C29   O9    S    
C16   C25   A    
C3    C18   A    
C11   C37   A    
C14   C18   A    
C1    O3    A    
C1    O1    A    
C12   C36   A    
C42   N2    S    
C39   H3    S    
C40   C42   A    
N4    I2    S    
O3    Zn2   S    
C25   H15   S    
C5    C29   A    
C28   H18   S    
C10   C21   A    
O2    Zn2   S    
C29   N1    A    
O1    Zn1   S    
C13   C19   A    
C14   C20   A    
C4    C6    A    
C5    C7    A    
C15   C26   A    
C6    C8    A    
C3    C5    A    
C23   O5    A    
C7    H5    S    
C37   H1    S    
C8    H6    S    
C38   H2    S    
O8    Zn1   S    
C3    C9    A    
C23   O7    A    
C35   H8    S    
C26   H16   S    
C4    C17   A    
C6    C30   A    
C20   C22   A    
C22   H12   S    
C30   N2    A    
C4    C10   A    
C24   O8    A    
C19   H13   S    
O4    Zn1   S    
C15   C17   A    
C2    O2    A    
C12   C24   S    
C7    C25   A    
C13   C17   A    
C33   C41   A    
C11   C35   A    
C32   N2    A    
C37   C39   A    
C27   H17   S    
C38   C40   A    
C31   O12   S    
C11   C23   S    
C33   C35   A    
C34   C36   A    
C12   C38   A    
C9    C31   A    
N3    N4    D    
C10   C32   A    
C16   C18   A    
C13   C16   A    
C27   C28   D    
C1    C27   S    
C14   C15   A    
C2    C28   S    
O7    Zn2   S    
C36   H7    S    
N3    Zn2   S    
