data_str_m9_o11_o17_f0_sra.sym.20
_audit_creation_date              2012-12-11T14:19:27-0500
_audit_creation_method            fapswitch 2.2
_symmetry_space_group_name_H-M    P1
_symmetry_Int_Tables_number       1
_space_group_crystal_system       triclinic
_cell_length_a                    19.475542
_cell_length_b                    7.246318
_cell_length_c                    17.717824
_cell_angle_alpha                 90.019115
_cell_angle_beta                  107.467716
_cell_angle_gamma                 90.000174
_cell_volume                      2385.14002497

loop_
_atom_site_label
_atom_site_type_symbol
_atom_type_description
_atom_site_fract_x
_atom_site_fract_y
_atom_site_fract_z
_atom_type_partial_charge
O1    O     O_R   0.414820 0.494320 0.416790 -0.538365
O2    O     O_R   0.585180 0.994320 0.583210 -0.538694
O3    O     O_R   0.560270 0.819500 0.430140 -0.541591
O4    O     O_R   0.439730 0.319500 0.569860 -0.541570
C1    C     C_R   0.580925 0.654857 0.414891 0.865216
C2    C     C_R   0.419134 0.154860 0.585181 0.862816
O5    O     O_R   0.413840 0.823740 0.407440 -0.522713
O6    O     O_R   0.586160 0.323740 0.592560 -0.522521
O7    O     O_R   0.437710 0.998590 0.560350 -0.537136
O8    O     O_R   0.562290 0.498590 0.439650 -0.535881
C3    C     C_R   0.386985 0.656015 0.386304 0.714582
C4    C     C_R   0.613038 0.156044 0.613642 0.714819
O9    O     O_3   0.508000 0.662290 0.550200 -0.380573
O10   O     O_3   0.492000 0.162290 0.449800 -0.379839
V1    V     V_3+5 0.498520 0.935380 0.490690 1.593028
V2    V     V_3+5 0.501480 0.435380 0.509310 1.593827
C5    C     C_2   0.786964 0.263776 0.784351 0.279240
C6    C     C_2   0.213043 0.763804 0.215634 0.279536
C7    C     C_2   0.812661 0.112142 0.828748 0.258014
C8    C     C_2   0.187417 0.612335 0.171036 0.256622
C9    C     C_2   0.710089 0.270114 0.733529 -0.084594
C10   C     C_2   0.289923 0.770327 0.266443 -0.085862
C11   C     C_2   0.686191 0.147990 0.672541 0.264363
C12   C     C_2   0.313881 0.647885 0.327263 0.264205
C13   C     C_R   0.293922 0.157039 0.597150 -0.083087
C14   C     C_R   0.706237 0.652418 0.403149 -0.085155
C15   C     C_R   0.369124 0.142925 0.633846 -0.142235
C16   C     C_R   0.630924 0.642911 0.366239 -0.141027
C17   C     C_R   0.395875 0.110573 0.716182 -0.087373
C18   C     C_R   0.604023 0.615884 0.283525 -0.087166
C19   C     C_R   0.348868 0.131538 0.763436 0.004432
C20   C     C_R   0.651290 0.638401 0.236692 0.003539
C21   C     C_R   0.273110 0.132085 0.726450 -0.001711
C22   C     C_R   0.726980 0.632795 0.273703 -0.000892
C23   C     C_R   0.245192 0.128308 0.642572 -0.017441
C24   C     C_R   0.754715 0.623008 0.357475 -0.017503
C25   C     C_R   0.375748 0.153095 0.846716 0.310428
C26   C     C_R   0.624745 0.667289 0.153841 0.309742
C27   C     C_R   0.328032 0.157716 0.892103 -0.210761
C28   C     C_R   0.672555 0.672373 0.108564 -0.210833
C29   C     C_R   0.253214 0.148941 0.857364 0.053066
C30   C     C_R   0.747223 0.656572 0.143168 0.052334
C31   C     C_R   0.225481 0.132896 0.773692 0.024313
C32   C     C_R   0.774662 0.633576 0.226547 0.024950
C33   C     C_R   0.150326 0.114601 0.737721 0.059531
C34   C     C_R   0.849518 0.608249 0.262266 0.060370
C35   C     C_R   0.122464 0.097677 0.654400 -0.046485
C36   C     C_R   0.877058 0.585022 0.345340 -0.050524
C37   C     C_R   0.169781 0.097301 0.607174 -0.106742
C38   C     C_R   0.829693 0.585658 0.392536 -0.109933
C39   C     C_R   0.205573 0.151619 0.904610 -0.034122
C40   C     C_R   0.794943 0.659121 0.096024 -0.034116
C41   C     C_R   0.131592 0.120976 0.868405 -0.142316
C42   C     C_R   0.868468 0.621223 0.131736 -0.142624
C43   C     C_R   0.104921 0.101862 0.786475 -0.157198
C44   C     C_R   0.894780 0.595147 0.213347 -0.157889
H1    H     H_    0.350919 0.165327 0.955549 0.176009
H2    H     H_    0.649833 0.685880 0.045286 0.175704
H3    H     H_    0.047835 0.076645 0.761741 0.157508
H4    H     H_    0.951485 0.564594 0.237717 0.158293
O11   O     O_R   0.937810 0.773680 0.060480 -0.529929
O12   O     O_R   0.062190 0.273680 0.939520 -0.529861
O13   O     O_R   0.086190 0.439740 0.092580 -0.550214
O14   O     O_R   0.913810 0.939740 0.907420 -0.550502
C45   C     C_R   0.113799 0.607827 0.112655 0.654545
C46   C     C_R   0.886219 0.107783 0.887289 0.655429
O15   O     O_R   0.939760 0.444210 0.069890 -0.541392
O16   O     O_R   0.060240 0.944210 0.930110 -0.541879
O17   O     O_R   0.914790 0.269640 0.916760 -0.515041
O18   O     O_R   0.085210 0.769640 0.083240 -0.515429
C47   C     C_R   0.919410 0.612567 0.084643 0.679492
C48   C     C_R   0.080593 0.112526 0.915386 0.678764
O19   O     O_3   0.992050 0.601530 0.949880 -0.368957
O20   O     O_3   0.007950 0.101530 0.050120 -0.368873
V3    V     V_3+5 0.001480 0.328340 0.009300 1.520606
V4    V     V_3+5 0.998520 0.828340 0.990700 1.519649
O21   O     O_3   0.830820 0.415919 0.788389 -0.641930
H5    H     H_    0.803674 0.509078 0.749937 0.307185
O22   O     O_3   0.169063 0.915568 0.211892 -0.641883
H6    H     H_    0.196161 0.008628 0.250463 0.307285
C49   C     C_2   0.043807 0.073183 0.615791 0.462968
H7    H     H_    0.024310 0.958002 0.575936 0.106721
O23   O     O_2   0.000727 0.186046 0.625646 -0.503155
C50   C     C_2   0.955320 0.553013 0.383633 0.464800
H8    H     H_    0.973211 0.434683 0.422054 0.113749
O24   O     O_2   0.999927 0.663089 0.375210 -0.505466
C51   C     C_2   0.141016 0.042887 0.522379 0.372378
H9    H     H_    0.169948 0.942507 0.498041 0.100598
O25   O     O_2   0.086570 0.113455 0.478745 -0.508187
C52   C     C_2   0.857636 0.525806 0.476700 0.374325
H10   H     H_    0.827242 0.427107 0.499950 0.097452
O26   O     O_2   0.913075 0.590169 0.521083 -0.502135
O27   O     O_3   0.766746 0.962717 0.822448 -0.614310
H11   H     H_    0.790637 0.866389 0.860916 0.309457
O28   O     O_3   0.233437 0.463294 0.176945 -0.614071
H12   H     H_    0.209632 0.367469 0.138124 0.310484
C53   C     C_2   0.664911 0.413782 0.755650 0.399993
H13   H     H_    0.690824 0.532147 0.790164 0.074799
O29   O     O_2   0.599836 0.397812 0.740466 -0.482257
C54   C     C_2   0.334967 0.914679 0.244570 0.399665
H14   H     H_    0.308941 0.033116 0.210240 0.077323
O30   O     O_2   0.400056 0.899236 0.259736 -0.481798
O31   O     O_3   0.735061 0.019773 0.661398 -0.617787
H15   H     H_    0.713904 0.956061 0.610294 0.306910
O32   O     O_3   0.265067 0.519180 0.338107 -0.617058
H16   H     H_    0.286160 0.455549 0.389199 0.308043
C55   C     C_2   0.267122 0.214679 0.512763 0.274752
H17   H     H_    0.224814 0.317494 0.494766 0.107699
O33   O     O_2   0.289775 0.143042 0.462530 -0.542073
C56   C     C_2   0.733617 0.707063 0.487936 0.274986
H18   H     H_    0.777447 0.805567 0.506677 0.107490
O34   O     O_2   0.709654 0.637935 0.537647 -0.541883
C57   C     C_2   0.469951 0.035126 0.751904 0.494003
H19   H     H_    0.480403 0.942146 0.802081 0.094721
O35   O     O_2   0.519656 0.073053 0.726177 -0.515739
C58   C     C_2   0.529569 0.543571 0.246677 0.493295
H20   H     H_    0.518356 0.457552 0.194236 0.097011
O36   O     O_2   0.480428 0.575407 0.274131 -0.517032
O37   O     O_3   0.448534 0.181521 0.882722 -0.639722
H21   H     H_    0.458153 0.196936 0.940589 0.305932
O38   O     O_3   0.552359 0.702583 0.118400 -0.640188
H22   H     H_    0.542966 0.722712 0.060826 0.305725
C59   C     C_2   0.231126 0.184550 0.991561 0.358269
H23   H     H_    0.209170 0.104138 0.030598 0.027907
O39   O     O_2   0.273468 0.308667 0.019726 -0.516826
C60   C     C_2   0.769849 0.698676 0.009607 0.362242
H24   H     H_    0.790509 0.618482 0.969414 0.025986
O40   O     O_2   0.729433 0.827666 0.983289 -0.517076

loop_
_geom_bond_atom_site_label_1
_geom_bond_atom_site_label_2
_ccdc_geom_bond_type
C18   C20   A    
C51   H9    S    
O13   C45   A    
C60   H24   S    
C43   H3    S    
C15   C17   A    
C39   C59   S    
C37   C51   S    
O28   H12   S    
O1    C3    A    
O2    C4    A    
C2    O7    A    
C53   H13   S    
O3    V1    S    
C59   H23   S    
C27   C29   A    
C18   C58   S    
O21   H5    S    
O5    C3    A    
C4    C11   S    
O27   H11   S    
C50   O24   D    
C59   O39   D    
C46   O17   A    
C45   O18   A    
C27   H1    S    
C3    C12   S    
C58   H20   S    
C7    C46   S    
C33   C35   A    
C56   H18   S    
C49   O23   D    
C38   C52   S    
C11   O31   S    
C42   C47   S    
C40   C42   A    
C6    O22   S    
C23   C37   A    
C55   H17   S    
C19   C21   A    
C20   C26   A    
C14   C56   S    
C6    C8    D    
C7    O27   S    
O16   C48   A    
O11   C47   A    
C36   C38   A    
O6    V2    S    
C29   C31   A    
C30   C32   A    
C54   O30   D    
C53   O29   D    
C32   C34   A    
C49   H7    S    
C34   C36   A    
C41   C43   A    
O11   V4    S    
C42   C44   A    
C28   H2    S    
O20   V3    S    
C21   C31   A    
C8    C45   S    
C22   C32   A    
C50   H8    S    
C35   C37   A    
C40   C60   S    
C5    C7    D    
O5    V1    S    
C5    C9    S    
C26   O38   S    
C36   C50   S    
C39   C41   A    
C20   C22   A    
O4    V2    S    
C1    C16   S    
C9    C53   S    
C52   O26   D    
C2    C15   S    
C25   O37   S    
O6    C4    A    
C5    O21   S    
O14   V4    S    
O12   C48   A    
O1    V2    S    
O2    V1    S    
C31   C33   A    
O14   C46   A    
O38   H22   S    
C13   C23   A    
C14   C24   A    
C8    O28   S    
C9    C11   D    
O18   V4    S    
C13   C15   A    
O19   V4    S    
C10   C12   D    
O12   V3    S    
O4    C2    A    
O15   V3    S    
C24   C38   A    
C13   C55   S    
C57   H19   S    
C17   C57   S    
C60   O40   D    
C6    C10   S    
O3    C1    A    
O37   H21   S    
O16   V4    S    
O32   H16   S    
C14   C16   A    
C16   C18   A    
O7    V1    S    
C1    O8    A    
C17   C19   A    
O8    V2    S    
C26   C28   A    
C52   H10   S    
C55   O33   D    
O13   V3    S    
C28   C30   A    
C54   H14   S    
C21   C23   A    
C22   C24   A    
C58   O36   D    
O17   V3    S    
O15   C47   A    
C35   C49   S    
C56   O34   D    
C10   C54   S    
O22   H6    S    
C19   C25   A    
C44   H4    S    
C33   C43   A    
C25   C27   A    
O9    V2    S    
C34   C44   A    
O31   H15   S    
C51   O25   D    
O10   V1    S    
C12   O32   S    
C41   C48   S    
C29   C39   A    
C30   C40   A    
C57   O35   D    
