data_str_m9_o17_o18_f0_sra.sym.147
_audit_creation_date              2013-03-05T15:49:56-0500
_audit_creation_method            fapswitch 2.2
_symmetry_space_group_name_H-M    P1
_symmetry_Int_Tables_number       1
_space_group_crystal_system       triclinic
_cell_length_a                    6.944181
_cell_length_b                    19.915915
_cell_length_c                    23.821552
_cell_angle_alpha                 93.69627
_cell_angle_beta                  90.906191
_cell_angle_gamma                 88.881818
_cell_volume                      3286.68478459

loop_
_atom_site_label
_atom_site_type_symbol
_atom_site_description
_atom_site_fract_x
_atom_site_fract_y
_atom_site_fract_z
_atom_type_partial_charge
O1    O     O_R   0.620100 0.812200 0.810870 -0.609342
O2    O     O_R   0.379900 0.187800 0.189130 -0.609341
O3    O     O_R   0.296960 0.671650 0.794750 -0.601620
O4    O     O_R   0.703040 0.328350 0.205250 -0.601619
O5    O     O_R   0.120160 0.687800 0.689130 -0.584014
O6    O     O_R   0.879840 0.312200 0.310870 -0.584016
C1    C     C_R   0.467580 0.647156 0.804893 1.028501
C2    C     C_R   0.532420 0.352843 0.195107 1.028491
O7    O     O_R   0.290810 0.810670 0.817290 -0.610284
O8    O     O_R   0.709190 0.189330 0.182710 -0.610283
O9    O     O_R   0.113980 0.827820 0.711840 -0.580311
O10   O     O_R   0.886020 0.172180 0.288160 -0.580312
C3    C     C_R   0.459382 0.831781 0.834328 0.927234
C4    C     C_R   0.540618 0.168218 0.165672 0.927235
O11   O     O_R   0.626290 0.672180 0.788160 -0.574310
O12   O     O_R   0.373710 0.327820 0.211840 -0.574310
O13   O     O_3   0.451520 0.755460 0.715370 -0.250458
O14   O     O_3   0.548480 0.244540 0.284630 -0.250461
V1    V     V_3+5 0.179200 0.748980 0.756420 1.203176
V2    V     V_3+5 0.820800 0.251020 0.243580 1.203176
O15   O     O_R   0.783880 0.828350 0.705250 -0.594593
O16   O     O_R   0.216120 0.171650 0.294750 -0.594593
C5    C     C_R   0.950605 0.852740 0.695363 1.027848
C6    C     C_R   0.049395 0.147260 0.304637 1.027851
O17   O     O_R   0.790030 0.689320 0.682700 -0.579606
O18   O     O_R   0.209970 0.310680 0.317300 -0.579609
C7    C     C_R   0.959132 0.667937 0.665847 1.051206
C8    C     C_R   0.040868 0.332063 0.334153 1.051209
V3    V     V_3+5 0.678400 0.751010 0.743570 1.222986
V4    V     V_3+5 0.321600 0.248990 0.256430 1.222984
O19   O     O_3   0.955950 0.744540 0.784620 -0.297278
O20   O     O_3   0.044050 0.255460 0.215380 -0.297277
C9    C     C_R   0.863936 0.422745 0.391569 -0.183563
C10   C     C_R   0.136064 0.577255 0.608430 -0.183576
C11   C     C_R   0.029818 0.381616 0.383417 -0.152041
C12   C     C_R   0.970182 0.618385 0.616583 -0.152039
C13   C     C_R   0.183944 0.388344 0.422375 -0.144324
C14   C     C_R   0.816056 0.611656 0.577625 -0.144320
C15   C     C_R   0.172215 0.434861 0.469221 0.126708
C16   C     C_R   0.827785 0.565139 0.530779 0.126708
C17   C     C_R   0.006026 0.476295 0.476658 0.039010
C18   C     C_R   0.993974 0.523705 0.523342 0.039012
C19   C     C_R   0.851825 0.470391 0.437501 0.128181
C20   C     C_R   0.148175 0.529610 0.562499 0.128181
C21   C     C_R   0.323561 0.440639 0.508892 -0.199256
C22   C     C_R   0.676439 0.559361 0.491108 -0.199258
C23   C     C_R   0.311746 0.487621 0.555079 -0.158564
C24   C     C_R   0.688254 0.512379 0.444921 -0.158562
H1    H     H_    0.744852 0.418315 0.361696 0.185401
H2    H     H_    0.255148 0.581685 0.638303 0.185402
H3    H     H_    0.311999 0.356775 0.416673 0.151735
H4    H     H_    0.688001 0.643225 0.583327 0.151736
H5    H     H_    0.451864 0.409083 0.504017 0.156417
H6    H     H_    0.548136 0.590917 0.495983 0.156418
H7    H     H_    0.431267 0.491378 0.584857 0.180492
H8    H     H_    0.568734 0.508622 0.415142 0.180490
C25   C     C_R   0.953119 0.912839 0.662615 -0.245726
C26   C     C_R   0.046880 0.087161 0.337385 -0.245727
C27   C     C_R   0.880722 0.031617 0.660325 -0.137229
C28   C     C_R   0.119274 0.968383 0.339674 -0.137230
C29   C     C_R   0.910050 0.974908 0.690485 -0.223707
C30   C     C_R   0.089948 0.025092 0.309515 -0.223707
C31   C     C_R   0.976044 0.907791 0.603476 0.272272
C32   C     C_R   0.023955 0.092208 0.396524 0.272270
C33   C     C_R   0.970345 0.967685 0.572886 -0.045038
C34   C     C_R   0.029651 0.032314 0.427113 -0.045037
C35   C     C_R   0.905859 0.028251 0.602008 0.143154
C36   C     C_R   0.094136 0.971748 0.397991 0.143154
C37   C     C_R   0.020712 0.970219 0.514631 0.068457
C38   C     C_R   0.979283 0.029780 0.485368 0.068458
C39   C     C_R   0.881592 0.083465 0.514746 -0.085139
C40   C     C_R   0.118402 0.916534 0.485253 -0.085141
C41   C     C_R   0.857207 0.084404 0.572420 -0.196630
C42   C     C_R   0.142786 0.915594 0.427579 -0.196633
H9    H     H_    0.792815 0.128822 0.593811 0.147382
H10   H     H_    0.207177 0.871177 0.406187 0.147382
H11   H     H_    0.111853 0.021351 0.264463 0.124642
H12   H     H_    0.888145 0.978649 0.735537 0.124643
H13   H     H_    0.835666 0.078284 0.682667 0.127961
H14   H     H_    0.164328 0.921715 0.317331 0.127960
H15   H     H_    0.820192 0.125475 0.494033 0.182646
H16   H     H_    0.179801 0.874523 0.505965 0.182648
C43   C     C_R   0.480390 0.584451 0.834998 -0.276682
C44   C     C_R   0.519611 0.415549 0.165001 -0.276679
C45   C     C_R   0.468504 0.462972 0.835513 -0.273017
C46   C     C_R   0.531514 0.537027 0.164487 -0.273016
C47   C     C_R   0.470344 0.520970 0.805261 0.365459
C48   C     C_R   0.529670 0.479029 0.194738 0.365468
C49   C     C_R   0.490425 0.588392 0.894285 -0.289798
C50   C     C_R   0.509570 0.411608 0.105714 -0.289799
C51   C     C_R   0.490796 0.529617 0.925441 0.132358
C52   C     C_R   0.509207 0.470382 0.074559 0.132356
C53   C     C_R   0.478827 0.466659 0.894504 0.122411
C54   C     C_R   0.521184 0.533340 0.105496 0.122412
C55   C     C_R   0.501149 0.530905 0.985947 0.068883
C56   C     C_R   0.498854 0.469094 0.014053 0.068883
C57   C     C_R   0.486047 0.408166 0.980691 -0.204587
C58   C     C_R   0.513961 0.591833 0.019308 -0.204587
C59   C     C_R   0.476659 0.407196 0.922388 -0.191432
C60   C     C_R   0.523354 0.592803 0.077611 -0.191432
H17   H     H_    0.467110 0.358964 0.898744 0.136709
H18   H     H_    0.532909 0.641035 0.101255 0.136709
H19   H     H_    0.504463 0.361769 0.085363 0.115919
H20   H     H_    0.495522 0.638230 0.914636 0.115918
H21   H     H_    0.460688 0.414200 0.812667 0.171403
H22   H     H_    0.539339 0.585798 0.187333 0.171398
H23   H     H_    0.482569 0.359803 0.998327 0.130284
H24   H     H_    0.517442 0.640196 0.001672 0.130284
C61   C     C_R   0.685058 0.074219 0.103594 -0.253920
C62   C     C_R   0.314942 0.925781 0.896406 -0.253920
C63   C     C_R   0.530324 0.119182 0.116060 -0.133677
C64   C     C_R   0.469676 0.880818 0.883940 -0.133677
C65   C     C_R   0.363789 0.116227 0.081513 -0.262865
C66   C     C_R   0.636211 0.883773 0.918487 -0.262865
C67   C     C_R   0.351700 0.069522 0.034849 0.150793
C68   C     C_R   0.648300 0.930478 0.965151 0.150793
C69   C     C_R   0.506217 0.023939 0.023191 0.027921
C70   C     C_R   0.493783 0.976060 0.976809 0.027921
C71   C     C_R   0.673016 0.026085 0.057883 0.148604
C72   C     C_R   0.326984 0.973915 0.942117 0.148604
C73   C     C_R   0.187700 0.067531 0.999603 -0.218535
C74   C     C_R   0.812300 0.932469 0.000397 -0.218535
C75   C     C_R   0.175614 0.020253 0.953620 -0.206425
C76   C     C_R   0.824386 0.979747 0.046380 -0.206425
H25   H     H_    0.813296 0.075761 0.130182 0.133614
H26   H     H_    0.186704 0.924239 0.869818 0.133614
H27   H     H_    0.244202 0.150840 0.090598 0.139743
H28   H     H_    0.755798 0.849160 0.909402 0.139743
H29   H     H_    0.067947 0.102296 0.007809 0.142160
H30   H     H_    0.932052 0.897704 0.992191 0.142159
H31   H     H_    0.046991 0.019646 0.927248 0.142264
H32   H     H_    0.953009 0.980354 0.072752 0.142264
N1    N     N_R   0.540388 0.485710 0.255326 0.218756
O21   O     O_R   0.447477 0.445196 0.285475 -0.443514
O22   O     O_R   0.626977 0.536750 0.280728 -0.406866
N2    N     N_R   0.459637 0.514288 0.744673 0.218758
O23   O     O_R   0.552516 0.554812 0.714524 -0.443519
O24   O     O_R   0.373091 0.463239 0.719270 -0.406864
N3    N     N_R   0.029910 0.157912 0.425094 0.204670
O25   O     O_R   0.909116 0.205157 0.411517 -0.436555
O26   O     O_R   0.164201 0.171757 0.462543 -0.396448
N4    N     N_R   0.970091 0.842087 0.574906 0.204668
O27   O     O_R   0.835797 0.828241 0.537458 -0.396449
O28   O     O_R   0.090891 0.794843 0.588483 -0.436553

loop_
_geom_bond_atom_site_label_1
_geom_bond_atom_site_label_2
_geom_bond_distance
_ccdc_geom_bond_type
C26   C30   1.394402 A    
C43   C47   1.411188 A    
C31   C33   1.436920 A    
C67   C73   1.403831 A    
O13   V3    1.705890 S    
C17   C18   1.414123 A    
C30   H11   1.083916 S    
C1    C43   1.480184 S    
C55   C56   1.439189 A    
C24   H8    1.083794 S    
O4    C2    1.297578 A    
V1    O19   1.705412 S    
C64   C66   1.408699 A    
C55   C58   1.410519 A    
C15   C17   1.412303 A    
C71   C76   1.403672 A    
C16   C22   1.403619 A    
O9    V1    1.992575 S    
C68   C74   1.403831 A    
C11   C13   1.408139 A    
C48   N1    1.441729 S    
C3    C64   1.485541 S    
O3    C1    1.297580 A    
C69   C71   1.411918 A    
C13   H3    1.084196 S    
C46   C48   1.400687 A    
C14   H4    1.084196 S    
C34   C36   1.420428 A    
C36   C42   1.393194 A    
C52   C56   1.440605 A    
C58   H24   1.076216 S    
C76   H32   1.083635 S    
C28   C30   1.387161 A    
O7    C3    1.301528 A    
C46   C54   1.403208 A    
C27   C35   1.400016 A    
O5    C7    1.297635 A    
C45   C53   1.403203 A    
O7    V1    1.996157 S    
O6    C8    1.297635 A    
C8    C11   1.485801 S    
O8    V2    1.996158 S    
C33   C35   1.420429 A    
O3    V1    1.995714 S    
C38   C39   1.408314 A    
C35   C41   1.393195 A    
C49   C51   1.425780 A    
C19   C24   1.403907 A    
C53   C59   1.395123 A    
O14   V2    2.152490 S    
C20   C23   1.403908 A    
C15   C21   1.403621 A    
C21   C23   1.399971 A    
C21   H5    1.083640 S    
C2    O12   1.297244 A    
O17   V3    1.995403 S    
C41   H9    1.084347 S    
C22   H6    1.083638 S    
C46   H22   1.084231 S    
C44   C50   1.410131 A    
C45   H21   1.084232 S    
C60   H18   1.084386 S    
C57   C59   1.388273 A    
O11   V3    1.993334 S    
C70   C72   1.411918 A    
C45   C47   1.400690 A    
C26   C32   1.417159 A    
C4    C63   1.485541 S    
C43   C49   1.410132 A    
C22   C24   1.399973 A    
C27   C29   1.387162 A    
C10   H2    1.083580 S    
C65   H27   1.084320 S    
C9    C19   1.403784 A    
C6    C26   1.470773 S    
C10   C20   1.403783 A    
C40   C42   1.385824 A    
O8    C4    1.301528 A    
C62   C72   1.406180 A    
C39   C41   1.385824 A    
N2    O23   1.301099 A    
C1    O11   1.297243 A    
C67   C69   1.411198 A    
O15   V3    1.997194 S    
O4    V2    1.995712 S    
C37   C40   1.408315 A    
V4    O20   2.152785 S    
C51   C53   1.416056 A    
C66   H28   1.084320 S    
C50   C52   1.425781 A    
C54   C60   1.395122 A    
C29   H12   1.083916 S    
C56   C57   1.410519 A    
O10   V2    1.992576 S    
O1    V3    1.992139 S    
C63   C65   1.408699 A    
C42   H10   1.084348 S    
C62   H26   1.084355 S    
O14   V4    1.705890 S    
C61   H25   1.084355 S    
C59   H17   1.084387 S    
O18   V4    1.995402 S    
C58   C60   1.388272 A    
O15   C5    1.295054 A    
C49   H20   1.077161 S    
N1    O21   1.301096 A    
O16   C6    1.295054 A    
O1    C3    1.297909 A    
O12   V4    1.993334 S    
C27   H13   1.084042 S    
C12   C14   1.408139 A    
N4    O28   1.301318 A    
C61   C71   1.406180 A    
N2    O24   1.301555 A    
C23   H7    1.083796 S    
V2    O20   1.705413 S    
C5    C25   1.470773 S    
C28   H14   1.084041 S    
O16   V4    1.997192 S    
C75   H31   1.083634 S    
C2    C44   1.480183 S    
C47   N2    1.441733 S    
C17   C19   1.410575 A    
C44   C48   1.411182 A    
C25   C31   1.417159 A    
C73   H29   1.083671 S    
C16   C18   1.412304 A    
C66   C68   1.405248 A    
N3    O25   1.301315 A    
C72   C75   1.403672 A    
C25   C29   1.394399 A    
O5    V1    1.992253 S    
C7    C12   1.485800 S    
O17   C7    1.301844 A    
O6    V2    1.992252 S    
O10   C6    1.294810 A    
O18   C8    1.301844 A    
O2    V4    1.992138 S    
C61   C63   1.408146 A    
C18   C20   1.410575 A    
C13   C15   1.406007 A    
C69   C70   1.414864 A    
C14   C16   1.406009 A    
N3    O26   1.301346 A    
C9    C11   1.409018 A    
C52   C54   1.416053 A    
C34   C38   1.440741 A    
C33   C37   1.440741 A    
O9    C5    1.294811 A    
O13   V1    2.152490 S    
C31   N4    1.436523 S    
C68   C70   1.411198 A    
C10   C12   1.409017 A    
C37   C38   1.436226 A    
O2    C4    1.297910 A    
C62   C64   1.408146 A    
C50   H19   1.077159 S    
C73   C75   1.400260 A    
C51   C55   1.440602 A    
C57   H23   1.076213 S    
C28   C36   1.400017 A    
V3    O19   2.152787 S    
C9    H1    1.083580 S    
N1    O22   1.301550 A    
N4    O27   1.301345 A    
C39   H15   1.076069 S    
C74   C76   1.400260 A    
C74   H30   1.083671 S    
C40   H16   1.076068 S    
C32   C34   1.436918 A    
C65   C67   1.405248 A    
C32   N3    1.436524 S    
