data_str_m12_o9_o12_f0_bcu.sym.136
_audit_creation_date              2013-03-05T15:57:46-0500
_audit_creation_method            fapswitch 2.2
_symmetry_space_group_name_H-M    P1
_symmetry_Int_Tables_number       1
_space_group_crystal_system       triclinic
_cell_length_a                    15.537511
_cell_length_b                    14.960615
_cell_length_c                    14.785822
_cell_angle_alpha                 109.353127
_cell_angle_beta                  120.886654
_cell_angle_gamma                 59.142488
_cell_volume                      2521.19598254

loop_
_atom_site_label
_atom_site_type_symbol
_atom_site_description
_atom_site_fract_x
_atom_site_fract_y
_atom_site_fract_z
_atom_type_partial_charge
C1    C     C_R   0.804798 0.935654 0.772112 -0.138164
C2    C     C_R   0.250354 0.004720 0.207840 -0.103113
H1    H     H_    0.834342 0.877149 0.821106 0.092750
H2    H     H_    0.240889 0.037339 0.146541 0.106305
N1    N     N_R   0.705410 0.966550 0.689210 -0.045737
N2    N     N_R   0.294590 0.033450 0.310790 -0.050529
C3    C     C_R   0.200781 0.275257 0.441893 -0.131200
C4    C     C_R   0.758077 0.710082 0.510712 -0.114716
H3    H     H_    0.174119 0.326566 0.386804 0.097813
H4    H     H_    0.771495 0.648689 0.545809 0.094298
N3    N     N_R   0.294590 0.188320 0.465660 -0.045208
N4    N     N_R   0.705410 0.811680 0.534340 -0.049511
C5    C     C_R   0.593661 0.230529 0.549973 -0.112817
C6    C     C_R   0.408012 0.786029 0.518450 -0.144842
H5    H     H_    0.679083 0.211739 0.599751 0.124949
H6    H     H_    0.322761 0.811837 0.500922 0.117570
N5    N     N_R   0.556610 0.157790 0.497330 -0.042823
N6    N     N_R   0.443390 0.842210 0.502670 -0.040527
C7    C     C_R   0.410903 0.050696 0.736228 -0.082016
C8    C     C_R   0.592729 0.016356 0.286243 -0.108840
H7    H     H_    0.325855 0.091506 0.725119 0.153327
H8    H     H_    0.678721 0.995768 0.314832 0.202636
N7    N     N_R   0.443390 0.997080 0.657540 -0.055621
N8    N     N_R   0.556610 0.002920 0.342460 -0.057373
C9    C     C_R   0.409258 0.307031 0.468906 -0.085102
C10   C     C_R   0.590688 0.712960 0.592322 -0.142440
H9    H     H_    0.323794 0.362561 0.437207 0.110709
H10   H     H_    0.676052 0.670427 0.643342 0.101369
N9    N     N_R   0.443390 0.203250 0.451380 -0.049431
N10   N     N_R   0.556610 0.796750 0.548620 -0.040744
C11   C     C_R   0.594433 0.982530 0.805721 -0.144309
C12   C     C_R   0.410461 0.092856 0.212228 -0.147116
H11   H     H_    0.679422 0.966925 0.853567 0.125443
H12   H     H_    0.325973 0.145189 0.170005 0.116845
N11   N     N_R   0.556610 0.951620 0.703500 -0.048558
N12   N     N_R   0.443390 0.048380 0.296500 -0.049451
C13   C     C_R   0.199541 0.184597 0.533790 -0.072101
C14   C     C_R   0.758822 0.801066 0.417415 -0.089887
H13   H     H_    0.169221 0.153141 0.561744 0.102757
H14   H     H_    0.771956 0.821968 0.363699 0.157710
N13   N     N_R   0.294590 0.131500 0.522480 -0.047686
N14   N     N_R   0.705410 0.868500 0.477520 -0.046521
C15   C     C_R   0.803330 0.028720 0.681552 -0.119494
C16   C     C_R   0.250360 0.910383 0.297983 -0.145653
H15   H     H_    0.832855 0.054367 0.646961 0.120522
H16   H     H_    0.241185 0.853622 0.318215 0.100815
N15   N     N_R   0.705410 0.023370 0.632390 -0.045843
N16   N     N_R   0.294590 0.976630 0.367610 -0.045617
C17   C     C_R   0.867631 0.974204 0.769500 0.146764
C18   C     C_R   0.223769 0.925557 0.196995 0.140417
C19   C     C_R   0.138858 0.274917 0.483388 0.151091
C20   C     C_R   0.790925 0.700892 0.435439 0.122687
C21   C     C_R   0.503189 0.327134 0.533907 0.087609
C22   C     C_R   0.499090 0.705741 0.578620 0.085691
C23   C     C_R   0.505925 0.044223 0.831909 0.133541
C24   C     C_R   0.503113 0.078577 0.206213 0.110372
H17   H     H_    0.175198 0.943709 0.998704 0.144514
H18   H     H_    0.014659 0.837803 0.915995 0.128300
Ni1   Ni    Ni4+2 0.629830 0.882720 0.617850 0.209208
Ni2   Ni    Ni4+2 0.370170 0.117280 0.382150 0.216774
Ni3   Ni    Ni4+2 0.629830 0.013030 0.487540 0.265611
Ni4   Ni    Ni4+2 0.370170 0.986970 0.512460 0.219723
H19   H     H_    0.136633 0.827432 0.099831 0.155462
H20   H     H_    0.016225 0.000481 0.834679 0.192813
C25   C     C_R   0.855023 0.792018 0.034679 0.233721
C26   C     C_R   0.262896 0.415879 0.203446 0.151095
C27   C     C_R   0.746412 0.868796 0.012442 -0.281436
C28   C     C_R   0.344173 0.341869 0.167004 -0.198144
H21   H     H_    0.679197 0.845705 0.977605 0.135167
H22   H     H_    0.427592 0.336627 0.211046 0.155332
C29   C     C_R   0.724360 0.975123 0.035088 0.152142
C30   C     C_R   0.321026 0.270251 0.078273 0.129247
C31   C     C_R   0.811821 0.003856 0.076827 -0.076639
C32   C     C_R   0.214712 0.273694 0.025318 -0.102054
H23   H     H_    0.796386 0.085616 0.095569 0.135581
H24   H     H_    0.196808 0.215507 0.961050 0.219713
C33   C     C_R   0.921105 0.927318 0.108786 -0.218402
C34   C     C_R   0.132952 0.346923 0.060003 -0.177047
H25   H     H_    0.987825 0.951721 0.151955 0.135826
H26   H     H_    0.052328 0.346124 0.016788 0.195321
C35   C     C_R   0.944027 0.820627 0.090699 0.229497
C36   C     C_R   0.156086 0.417645 0.150303 0.118686
C37   C     C_R   0.610786 0.084349 0.131995 0.287875
C38   C     C_R   0.417345 0.169167 0.954702 0.307802
C39   C     C_R   0.508708 0.122834 0.133991 -0.101638
C40   C     C_R   0.513680 0.089412 0.940778 -0.111316
C41   C     C_R   0.413293 0.183231 0.052393 -0.146635
C42   C     C_R   0.615080 0.053645 0.033734 -0.147807
H27   H     H_    0.829439 0.508078 0.442457 0.135479
H28   H     H_    0.995924 0.416660 0.342479 0.141551
C43   C     C_2   0.024758 0.348271 0.465212 -0.202744
C44   C     C_2   0.854575 0.603594 0.389184 -0.190611
C45   C     C_2   0.965289 0.418377 0.394643 -0.119854
C46   C     C_2   0.871095 0.511897 0.404367 -0.109593
H29   H     H_    0.898881 0.607055 0.353643 0.147889
H30   H     H_    0.993150 0.351216 0.517414 0.149551
C47   C     C_2   0.984189 0.952597 0.838041 -0.184690
C48   C     C_2   0.169857 0.873369 0.097047 -0.248639
H31   H     H_    0.045622 0.950553 0.636092 0.182317
H32   H     H_    0.989737 0.157086 0.597540 0.177039
C49   C     C_R   0.220941 0.864834 0.713572 -0.182237
C50   C     C_R   0.823102 0.264617 0.514104 -0.142740
H33   H     H_    0.226398 0.913256 0.787598 0.188229
H34   H     H_    0.833137 0.247900 0.442188 0.182448
C51   C     C_R   0.316679 0.781335 0.706123 0.198213
C52   C     C_R   0.721907 0.338421 0.518311 0.218573
C53   C     C_R   0.308791 0.716727 0.609506 0.038185
C54   C     C_R   0.710348 0.359512 0.612521 -0.009274
C55   C     C_R   0.204943 0.741256 0.521707 -0.397729
C56   C     C_R   0.801322 0.308730 0.702315 -0.369620
H35   H     H_    0.198921 0.693155 0.447421 0.174932
H36   H     H_    0.792206 0.326185 0.774858 0.201128
C57   C     C_R   0.108933 0.824588 0.530235 0.419715
C58   C     C_R   0.902780 0.235132 0.698205 0.423228
C59   C     C_R   0.118125 0.886019 0.627072 -0.238404
C60   C     C_R   0.912584 0.213355 0.603062 -0.249379
C61   C     C_R   0.411275 0.519328 0.586191 0.108442
C62   C     C_R   0.602579 0.540769 0.657232 0.135056
C63   C     C_R   0.506919 0.429949 0.579302 -0.028190
C64   C     C_R   0.501868 0.626798 0.620515 -0.045676
C65   C     C_R   0.605966 0.441722 0.619846 -0.005161
C66   C     C_R   0.406160 0.620470 0.600778 -0.025560
C67   C     C_2   0.045982 0.885992 0.912204 -0.124524
C68   C     C_2   0.142663 0.897212 0.003683 -0.073058
N17   N     N_2   0.054404 0.744554 0.141352 -0.105509
H37   H     H_    0.106937 0.774107 0.205890 0.162930
C69   C     C_3   0.105114 0.663238 0.074256 -0.913175
H38   H     H_    0.196374 0.634534 0.115874 0.253663
H39   H     H_    0.077878 0.693053 0.000325 0.238913
H40   H     H_    0.085444 0.595987 0.055325 0.290444
N18   N     N_2   0.074344 0.490713 0.189138 -0.119231
H41   H     H_    0.062449 0.567450 0.201490 0.210546
C70   C     C_3   0.976347 0.476144 0.154215 -0.942708
H42   H     H_    0.922591 0.489794 0.069735 0.253026
H43   H     H_    0.928755 0.533322 0.200363 0.252044
H44   H     H_    0.999722 0.396026 0.166712 0.259148
N19   N     N_2   0.874777 0.685949 0.000229 -0.102870
H45   H     H_    0.828912 0.663593 0.011959 0.180434
C71   C     C_3   0.865750 0.658159 0.893130 -0.949337
H46   H     H_    0.900184 0.571893 0.876534 0.271229
H47   H     H_    0.913101 0.685833 0.881591 0.252423
H48   H     H_    0.777829 0.694794 0.836261 0.257691
N20   N     N_2   0.292259 0.480428 0.299788 -0.112325
H49   H     H_    0.242262 0.513637 0.338977 0.161502
C72   C     C_3   0.344965 0.542372 0.310822 -0.925648
H50   H     H_    0.419142 0.530419 0.387405 0.272838
H51   H     H_    0.287369 0.626587 0.311170 0.245641
H52   H     H_    0.370349 0.521436 0.246068 0.255838
N21   N     N_R   0.707971 0.078355 0.229314 0.222406
O1    O     O_R   0.797552 0.991479 0.251896 -0.353188
O2    O     O_R   0.700593 0.155275 0.303042 -0.461954
N22   N     N_R   0.331694 0.240833 0.875172 0.230487
O3    O     O_R   0.229275 0.255418 0.834396 -0.417322
O4    O     O_R   0.358217 0.283139 0.834923 -0.404210
N23   N     N_2   0.418999 0.764526 0.797265 -0.116779
H53   H     H_    0.483835 0.750824 0.784101 0.180229
C73   C     C_3   0.448226 0.695551 0.867251 -0.909192
H54   H     H_    0.520581 0.698573 0.942099 0.250699
H55   H     H_    0.470792 0.613949 0.829915 0.256762
H56   H     H_    0.378330 0.720207 0.886613 0.261375
N24   N     N_2   0.631526 0.392272 0.428476 -0.113613
H57   H     H_    0.604396 0.343539 0.364049 0.222912
C74   C     C_3   0.646778 0.465842 0.401297 -0.958751
H58   H     H_    0.567622 0.513665 0.339856 0.267404
H59   H     H_    0.709951 0.423412 0.369117 0.255728
H60   H     H_    0.672626 0.519170 0.471868 0.252491
N25   N     N_R   0.002188 0.845178 0.442014 0.243052
O5    O     O_R   0.912909 0.917428 0.452877 -0.409596
O6    O     O_R   0.992833 0.789426 0.351435 -0.421110
N26   N     N_R   0.995394 0.183309 0.790257 0.216662
O7    O     O_R   0.090879 0.118897 0.788067 -0.464809
O8    O     O_R   0.985227 0.200125 0.877192 -0.474899
N27   N     N_2   0.323380 0.506184 0.579660 -0.130292
H61   H     H_    0.244462 0.562957 0.546768 0.181546
C75   C     C_3   0.345745 0.471089 0.672733 -0.818497
H62   H     H_    0.280593 0.447644 0.653697 0.264303
H63   H     H_    0.344787 0.535381 0.737448 0.247168
H64   H     H_    0.427046 0.402311 0.699511 0.257817
N28   N     N_2   0.696502 0.554561 0.742391 -0.116858
H65   H     H_    0.768047 0.511308 0.731149 0.180701
C76   C     C_3   0.710802 0.546972 0.844969 -0.926553
H66   H     H_    0.799644 0.503479 0.895203 0.248705
H67   H     H_    0.666202 0.504613 0.838938 0.258259
H68   H     H_    0.679005 0.626649 0.883732 0.257825

loop_
_geom_bond_atom_site_label_1
_geom_bond_atom_site_label_2
_geom_bond_distance
_ccdc_geom_bond_type
C26   C28   1.407087 A    
C73   H54   1.110082 S    
C22   C64   1.478361 S    
N23   C73   1.444443 S    
N5    N9    1.367719 A    
C6    N6    1.341134 A    
C2    H2    1.078844 S    
C74   H58   1.109426 S    
H32   C60   1.082641 S    
C38   C41   1.418796 A    
C54   C65   1.483451 S    
C8    C24   1.383613 A    
C72   H52   1.110205 S    
C61   C63   1.426015 A    
N24   H57   1.029260 S    
C67   C68   1.461634 S    
N25   O6    1.301790 A    
N27   H61   1.026961 S    
C48   C68   1.335795 D    
C47   C67   1.333824 D    
C51   C53   1.420093 A    
H18   C67   1.083724 S    
C45   C46   1.449954 S    
N17   H37   1.031124 S    
N2    N16   1.379042 A    
C1    N1    1.341926 A    
C12   N12   1.342703 A    
C74   H59   1.110372 S    
C9    C21   1.400970 A    
C14   N14   1.341796 A    
H19   C48   1.070024 S    
N21   O2    1.298973 A    
H31   C59   1.082668 S    
C13   C19   1.381781 A    
C71   H48   1.109814 S    
C34   H26   1.079900 S    
C14   C20   1.388251 A    
N26   O7    1.301074 A    
C16   C18   1.395326 A    
N20   H49   1.030278 S    
N20   C72   1.448170 S    
C40   C42   1.434238 A    
C75   H63   1.109452 S    
N11   Ni1   1.836194 S    
C52   N24   1.420939 S    
H27   C46   1.082982 S    
C7    C23   1.410787 A    
C3    N3    1.331159 A    
N4    N14   1.379043 A    
C2    C18   1.380917 A    
C56   H36   1.082200 S    
N5    Ni3   1.854549 S    
C43   H30   1.087794 S    
N4    Ni1   1.836265 S    
C25   C35   1.406368 A    
N7    Ni4   1.837022 S    
C8    N8    1.323487 A    
C64   C66   1.409269 A    
C25   C27   1.402681 A    
C70   H44   1.110878 S    
C11   H11   1.064349 S    
N3    N13   1.379040 A    
N6    N10   1.367719 A    
C15   N15   1.341813 A    
C56   C58   1.405188 A    
C37   C39   1.395684 A    
C4    N4    1.329534 A    
C25   N19   1.413130 S    
C62   N28   1.416975 S    
C63   C65   1.421135 A    
C37   C42   1.397163 A    
C73   H55   1.109523 S    
C9    N9    1.337476 A    
C31   H23   1.083123 S    
C2    N2    1.330230 A    
N13   Ni4   1.854163 S    
C10   C22   1.387582 A    
N24   C74   1.444855 S    
C16   H16   1.080381 S    
C72   H50   1.106984 S    
C75   H64   1.111037 S    
C5    C21   1.386325 A    
N27   C75   1.446030 S    
C49   C51   1.398649 A    
C18   C48   1.459607 S    
C72   H51   1.109999 S    
C39   C41   1.407820 A    
N2    Ni2   1.851174 S    
C74   H60   1.110533 S    
C30   C32   1.398529 A    
C76   H67   1.113251 S    
C35   N17   1.428772 S    
N25   O5    1.301523 A    
C29   C31   1.405250 A    
N1    Ni1   1.851173 S    
N6    Ni4   1.854551 S    
C26   N20   1.429283 S    
N12   Ni2   1.836194 S    
C76   H66   1.107619 S    
C43   C45   1.335625 D    
C44   H29   1.085705 S    
N28   H65   1.030818 S    
C1    H1    1.080878 S    
C62   C65   1.382408 A    
C12   H12   1.074359 S    
C7    N7    1.349416 A    
C61   C66   1.421400 A    
C69   H39   1.107975 S    
C57   N25   1.438141 S    
C26   C36   1.415011 A    
N19   C71   1.447612 S    
C34   C36   1.411531 A    
N16   Ni4   1.836990 S    
C75   H62   1.110528 S    
N9    Ni2   1.851776 S    
C33   C35   1.406352 A    
C28   C30   1.406329 A    
N10   Ni1   1.851777 S    
C44   C46   1.334909 D    
C33   H25   1.081572 S    
N8    N12   1.367719 A    
C50   H34   1.082362 S    
C15   H15   1.082017 S    
N14   Ni3   1.854164 S    
C32   H24   1.080244 S    
N8    Ni3   1.837023 S    
C38   N22   1.438282 S    
C28   H22   1.083137 S    
H20   C47   1.085439 S    
C51   N23   1.421844 S    
N22   O4    1.301375 A    
C10   N10   1.331916 A    
C73   H56   1.111631 S    
N7    N11   1.367720 A    
C5    H5    1.064789 S    
C70   H42   1.105687 S    
C49   C59   1.392789 A    
C6    H6    1.077035 S    
C20   C44   1.456897 S    
N3    Ni2   1.836268 S    
C6    C22   1.381622 A    
C30   C41   1.488295 S    
H28   C45   1.083240 S    
N17   C69   1.450629 S    
C49   H33   1.082675 S    
C76   H68   1.107824 S    
C61   N27   1.428473 S    
C58   N26   1.438201 S    
C4    C20   1.388465 A    
C7    H7    1.077932 S    
C15   C17   1.373879 A    
C8    H8    1.069120 S    
N18   C70   1.446080 S    
N15   Ni3   1.836990 S    
C58   C60   1.404880 A    
C71   H46   1.108461 S    
C21   C63   1.478895 S    
C69   H38   1.108312 S    
C55   C57   1.405933 A    
C9    H9    1.077307 S    
N19   H45   1.029379 S    
C10   H10   1.076242 S    
C5    N5    1.320115 A    
C11   C23   1.378689 A    
C23   C40   1.491940 S    
C55   H35   1.082934 S    
C69   H40   1.106779 S    
C3    C19   1.383943 A    
C13   H13   1.081891 S    
C16   N16   1.345540 A    
N21   O1    1.301080 A    
H17   C68   1.085230 S    
C14   H14   1.080143 S    
C71   H47   1.109038 S    
C24   C39   1.486345 S    
C53   C55   1.407561 A    
C52   C54   1.406988 A    
C11   N11   1.321822 A    
N1    N15   1.379041 A    
C54   C56   1.406440 A    
C50   C52   1.403288 A    
C27   C29   1.401975 A    
C13   N13   1.342420 A    
C62   C64   1.387369 A    
C50   C60   1.395881 A    
C17   C47   1.464114 S    
C29   C42   1.482544 S    
C3    H3    1.079860 S    
C37   N21   1.440329 S    
N22   O3    1.299787 A    
C4    H4    1.079253 S    
C32   C34   1.394955 A    
N23   H53   1.028480 S    
C19   C43   1.459462 S    
C70   H43   1.107437 S    
C31   C33   1.399288 A    
C38   C40   1.424092 A    
N28   C76   1.450832 S    
N26   O8    1.301487 A    
C53   C66   1.490518 S    
C27   H21   1.084071 S    
C36   N18   1.430482 S    
C1    C17   1.385003 A    
C12   C24   1.389012 A    
N18   H41   1.031280 S    
C57   C59   1.402748 A    
