data_str_m9_o2_o18_f0_sra.sym.69
_audit_creation_date              2012-12-11T16:27:31-0500
_audit_creation_method            fapswitch 2.2
_symmetry_space_group_name_H-M    P1
_symmetry_Int_Tables_number       1
_space_group_crystal_system       triclinic
_cell_length_a                    21.64207
_cell_length_b                    6.920579
_cell_length_c                    14.804579
_cell_angle_alpha                 90.309328
_cell_angle_beta                  106.061063
_cell_angle_gamma                 90.165406
_cell_volume                      2130.76276212

loop_
_atom_site_label
_atom_site_type_symbol
_atom_type_description
_atom_site_fract_x
_atom_site_fract_y
_atom_site_fract_z
_atom_type_partial_charge
O1    O     O_R   0.835850 0.638310 0.002120 -0.534634
O2    O     O_R   0.164150 0.361690 0.997880 -0.538350
O3    O     O_R   0.664150 0.138310 0.997880 -0.534332
O4    O     O_R   0.335850 0.861690 0.002120 -0.537649
O5    O     O_R   0.717530 0.306070 0.861970 -0.542407
O6    O     O_R   0.282470 0.693930 0.138030 -0.543180
O7    O     O_R   0.782470 0.806070 0.138030 -0.542411
O8    O     O_R   0.217530 0.193930 0.861970 -0.543036
C1    C     C_R   0.705680 0.476824 0.824327 0.684868
C2    C     C_R   0.294923 0.524056 0.175586 0.686096
C3    C     C_R   0.794675 0.978356 0.175574 0.686478
C4    C     C_R   0.205348 0.022357 0.824466 0.685341
O9    O     O_R   0.838690 0.308440 0.993250 -0.537125
O10   O     O_R   0.161310 0.691560 0.006750 -0.534559
O11   O     O_R   0.661310 0.808440 0.006750 -0.538801
O12   O     O_R   0.338690 0.191560 0.993250 -0.534584
O13   O     O_R   0.786170 0.140510 0.130090 -0.541215
O14   O     O_R   0.213830 0.859490 0.869910 -0.540443
O15   O     O_R   0.713830 0.640510 0.869910 -0.541396
O16   O     O_R   0.286170 0.359490 0.130090 -0.540455
C5    C     C_R   0.865407 0.476987 0.998728 0.694910
C6    C     C_R   0.134573 0.521851 0.001187 0.694876
C7    C     C_R   0.634541 0.976426 0.001088 0.693859
C8    C     C_R   0.365434 0.022354 0.998815 0.694068
O17   O     O_3   0.732630 0.472520 0.044740 -0.367003
O18   O     O_3   0.267370 0.527480 0.955260 -0.366382
O19   O     O_3   0.767370 0.972520 0.955260 -0.366775
O20   O     O_3   0.232630 0.027480 0.044740 -0.367842
V1    V     V_3+5 0.753220 0.196740 0.991700 1.455521
V2    V     V_3+5 0.246780 0.803260 0.008300 1.453287
V3    V     V_3+5 0.746780 0.696740 0.008300 1.452813
V4    V     V_3+5 0.253220 0.303260 0.991700 1.453627
H1    H     H_    0.612147 0.822949 0.313742 0.105334
H2    H     H_    0.383582 0.047142 0.676149 0.102910
H3    H     H_    0.882067 0.536571 0.676382 0.101757
H4    H     H_    0.117861 0.334663 0.312739 0.103521
C9    C     C_R   0.532515 0.001255 0.827200 -0.132124
C10   C     C_R   0.464836 0.915986 0.166468 -0.134967
C11   C     C_R   0.967954 0.390803 0.165935 -0.134594
C12   C     C_R   0.031980 0.528142 0.827428 -0.140785
C13   C     C_R   0.484401 0.011827 0.742387 -0.095741
C14   C     C_R   0.511581 0.864808 0.248306 -0.095532
C15   C     C_R   0.016286 0.348439 0.247499 -0.085348
C16   C     C_R   0.983638 0.529984 0.742609 -0.097087
C17   C     C_R   0.420590 0.035402 0.742201 -0.063386
C18   C     C_R   0.576000 0.860485 0.249680 -0.052616
C19   C     C_R   0.080547 0.365751 0.248919 -0.057873
C20   C     C_R   0.919366 0.531349 0.742401 -0.053264
C21   C     C_R   0.404145 0.042426 0.826779 -0.087192
C22   C     C_R   0.594083 0.903855 0.168751 -0.095559
C23   C     C_R   0.096982 0.422805 0.168376 -0.089175
C24   C     C_R   0.902891 0.523681 0.826906 -0.083515
C25   C     C_R   0.451513 0.022158 0.913773 0.083713
C26   C     C_R   0.547594 0.950273 0.083856 0.089846
C27   C     C_R   0.049056 0.461226 0.083808 0.091989
C28   C     C_R   0.950834 0.511606 0.913791 0.085292
C29   C     C_R   0.517177 0.004953 0.914089 0.083407
C30   C     C_R   0.481677 0.959595 0.082978 0.096347
C31   C     C_R   0.983179 0.446857 0.082780 0.091452
C32   C     C_R   0.016726 0.518532 0.914247 0.082647
C33   C     C_R   0.434083 0.008458 0.999075 -0.177321
C34   C     C_R   0.565648 0.982268 0.000109 -0.179098
C35   C     C_R   0.065813 0.507133 0.000338 -0.179412
C36   C     C_R   0.934098 0.484026 0.998876 -0.177576
H5    H     H_    0.581540 0.985045 0.823763 0.094174
H6    H     H_    0.415516 0.920546 0.169606 0.098436
H7    H     H_    0.918683 0.377360 0.168680 0.096446
H8    H     H_    0.081293 0.530234 0.824021 0.095128
H9    H     H_    0.496868 0.005343 0.676467 0.108112
H10   H     H_    0.497861 0.831960 0.311533 0.109103
H11   H     H_    0.003808 0.304931 0.310376 0.110705
H12   H     H_    0.996171 0.534281 0.676722 0.106674
H13   H     H_    0.353790 0.058146 0.823062 0.075303
H14   H     H_    0.644691 0.896922 0.172999 0.078103
H15   H     H_    0.147548 0.432530 0.172506 0.073833
H16   H     H_    0.852271 0.521893 0.823224 0.071090
C37   C     C_R   0.178781 0.009050 0.722480 -0.038251
C38   C     C_R   0.822411 0.990966 0.277497 -0.031724
C39   C     C_R   0.323003 0.519965 0.277546 -0.031313
C40   C     C_R   0.679625 0.481095 0.721997 -0.040153
C41   C     C_R   0.186606 0.888622 0.573242 -0.158603
C42   C     C_R   0.810259 0.003581 0.434379 -0.159961
C43   C     C_R   0.311369 0.522508 0.434771 -0.159459
C44   C     C_R   0.686628 0.378181 0.569553 -0.160404
C45   C     C_R   0.214682 0.922911 0.668340 -0.165856
C46   C     C_R   0.782937 0.990145 0.337656 -0.162161
C47   C     C_R   0.283724 0.519660 0.337964 -0.163560
C48   C     C_R   0.714791 0.399970 0.665456 -0.165565
C49   C     C_R   0.114630 0.059451 0.680979 -0.244170
C50   C     C_R   0.889093 0.004518 0.314677 -0.250911
C51   C     C_R   0.389811 0.524454 0.314559 -0.251663
C52   C     C_R   0.616166 0.540086 0.681739 -0.243808
C53   C     C_R   0.081946 0.992065 0.589757 0.074002
C54   C     C_R   0.918267 0.988213 0.412491 0.076102
C55   C     C_R   0.419040 0.500076 0.411941 0.075526
C56   C     C_R   0.582900 0.483710 0.588830 0.074203
C57   C     C_R   0.120570 0.920951 0.533850 0.112068
C58   C     C_R   0.877486 0.003617 0.472064 0.111143
C59   C     C_R   0.378553 0.513987 0.472032 0.111473
C60   C     C_R   0.620927 0.417003 0.531140 0.112688
C61   C     C_R   0.013071 0.991919 0.552344 -0.035160
C62   C     C_R   0.986032 0.960295 0.452796 -0.037396
C63   C     C_R   0.486646 0.466823 0.451425 -0.036785
C64   C     C_R   0.514018 0.489326 0.551544 -0.034907
C65   C     C_R   0.027264 0.890034 0.399023 -0.018706
C66   C     C_R   0.969787 0.007871 0.610292 -0.022478
C67   C     C_R   0.470923 0.502210 0.609889 -0.022801
C68   C     C_R   0.527362 0.400405 0.396021 -0.019244
C69   C     C_R   0.093196 0.873767 0.440251 -0.203891
C70   C     C_R   0.903415 0.013993 0.568766 -0.202570
C71   C     C_R   0.404660 0.515344 0.568780 -0.202734
C72   C     C_R   0.593201 0.379551 0.436604 -0.205531
H17   H     H_    0.123557 0.814421 0.399617 0.153680
H18   H     H_    0.870898 0.020410 0.612912 0.157739
H19   H     H_    0.372296 0.520301 0.613192 0.158273
H20   H     H_    0.623142 0.323247 0.394616 0.155735
H21   H     H_    0.916987 0.029930 0.265748 0.115949
H22   H     H_    0.091001 0.146488 0.722059 0.113775
H23   H     H_    0.593391 0.623630 0.725154 0.114625
H24   H     H_    0.417727 0.551900 0.265893 0.115339
H25   H     H_    0.731169 0.984314 0.309868 0.098893
H26   H     H_    0.264397 0.883490 0.699530 0.108416
H27   H     H_    0.763987 0.354122 0.695519 0.110350
H28   H     H_    0.231926 0.522524 0.310442 0.099940
H29   H     H_    0.215849 0.827931 0.531441 0.110553
H30   H     H_    0.778783 0.009930 0.479946 0.108975
H31   H     H_    0.280115 0.528589 0.480669 0.108216
H32   H     H_    0.715368 0.320860 0.526211 0.111143
C73   C     C_2   0.003542 0.799354 0.304873 0.344109
H33   H     H_    0.959434 0.715119 0.287204 0.054339
O21   O     O_2   0.033106 0.818079 0.246086 -0.526234
C74   C     C_2   0.989465 0.985604 0.714204 0.353428
H34   H     H_    0.031010 0.900057 0.748554 0.055789
O22   O     O_2   0.958366 0.058636 0.762823 -0.525625
C75   C     C_2   0.490372 0.470101 0.713122 0.351660
H35   H     H_    0.530782 0.378321 0.745289 0.056336
O23   O     O_2   0.460383 0.542249 0.763512 -0.524507
C76   C     C_2   0.502992 0.317409 0.300256 0.348631
H36   H     H_    0.457902 0.238205 0.280816 0.052498
O24   O     O_2   0.533189 0.336038 0.242234 -0.525783

loop_
_geom_bond_atom_site_label_1
_geom_bond_atom_site_label_2
_ccdc_geom_bond_type
O17   V3    S    
C43   C47   A    
O1    C5    A    
C61   C62   A    
C12   C32   A    
C27   C31   A    
O19   V1    S    
O13   V1    S    
O3    C7    A    
C52   C56   A    
O15   V3    S    
C39   C47   A    
C75   H35   S    
C38   C50   A    
O7    C3    A    
C37   C49   A    
C31   C36   A    
C8    C33   S    
C62   C65   A    
C32   C35   A    
C58   C70   A    
O9    V1    S    
C52   H23   S    
C23   H15   S    
C10   C14   A    
C22   H14   S    
C26   C30   A    
C47   H28   S    
O4    C8    A    
C55   C59   A    
C54   C58   A    
O1    V3    S    
H4    C19   S    
O2    V4    S    
C14   C18   A    
O3    V1    S    
C42   H30   S    
C5    C36   S    
C67   C75   S    
C6    C35   S    
C10   C30   A    
C25   C33   A    
C1    O15   A    
C7    C34   S    
C10   H6    S    
C2    O16   A    
C74   H34   S    
C27   C35   A    
O2    C6    A    
C28   C36   A    
C63   C68   A    
O14   V2    S    
C70   H18   S    
C12   C16   A    
C39   C51   A    
C69   H17   S    
C38   C46   A    
C30   C33   A    
O11   C7    A    
C59   C71   A    
O12   C8    A    
C43   C59   A    
C9    C13   A    
H1    C18   S    
C42   C58   A    
C67   C71   A    
C44   H32   S    
O10   V2    S    
C48   H27   S    
H3    C20   S    
C55   C63   A    
C50   C54   A    
O5    V1    S    
O17   V1    S    
O7    V3    S    
O19   V3    S    
O8    V4    S    
C50   H21   S    
O20   V4    S    
C53   C61   A    
C25   C29   A    
O18   V4    S    
C19   C23   A    
C26   C34   A    
C29   C34   A    
C42   C46   A    
C51   C55   A    
O4    V2    S    
C68   C72   A    
C9    H5    S    
C1    C40   S    
C44   C60   A    
C40   C52   A    
C66   C74   S    
C14   H10   S    
O5    C1    A    
C3    C38   S    
C57   C69   A    
C17   C21   A    
O8    C4    A    
C11   C31   A    
C4    C37   S    
C46   H25   S    
O9    C5    A    
C45   H26   S    
H2    C17   S    
C22   C26   A    
C76   O24   D    
C74   O22   D    
O6    V2    S    
C60   C72   A    
C56   C64   A    
C65   C73   S    
C21   H13   S    
C53   C57   A    
C72   H20   S    
C13   H9    S    
C73   H33   S    
O16   V4    S    
C61   C66   A    
C75   O23   D    
C65   C69   A    
C3    O13   A    
C15   H11   S    
C41   H29   S    
C11   H7    S    
C44   C48   A    
C43   H31   S    
C24   H16   S    
O6    C2    A    
C11   C15   A    
C2    C39   S    
O11   V3    S    
O12   V4    S    
C18   C22   A    
O10   C6    A    
O20   V2    S    
C40   C48   A    
C16   C20   A    
C68   C76   S    
C41   C57   A    
C21   C25   A    
C56   C60   A    
C16   H12   S    
C23   C27   A    
C49   C53   A    
C9    C29   A    
C76   H36   S    
C37   C45   A    
C28   C32   A    
C20   C24   A    
C49   H22   S    
C54   C62   A    
C66   C70   A    
C12   H8    S    
C4    O14   A    
C63   C64   A    
C13   C17   A    
C51   H24   S    
C71   H19   S    
C15   C19   A    
C64   C67   A    
C41   C45   A    
C24   C28   A    
C73   O21   D    
O18   V2    S    
