data_str_m9_o16_o17_f0_sra.sym.31
_audit_creation_date              2012-12-11T15:07:32-0500
_audit_creation_method            fapswitch 2.2
_symmetry_space_group_name_H-M    P1
_symmetry_Int_Tables_number       1
_space_group_crystal_system       triclinic
_cell_length_a                    21.658679
_cell_length_b                    7.219473
_cell_length_c                    18.478587
_cell_angle_alpha                 90.004304
_cell_angle_beta                  95.824325
_cell_angle_gamma                 90.008096
_cell_volume                      2874.47446992

loop_
_atom_site_label
_atom_site_type_symbol
_atom_type_description
_atom_site_fract_x
_atom_site_fract_y
_atom_site_fract_z
_atom_type_partial_charge
O1    O     O_R   0.449650 0.506500 0.414480 -0.530333
O2    O     O_R   0.550350 0.006500 0.585520 -0.530310
O3    O     O_R   0.432010 0.173150 0.560250 -0.535627
O4    O     O_R   0.567990 0.673150 0.439750 -0.535678
C1    C     C_R   0.416316 0.344409 0.580923 0.678695
C2    C     C_R   0.583680 0.844417 0.419073 0.678717
O5    O     O_R   0.442320 0.176650 0.413480 -0.535539
O6    O     O_R   0.557680 0.676650 0.586520 -0.535534
O7    O     O_R   0.560730 0.008380 0.437700 -0.532795
O8    O     O_R   0.439270 0.508380 0.562300 -0.532802
C3    C     C_R   0.428629 0.345620 0.387376 0.702894
C4    C     C_R   0.571379 0.845652 0.612616 0.702882
O9    O     O_3   0.538840 0.339860 0.508120 -0.371047
O10   O     O_3   0.461160 0.839860 0.491880 -0.371059
V1    V     V_3+5 0.492800 0.064220 0.498490 1.463504
V2    V     V_3+5 0.507200 0.564220 0.501510 1.463410
C5    C     C_R   0.873977 0.919231 0.687718 0.422501
C6    C     C_R   0.126081 0.420623 0.312295 0.422607
H1    H     H_    0.961721 0.934356 0.752529 0.171204
H2    H     H_    0.038329 0.435498 0.247491 0.171259
H3    H     H_    0.790531 0.878819 0.570443 0.214414
H4    H     H_    0.209527 0.381021 0.429610 0.214342
C7    C     C_R   0.886290 0.937146 0.819295 -0.126490
C8    C     C_R   0.113738 0.437251 0.180693 -0.126583
C9    C     C_R   0.583567 0.874291 0.745622 -0.266536
C10   C     C_R   0.416440 0.373340 0.254333 -0.266691
C11   C     C_R   0.616938 0.927705 0.810517 0.222984
C12   C     C_R   0.383085 0.426280 0.189373 0.223114
C13   C     C_R   0.681099 0.962518 0.813584 0.337036
C14   C     C_R   0.318940 0.461368 0.186279 0.337097
C15   C     C_R   0.714109 0.919418 0.752433 -0.009115
C16   C     C_R   0.285926 0.419090 0.247507 -0.009202
C17   C     C_R   0.677854 0.879725 0.684757 0.024565
C18   C     C_R   0.322174 0.379904 0.315230 0.024520
C19   C     C_R   0.780948 0.921786 0.754275 0.072015
C20   C     C_R   0.219088 0.421816 0.245691 0.071953
C21   C     C_R   0.808640 0.911573 0.687508 0.011694
C22   C     C_R   0.191411 0.412519 0.312489 0.011669
C23   C     C_R   0.770958 0.887689 0.621883 -0.080471
C24   C     C_R   0.229094 0.389153 0.378140 -0.080377
C25   C     C_R   0.707262 0.866936 0.620774 -0.155215
C26   C     C_R   0.292776 0.367984 0.379250 -0.155153
C27   C     C_R   0.821640 0.922596 0.819892 -0.143412
C28   C     C_R   0.178375 0.422221 0.180089 -0.143561
C29   C     C_R   0.911803 0.932568 0.753163 -0.157129
C30   C     C_R   0.088246 0.433468 0.246842 -0.157159
C31   C     C_R   0.612358 0.859241 0.681820 -0.110129
C32   C     C_R   0.387657 0.359074 0.318167 -0.110119
H5    H     H_    0.804834 0.900977 0.872057 0.173032
H6    H     H_    0.195147 0.400011 0.127941 0.173115
H7    H     H_    0.533719 0.856985 0.743883 0.144500
H8    H     H_    0.466274 0.355773 0.256074 0.144455
H9    H     H_    0.680965 0.841941 0.568683 0.101162
H10   H     H_    0.319062 0.343427 0.431383 0.101058
C33   C     C_R   0.621486 0.948078 0.302499 -0.178040
C34   C     C_R   0.378561 0.447613 0.697587 -0.178116
C35   C     C_R   0.632819 0.855108 0.369230 -0.080619
C36   C     C_R   0.367172 0.355079 0.630760 -0.080574
C37   C     C_R   0.691524 0.777768 0.389050 -0.157578
C38   C     C_R   0.308407 0.278175 0.610843 -0.157645
C39   C     C_R   0.739765 0.796480 0.343553 0.008476
C40   C     C_R   0.260167 0.296898 0.656340 0.008450
C41   C     C_R   0.727671 0.888189 0.275847 0.017253
C42   C     C_R   0.272318 0.388151 0.724143 0.017187
C43   C     C_R   0.668063 0.962253 0.255120 0.114602
C44   C     C_R   0.331983 0.461769 0.744965 0.114575
C45   C     C_R   0.799914 0.727318 0.364000 0.382185
C46   C     C_R   0.199964 0.228200 0.635801 0.382188
C47   C     C_R   0.847022 0.751417 0.318269 -0.136935
C48   C     C_R   0.152866 0.252262 0.681548 -0.136912
C49   C     C_R   0.835685 0.840798 0.250491 -0.013251
C50   C     C_R   0.164256 0.341179 0.749423 -0.013273
C51   C     C_R   0.775173 0.906934 0.228818 0.024481
C52   C     C_R   0.224818 0.406891 0.771176 0.024404
C53   C     C_R   0.762122 0.994096 0.160469 0.108772
C54   C     C_R   0.237923 0.493599 0.839614 0.108746
C55   C     C_R   0.702435 0.064266 0.140274 -0.127092
C56   C     C_R   0.297665 0.563317 0.859900 -0.126932
C57   C     C_R   0.656042 0.050001 0.187396 -0.159554
C58   C     C_R   0.344059 0.549057 0.812782 -0.159533
C59   C     C_R   0.883156 0.865716 0.203821 0.118992
C60   C     C_R   0.116796 0.366024 0.796117 0.118972
C61   C     C_R   0.868789 0.942251 0.133718 -0.109593
C62   C     C_R   0.131206 0.442230 0.866279 -0.109604
C63   C     C_R   0.808701 0.008598 0.113126 -0.217480
C64   C     C_R   0.191342 0.508127 0.886951 -0.217436
H11   H     H_    0.576031 0.007414 0.287179 0.118327
H12   H     H_    0.424061 0.506620 0.712978 0.118363
H13   H     H_    0.699479 0.707868 0.440970 0.160383
H14   H     H_    0.300411 0.208598 0.558853 0.160321
H15   H     H_    0.892300 0.695824 0.336218 0.216366
H16   H     H_    0.107547 0.197045 0.663520 0.216431
H17   H     H_    0.798205 0.070640 0.059840 0.161250
H18   H     H_    0.201876 0.569831 0.940297 0.161406
H19   H     H_    0.691689 0.131394 0.088059 0.178298
H20   H     H_    0.308453 0.630086 0.912187 0.178564
H21   H     H_    0.610531 0.106898 0.170643 0.153314
H22   H     H_    0.389615 0.605595 0.829610 0.153388
O11   O     O_R   0.060820 0.290050 0.937800 -0.531007
O12   O     O_R   0.939180 0.790050 0.062200 -0.531000
O13   O     O_R   0.057690 0.616620 0.086540 -0.522603
O14   O     O_R   0.942310 0.116620 0.913460 -0.522561
C65   C     C_R   0.071890 0.448049 0.112365 0.723324
C66   C     C_R   0.928122 0.948029 0.887628 0.723294
O15   O     O_R   0.068010 0.619890 0.939770 -0.535580
O16   O     O_R   0.931990 0.119890 0.060230 -0.535586
O17   O     O_R   0.949640 0.787940 0.914460 -0.534016
O18   O     O_R   0.050360 0.287940 0.085540 -0.534008
C67   C     C_R   0.083719 0.451630 0.918537 0.725839
C68   C     C_R   0.916279 0.951630 0.081461 0.725818
O19   O     O_3   0.961210 0.453080 0.991940 -0.373022
O20   O     O_3   0.038790 0.953080 0.008060 -0.373055
V3    V     V_3+5 0.007200 0.728820 0.001500 1.518905
V4    V     V_3+5 0.992800 0.228820 0.998500 1.518936
Cl1   Cl    Cl    0.819017 0.609824 0.446931 -0.555118
Cl2   Cl    Cl    0.180778 0.111395 0.552725 -0.554935
I1    I     I_    0.978316 0.814326 0.241099 -0.310980
I2    I     I_    0.021613 0.314521 0.758873 -0.310956
Cl3   Cl    Cl    0.911291 0.909698 0.607219 -0.472381
Cl4   Cl    Cl    0.088778 0.412258 0.392828 -0.472267
Cl5   Cl    Cl    0.713136 0.100030 0.887422 -0.650935
Cl6   Cl    Cl    0.286967 0.598275 0.112244 -0.651273
I3    I     I_    0.565509 0.969144 0.901252 -0.251335
I4    I     I_    0.434500 0.466410 0.098547 -0.251356

loop_
_geom_bond_atom_site_label_1
_geom_bond_atom_site_label_2
_ccdc_geom_bond_type
C22   C24   A    
C41   C43   A    
O12   C68   A    
C7    C29   A    
C54   C64   A    
C11   C13   A    
O13   V3    S    
O1    C3    A    
O2    C4    A    
O11   V4    S    
C23   C25   A    
O5    C3    A    
C52   C54   A    
C1    C36   S    
O16   V4    S    
C43   C57   A    
C16   C20   A    
O15   V3    S    
C19   C21   A    
C5    C29   A    
C56   C58   A    
C35   C37   A    
C36   C38   A    
O11   C67   A    
C59   I1    S    
C7    C27   A    
C38   C40   A    
C37   H13   S    
O18   V4    S    
C47   C49   A    
C45   Cl1   S    
O17   V3    S    
C40   C42   A    
C64   H18   S    
C33   C43   A    
C63   H17   S    
C53   C63   A    
C14   Cl6   S    
C56   H20   S    
C18   C26   A    
C13   Cl5   S    
C15   C17   A    
C65   O18   A    
C19   C27   A    
C9    C31   A    
C10   C32   A    
C24   C26   A    
O6    V2    S    
C13   C15   A    
C51   C53   A    
C2    C35   S    
C3    C32   S    
C2    O7    A    
C4    C31   S    
C6    C30   A    
O20   V3    S    
C59   C61   A    
C55   C57   A    
C37   C39   A    
C50   C52   A    
C49   C51   A    
C11   I3    S    
C27   H5    S    
O5    V1    S    
C41   C51   A    
C55   H19   S    
H1    C29   S    
C45   C47   A    
C42   C44   A    
O4    V2    S    
C9    H7    S    
O14   V4    S    
C10   H8    S    
C39   C45   A    
C7    C66   S    
H3    C23   S    
O6    C4    A    
H4    C24   S    
C39   C41   A    
C61   C68   S    
O1    V2    S    
C5    C21   A    
O14   C66   A    
O2    V1    S    
C53   C55   A    
C25   H9    S    
C46   Cl2   S    
C33   H11   S    
O4    C2    A    
C61   C63   A    
C8    C28   A    
C60   C62   A    
C33   C35   A    
C17   C31   A    
C15   C19   A    
C20   C28   A    
C18   C32   A    
C60   I2    S    
C6    Cl4   S    
O3    V1    S    
O16   C68   A    
C28   H6    S    
O15   C67   A    
C58   H22   S    
C57   H21   S    
C48   H16   S    
O12   V3    S    
C54   C56   A    
O3    C1    A    
C12   I4    S    
C38   H14   S    
C9    C11   A    
C44   C58   A    
C10   C12   A    
C62   C67   S    
C40   C46   A    
C8    C65   S    
C8    C30   A    
C20   C22   A    
O7    V1    S    
C17   C25   A    
C1    O8    A    
C21   C23   A    
O8    V2    S    
C26   H10   S    
C14   C16   A    
C34   C44   A    
C12   C14   A    
C34   C36   A    
O19   V4    S    
C6    C22   A    
C50   C60   A    
C34   H12   S    
C5    Cl3   S    
O13   C65   A    
O9    V2    S    
C46   C48   A    
C42   C52   A    
O10   V1    S    
C62   C64   A    
C48   C50   A    
C47   H15   S    
C66   O17   A    
H2    C30   S    
C16   C18   A    
C49   C59   A    
