data_str_m9_o10_o29_f0_sra.sym.205
_audit_creation_date              2012-12-11T14:08:35-0500
_audit_creation_method            fapswitch 2.2
_symmetry_space_group_name_H-M    P1
_symmetry_Int_Tables_number       1
_space_group_crystal_system       triclinic
_cell_length_a                    28.192953
_cell_length_b                    7.197165
_cell_length_c                    17.196914
_cell_angle_alpha                 90.07779
_cell_angle_beta                  101.893313
_cell_angle_gamma                 89.9685
_cell_volume                      3414.50399664

loop_
_atom_site_label
_atom_site_type_symbol
_atom_type_description
_atom_site_fract_x
_atom_site_fract_y
_atom_site_fract_z
_atom_type_partial_charge
O1    O     O_R   0.000700 0.436510 0.857920 -0.533080
O2    O     O_R   0.999300 0.563490 0.142080 -0.532657
O3    O     O_R   0.999300 0.936510 0.642080 -0.533260
O4    O     O_R   0.000700 0.063490 0.357920 -0.532861
O5    O     O_R   0.930080 0.766380 0.721890 -0.541859
O6    O     O_R   0.069920 0.233620 0.278110 -0.543728
O7    O     O_R   0.069920 0.266380 0.778110 -0.543085
O8    O     O_R   0.930080 0.733620 0.221890 -0.542902
C1    C     C_R   0.910567 0.597621 0.708952 0.717936
C2    C     C_R   0.089433 0.402363 0.291208 0.717197
C3    C     C_R   0.089427 0.097574 0.791065 0.718669
C4    C     C_R   0.910569 0.902428 0.209015 0.719844
O9    O     O_R   0.996180 0.766230 0.862310 -0.543770
O10   O     O_R   0.003820 0.233770 0.137690 -0.544018
O11   O     O_R   0.003820 0.266230 0.637690 -0.543518
O12   O     O_R   0.996180 0.733770 0.362310 -0.544007
O13   O     O_R   0.065870 0.936460 0.783500 -0.539087
O14   O     O_R   0.934130 0.063540 0.216500 -0.538786
O15   O     O_R   0.934130 0.436460 0.716500 -0.539852
O16   O     O_R   0.065870 0.563540 0.283500 -0.538964
C5    C     C_R   0.998488 0.596501 0.894495 0.758101
C6    C     C_R   0.001512 0.403499 0.105505 0.758647
C7    C     C_R   0.001518 0.096389 0.605538 0.759412
C8    C     C_R   0.998492 0.903608 0.394465 0.757864
O17   O     O_3   0.022790 0.603020 0.723980 -0.378303
O18   O     O_3   0.977210 0.396980 0.276020 -0.377767
O19   O     O_3   0.977210 0.103020 0.776020 -0.378775
O20   O     O_3   0.022790 0.896980 0.223980 -0.378503
V1    V     V_3+5 0.995770 0.877900 0.754830 1.403692
V2    V     V_3+5 0.004230 0.122100 0.245170 1.402401
V3    V     V_3+5 0.004230 0.377900 0.745170 1.403795
V4    V     V_3+5 0.995770 0.622100 0.254830 1.403980
C9    C     C_2   0.001717 0.082578 0.519608 -0.334614
C10   C     C_2   0.998304 0.917413 0.480398 -0.336057
C11   C     C_2   0.998305 0.582651 0.980467 -0.334431
C12   C     C_2   0.001696 0.417348 0.019533 -0.334858
H1    H     H_    0.004513 0.211351 0.487994 0.153805
H2    H     H_    0.995510 0.788640 0.512012 0.153832
H3    H     H_    0.995533 0.711446 0.012225 0.153567
H4    H     H_    0.004468 0.288553 0.987775 0.153496
C13   C     C_R   0.681587 0.873891 0.034987 0.565783
C14   C     C_R   0.318304 0.125325 0.966330 0.565438
C15   C     C_R   0.316485 0.467903 0.476388 0.619414
C16   C     C_R   0.684227 0.496111 0.529438 0.561732
O21   O     O_2   0.709435 0.796432 0.988583 -0.532045
O22   O     O_2   0.290441 0.202904 0.012681 -0.532438
O23   O     O_2   0.286932 0.482322 0.528630 -0.528224
O24   O     O_2   0.714271 0.457688 0.479770 -0.535246
N1    N     N_R   0.702746 0.943052 0.108127 -0.541218
N2    N     N_R   0.297172 0.056460 0.893119 -0.541298
N3    N     N_R   0.297154 0.437927 0.397493 -0.538842
N4    N     N_R   0.703066 0.550897 0.605842 -0.538384
C17   C     C_R   0.675292 0.024213 0.155913 0.640848
C18   C     C_R   0.324637 0.975199 0.845379 0.642040
C19   C     C_R   0.326641 0.415754 0.343977 0.599723
C20   C     C_R   0.673400 0.591125 0.657397 0.637003
C21   C     C_R   0.777481 0.762847 0.156002 -0.164244
C22   C     C_R   0.222513 0.236968 0.844976 -0.162918
C23   C     C_R   0.222486 0.262900 0.342968 -0.172068
C24   C     C_R   0.782430 0.404363 0.654583 -0.183819
C25   C     C_R   0.827956 0.751940 0.179964 -0.191495
C26   C     C_R   0.172057 0.247972 0.820652 -0.191842
C27   C     C_R   0.172122 0.253038 0.317576 -0.205129
C28   C     C_R   0.832790 0.414984 0.679195 -0.196454
C29   C     C_R   0.833688 0.084351 0.162225 -0.275093
C30   C     C_R   0.166232 0.915562 0.838295 -0.276441
C31   C     C_R   0.166040 0.581536 0.344172 -0.295911
C32   C     C_R   0.828903 0.748971 0.661820 -0.277319
C33   C     C_R   0.783126 0.094926 0.136204 0.504168
C34   C     C_R   0.216763 0.904888 0.864673 0.502791
C35   C     C_R   0.216718 0.591283 0.372424 0.502054
C36   C     C_R   0.778282 0.737950 0.634985 0.502037
C37   C     C_R   0.754741 0.933766 0.134306 0.290269
C38   C     C_R   0.245191 0.065991 0.866799 0.290493
C39   C     C_R   0.245103 0.430904 0.370427 0.303245
C40   C     C_R   0.754909 0.564835 0.632470 0.308158
C41   C     C_R   0.602091 0.969446 0.055227 -0.044519
C42   C     C_R   0.397798 0.029345 0.946223 -0.044457
C43   C     C_R   0.397975 0.461210 0.449490 -0.045339
C44   C     C_R   0.602463 0.520609 0.554308 -0.042065
C45   C     C_R   0.631014 0.885122 0.007428 -0.027435
C46   C     C_R   0.368865 0.113672 0.994008 -0.027331
C47   C     C_R   0.367030 0.482781 0.503528 -0.038804
C48   C     C_R   0.633692 0.480467 0.502251 -0.027073
C49   C     C_R   0.609016 0.814846 0.933032 -0.126666
C50   C     C_R   0.390842 0.183448 0.068516 -0.126891
C51   C     C_R   0.387089 0.518116 0.583460 -0.125652
C52   C     C_R   0.613923 0.424826 0.424448 -0.130554
C53   C     C_R   0.624618 0.039369 0.130300 -0.047273
C54   C     C_R   0.375290 0.959675 0.871093 -0.048469
C55   C     C_R   0.377463 0.425572 0.369042 -0.035411
C56   C     C_R   0.622666 0.576290 0.632705 -0.044377
C57   C     C_R   0.856792 0.912735 0.183609 -0.115184
C58   C     C_R   0.143187 0.087218 0.816764 -0.115090
C59   C     C_R   0.143174 0.412215 0.317768 -0.100913
C60   C     C_R   0.856801 0.587433 0.683274 -0.105144
H5    H     H_    0.854665 0.211057 0.164860 0.147484
H6    H     H_    0.145232 0.788881 0.835499 0.147496
H7    H     H_    0.144572 0.706578 0.342620 0.142167
H8    H     H_    0.846186 0.883904 0.665053 0.143244
H9    H     H_    0.630380 0.748892 0.895121 0.174710
H10   H     H_    0.369468 0.249161 0.106475 0.174617
H11   H     H_    0.364193 0.533340 0.626535 0.172981
H12   H     H_    0.637095 0.390763 0.383414 0.172946
C61   C     C_R   0.477603 0.928075 0.924464 0.037809
C62   C     C_R   0.522274 0.070391 0.077062 0.037992
C63   C     C_R   0.520313 0.540628 0.582189 0.038391
C64   C     C_R   0.480052 0.446680 0.420948 0.038438
C65   C     C_R   0.471059 0.085615 0.049684 0.036234
C66   C     C_R   0.528810 0.912721 0.951872 0.036533
C67   C     C_R   0.531385 0.454289 0.447987 0.036851
C68   C     C_R   0.469195 0.518054 0.556747 0.036882
C69   C     C_R   0.449050 0.014346 0.973563 0.063377
C70   C     C_R   0.550828 0.984183 0.027950 0.063327
C71   C     C_R   0.551176 0.505096 0.528052 0.064083
C72   C     C_R   0.449288 0.475269 0.475841 0.065653
C73   C     C_R   0.453616 0.860102 0.849181 -0.169581
C74   C     C_R   0.546274 0.138531 0.152305 -0.168760
C75   C     C_R   0.541896 0.599249 0.660129 -0.168763
C76   C     C_R   0.458109 0.412813 0.340380 -0.172402
C77   C     C_R   0.403674 0.875746 0.823300 -0.134263
C78   C     C_R   0.596231 0.123154 0.178127 -0.134034
C79   C     C_R   0.591912 0.616463 0.684652 -0.130297
C80   C     C_R   0.407983 0.402733 0.315188 -0.128254
O25   O     O_2   0.303040 0.909819 0.773176 -0.511493
O26   O     O_2   0.696914 0.089842 0.228058 -0.512310
O27   O     O_2   0.692906 0.644442 0.732426 -0.510484
O28   O     O_2   0.306902 0.385904 0.266593 -0.515947
C81   C     C_R   0.559140 0.827931 0.905776 -0.174385
C82   C     C_R   0.440711 0.170103 0.095841 -0.174195
C83   C     C_R   0.436981 0.535675 0.609616 -0.175047
C84   C     C_R   0.563956 0.411836 0.397780 -0.172650
H13   H     H_    0.155784 0.382495 0.804523 0.158758
H14   H     H_    0.844271 0.617446 0.196003 0.159275
H15   H     H_    0.852812 0.287626 0.695538 0.152047
H16   H     H_    0.155960 0.120583 0.297248 0.154317
H17   H     H_    0.244145 0.361641 0.846727 0.188292
H18   H     H_    0.755885 0.638117 0.154393 0.188545
H19   H     H_    0.764641 0.270879 0.652863 0.181839
H20   H     H_    0.244104 0.138995 0.341716 0.184238
H21   H     H_    0.387353 0.820934 0.765223 0.162435
H22   H     H_    0.612563 0.178076 0.236176 0.158689
H23   H     H_    0.606404 0.661762 0.744957 0.155406
H24   H     H_    0.393220 0.377075 0.252812 0.156083
H25   H     H_    0.472196 0.793399 0.808062 0.109585
H26   H     H_    0.527684 0.205254 0.193402 0.108710
H27   H     H_    0.521120 0.636554 0.703734 0.107157
H28   H     H_    0.478585 0.396984 0.294432 0.109360
H29   H     H_    0.545731 0.769539 0.847850 0.111610
H30   H     H_    0.454098 0.227978 0.153885 0.112515
H31   H     H_    0.449091 0.560007 0.672349 0.115434
H32   H     H_    0.552152 0.364715 0.337467 0.112841
O29   O     O_3   0.760955 0.264314 0.116041 -0.554286
C85   C     C_3   0.766359 0.311174 0.038781 -0.242147
H33   H     H_    0.751402 0.201091 0.994958 0.164369
H34   H     H_    0.804959 0.339337 0.037304 0.132248
H35   H     H_    0.745615 0.440216 0.020366 0.211462
O30   O     O_3   0.238873 0.735429 0.884917 -0.554719
C86   C     C_3   0.233303 0.688563 0.962090 -0.240761
H36   H     H_    0.194664 0.660648 0.963370 0.132039
H37   H     H_    0.248237 0.798535 0.005982 0.164452
H38   H     H_    0.253968 0.559377 0.980568 0.211646
O31   O     O_3   0.239974 0.758205 0.395932 -0.554857
C87   C     C_3   0.219779 0.844194 0.455508 -0.205856
H39   H     H_    0.212757 0.743653 0.501054 0.169866
H40   H     H_    0.186092 0.920284 0.428952 0.116681
H41   H     H_    0.246059 0.948117 0.486626 0.185864
O32   O     O_3   0.751005 0.896990 0.615286 -0.555977
C88   C     C_3   0.756556 0.957331 0.539708 -0.237216
H42   H     H_    0.747077 0.845810 0.494181 0.171775
H43   H     H_    0.793962 0.008899 0.541608 0.136166
H44   H     H_    0.731315 0.074753 0.520973 0.200141

loop_
_geom_bond_atom_site_label_1
_geom_bond_atom_site_label_2
_ccdc_geom_bond_type
O17   V3    S    
C47   C51   A    
C61   C66   A    
N1    C17   A    
O1    C5    A    
C30   H6    S    
O19   V1    S    
O13   V1    S    
C88   H42   S    
C64   C76   A    
O3    C7    A    
C11   C12   D    
C14   C46   A    
C44   C48   A    
O15   V3    S    
C42   C54   A    
O7    C3    A    
C41   C53   A    
C32   C60   A    
C35   O31   S    
C62   C70   A    
C23   H20   S    
C26   H13   S    
C73   H25   S    
C87   H39   S    
N3    C39   S    
C18   C54   A    
N2    C38   S    
C14   O22   S    
O4    C8    A    
C25   C57   A    
C31   C35   A    
C53   C78   A    
C75   H27   S    
C27   C59   A    
O1    V3    S    
C15   C47   A    
C66   C81   A    
O2    V4    S    
C63   C68   A    
C20   O27   S    
C21   C37   A    
O3    V1    S    
C73   C77   A    
C34   C38   A    
C19   C55   A    
C49   C81   A    
C83   H31   S    
C1    O15   A    
C82   H30   S    
O31   C87   S    
C2    O16   A    
C7    C9    S    
O2    C6    A    
C86   H37   S    
C33   C37   A    
O14   V2    S    
C41   C45   A    
C66   C70   A    
C85   H34   S    
C65   C69   A    
C30   C58   A    
C16   N4    A    
O11   C7    A    
C28   H15   S    
O12   C8    A    
C43   C72   A    
C62   C74   A    
C31   C59   A    
C36   O32   S    
C61   C73   A    
O10   V2    S    
C63   C75   A    
C52   H12   S    
O16   V4    S    
C25   H14   S    
O5    V1    S    
C18   O25   S    
O7    V3    S    
O8    V4    S    
C77   H21   S    
C12   H4    S    
C28   C60   A    
C85   H35   S    
C56   C79   A    
O18   V4    S    
C50   C82   A    
N4    C40   S    
C46   C50   A    
C24   C40   A    
C8    C10   S    
C32   C36   A    
C34   O30   S    
C52   C84   A    
C44   C56   A    
C11   H3    S    
C32   H8    S    
O5    C1    A    
C42   C46   A    
C86   H36   S    
C44   C71   A    
C74   H26   S    
O8    C4    A    
C13   C45   A    
C9    C10   D    
C86   H38   S    
O9    C5    A    
C36   C40   A    
N2    C18   A    
O11   V3    S    
C1    C60   S    
C63   C71   A    
C85   H33   S    
C51   C83   A    
C22   C26   A    
C14   N2    A    
C51   H11   S    
C22   H17   S    
O32   C88   S    
O6    V2    S    
C76   H28   S    
C75   C79   A    
C55   C80   A    
C26   C58   A    
C17   C53   A    
O30   C86   S    
C84   H32   S    
C54   C77   A    
N1    C37   S    
C4    C57   S    
C42   C69   A    
C78   H22   S    
O10   C6    A    
C79   H23   S    
C41   C70   A    
C50   H10   S    
C23   C39   A    
C68   C72   A    
C49   H9    S    
C22   C38   A    
C9    H1    S    
C88   H43   S    
O9    V1    S    
C29   C33   A    
C3    O13   A    
C10   H2    S    
C43   C55   A    
C87   H41   S    
C48   C52   A    
C3    C58   S    
C16   C48   A    
C61   C69   A    
O6    C2    A    
C21   C25   A    
C5    C11   S    
C31   H7    S    
O12   V4    S    
C13   N1    A    
C6    C12   S    
C23   C27   A    
C64   C67   A    
C24   C28   A    
C27   H16   S    
C64   C72   A    
C87   H40   S    
O29   C85   S    
C29   H5    S    
C35   C39   A    
C15   N3    A    
C30   C34   A    
N4    C20   A    
C2    C59   S    
C74   C78   A    
O20   V2    S    
C29   C57   A    
C88   H44   S    
C21   H18   S    
N3    C19   A    
C68   C83   A    
C33   O29   S    
C17   O26   S    
C24   H19   S    
C43   C47   A    
C76   C80   A    
C67   C84   A    
C20   C56   A    
C19   O28   S    
C45   C49   A    
C4    O14   A    
C65   C82   A    
C13   O21   S    
C80   H24   S    
C67   C71   A    
C81   H29   S    
C15   O23   S    
O4    V2    S    
C16   O24   S    
C62   C65   A    
