data_str_m4_o15_o24_f0_acs.sym.126
_audit_creation_date              2012-12-11T14:28:16-0500
_audit_creation_method            fapswitch 2.2
_symmetry_space_group_name_H-M    P1
_symmetry_Int_Tables_number       1
_space_group_crystal_system       triclinic
_cell_length_a                    10.917404
_cell_length_b                    19.280859
_cell_length_c                    18.474165
_cell_angle_alpha                 90.482397
_cell_angle_beta                  89.909681
_cell_angle_gamma                 89.860273
_cell_volume                      3888.60061334

loop_
_atom_site_label
_atom_site_type_symbol
_atom_type_description
_atom_site_fract_x
_atom_site_fract_y
_atom_site_fract_z
_atom_type_partial_charge
C1    C     C_R   0.321712 0.970218 0.647358 0.520177
C2    C     C_R   0.322634 0.970575 0.852446 0.518780
C3    C     C_R   0.318954 0.030379 0.353679 0.527090
C4    C     C_R   0.319082 0.031352 0.145579 0.530331
C5    C     C_R   0.821712 0.470218 0.647358 0.520191
C6    C     C_R   0.822634 0.470572 0.852449 0.518687
C7    C     C_R   0.818954 0.530379 0.353679 0.527077
C8    C     C_R   0.819084 0.531347 0.145583 0.530360
C9    C     C_3   0.218275 0.734061 0.452750 -0.080807
C10   C     C_3   0.144429 0.703403 0.025144 -0.036426
C11   C     C_3   0.208284 0.229274 0.547887 -0.128093
C12   C     C_3   0.015519 0.324695 0.996605 -0.079559
C13   C     C_3   0.718275 0.234062 0.452750 -0.080818
C14   C     C_3   0.644762 0.203799 0.025360 -0.036014
C15   C     C_3   0.708283 0.729274 0.547887 -0.128097
C16   C     C_3   0.515273 0.824681 0.996668 -0.079843
C17   C     C_3   0.088855 0.749773 0.425622 0.013850
C18   C     C_3   0.024914 0.727348 0.061724 0.026736
C19   C     C_3   0.080119 0.252596 0.571755 0.018645
C20   C     C_3   0.022048 0.269171 0.937608 0.020359
C21   C     C_3   0.588855 0.249773 0.425623 0.013851
C22   C     C_3   0.524870 0.227376 0.061743 0.026701
C23   C     C_3   0.580118 0.752596 0.571755 0.018644
C24   C     C_3   0.521991 0.769208 0.937618 0.020331
C25   C     C_R   0.320779 0.997672 0.425885 -0.026557
C26   C     C_R   0.322728 0.002573 0.071775 -0.007705
C27   C     C_R   0.333807 0.005445 0.577428 -0.033834
C28   C     C_R   0.339775 0.008394 0.921045 -0.032544
C29   C     C_R   0.820779 0.497672 0.425885 -0.026563
C30   C     C_R   0.822731 0.502558 0.071783 -0.007566
C31   C     C_R   0.833807 0.505445 0.577428 -0.033831
C32   C     C_R   0.839771 0.508383 0.921053 -0.032251
C33   C     C_R   0.540107 0.971673 0.420360 -0.114790
C34   C     C_R   0.541856 0.975352 0.080447 -0.051841
C35   C     C_R   0.559124 0.995894 0.568449 -0.080980
C36   C     C_R   0.565906 0.985484 0.931677 -0.050966
C37   C     C_R   0.040107 0.471672 0.420360 -0.114793
C38   C     C_R   0.041858 0.475331 0.080449 -0.051945
C39   C     C_R   0.059123 0.495894 0.568449 -0.080978
C40   C     C_R   0.065924 0.485527 0.931682 -0.050560
C41   C     C_R   0.654902 0.966927 0.453526 0.281948
C42   C     C_R   0.656545 0.965863 0.049617 0.271686
C43   C     C_R   0.663690 0.978336 0.528982 0.331947
C44   C     C_R   0.669294 0.969890 0.974015 0.246725
C45   C     C_R   0.154901 0.466927 0.453526 0.281947
C46   C     C_R   0.156545 0.465836 0.049613 0.271429
C47   C     C_R   0.163689 0.478336 0.528982 0.331945
C48   C     C_R   0.169306 0.469915 0.974015 0.245868
C49   C     C_R   0.442563 0.997375 0.536043 -0.074668
C50   C     C_R   0.448443 0.997441 0.962959 -0.032745
C51   C     C_R   0.434496 0.989156 0.460346 -0.053904
C52   C     C_R   0.438134 0.993506 0.038864 -0.056711
C53   C     C_R   0.942563 0.497375 0.536043 -0.074673
C54   C     C_R   0.948444 0.497439 0.962966 -0.032057
C55   C     C_R   0.934496 0.489156 0.460345 -0.053902
C56   C     C_R   0.938135 0.493491 0.038871 -0.056709
C57   C     C_R   0.223019 0.018633 0.542447 0.012082
C58   C     C_R   0.230521 0.027290 0.955322 -0.000962
C59   C     C_R   0.211874 0.001994 0.468823 -0.002627
C60   C     C_R   0.215662 0.009786 0.027950 0.009650
C61   C     C_R   0.723019 0.518633 0.542446 0.012080
C62   C     C_R   0.730516 0.527271 0.955331 -0.001019
C63   C     C_R   0.711874 0.501994 0.468822 -0.002627
C64   C     C_R   0.715662 0.509771 0.027961 0.009624
C65   C     C_R   0.120674 0.044795 0.581190 -0.080438
C66   C     C_R   0.130137 0.053650 0.915534 -0.086981
C67   C     C_R   0.091812 0.999211 0.439657 -0.090279
C68   C     C_R   0.093902 0.004096 0.054453 -0.092063
C69   C     C_R   0.620674 0.544795 0.581189 -0.080437
C70   C     C_R   0.630130 0.553633 0.915548 -0.086915
C71   C     C_R   0.591812 0.499211 0.439657 -0.090280
C72   C     C_R   0.593906 0.504088 0.054469 -0.091898
C73   C     C_R   0.006077 0.046620 0.549643 -0.109897
C74   C     C_R   0.012816 0.052780 0.944424 -0.087473
C75   C     C_R   0.992250 0.025307 0.478339 -0.110132
C76   C     C_R   0.994982 0.028439 0.014095 -0.105538
C77   C     C_R   0.506077 0.546620 0.549643 -0.109895
C78   C     C_R   0.512816 0.552777 0.944447 -0.087460
C79   C     C_R   0.492250 0.525307 0.478339 -0.110131
C80   C     C_R   0.494987 0.528444 0.014121 -0.105562
C81   C     C_R   0.186962 0.771620 0.636746 0.561970
C82   C     C_R   0.130354 0.757940 0.854953 0.544037
C83   C     C_R   0.183176 0.229487 0.363276 0.542547
C84   C     C_R   0.133955 0.241841 0.143760 0.558318
C85   C     C_R   0.686962 0.271620 0.636746 0.561972
C86   C     C_R   0.630426 0.257951 0.854984 0.543779
C87   C     C_R   0.683175 0.729487 0.363276 0.542558
C88   C     C_R   0.633980 0.741833 0.143749 0.558675
C89   C     C_R   0.542253 0.769659 0.644728 0.543488
C90   C     C_R   0.496546 0.786854 0.862706 0.555228
C91   C     C_R   0.545531 0.231415 0.353842 0.543138
C92   C     C_R   0.496868 0.212478 0.137148 0.564689
C93   C     C_R   0.042253 0.269659 0.644728 0.543480
C94   C     C_R   0.996574 0.286840 0.862708 0.555208
C95   C     C_R   0.045531 0.731415 0.353842 0.543184
C96   C     C_R   0.996897 0.712481 0.137142 0.564704
C97   C     C_3   0.085155 0.819124 0.466870 -0.124937
C98   C     C_3   0.036446 0.800393 0.028991 -0.098353
C99   C     C_3   0.016590 0.204256 0.517097 -0.137592
C100  C     C_3   0.150583 0.247035 0.960483 -0.141390
C101  C     C_3   0.585154 0.319123 0.466871 -0.124940
C102  C     C_3   0.535740 0.300407 0.028891 -0.098596
C103  C     C_3   0.516590 0.704256 0.517097 -0.137595
C104  C     C_3   0.650601 0.747193 0.960477 -0.141368
C105  C     C_3   0.215743 0.803866 0.495918 -0.174896
C106  C     C_3   0.155998 0.776250 0.991568 -0.109500
C107  C     C_3   0.146010 0.180341 0.491948 -0.169335
C108  C     C_3   0.146083 0.303269 0.019702 -0.109911
C109  C     C_3   0.715742 0.303866 0.495918 -0.174901
C110  C     C_3   0.655678 0.276620 0.991649 -0.109456
C111  C     C_3   0.646010 0.680341 0.491948 -0.169338
C112  C     C_3   0.645910 0.803369 0.019746 -0.110115
C113  C     C_3   0.157354 0.765649 0.560052 0.045902
C114  C     C_3   0.079971 0.750932 0.926983 0.042180
C115  C     C_3   0.145582 0.238876 0.437317 0.041923
C116  C     C_3   0.088288 0.250554 0.071080 0.056416
C117  C     C_3   0.657354 0.265649 0.560052 0.045904
C118  C     C_3   0.580119 0.250919 0.927025 0.041986
C119  C     C_3   0.645581 0.738876 0.437317 0.041919
C120  C     C_3   0.588301 0.750544 0.071071 0.056653
C121  C     C_3   0.028267 0.780902 0.532249 -0.130130
C122  C     C_3   0.960592 0.775568 0.962745 -0.176837
C123  C     C_3   0.018572 0.263051 0.461044 -0.154190
C124  C     C_3   0.093661 0.194040 0.012543 -0.165706
C125  C     C_3   0.528266 0.280901 0.532249 -0.130127
C126  C     C_3   0.460369 0.275199 0.962603 -0.176923
C127  C     C_3   0.518571 0.763051 0.461044 -0.154186
C128  C     C_3   0.593864 0.694084 0.012483 -0.165686
C129  C     C_3   0.030681 0.711531 0.489735 -0.117191
C130  C     C_3   0.946958 0.702491 0.997237 -0.158394
C131  C     C_3   0.079110 0.311710 0.516518 -0.038962
C132  C     C_3   0.962625 0.214961 0.987803 -0.120990
C133  C     C_3   0.530682 0.211531 0.489735 -0.117180
C134  C     C_3   0.447398 0.202131 0.997212 -0.158177
C135  C     C_3   0.579110 0.811710 0.516518 -0.038963
C136  C     C_3   0.462759 0.714888 0.987765 -0.121091
C137  C     C_3   0.159696 0.697778 0.517111 0.254743
C138  C     C_3   0.066954 0.680534 0.960889 0.243529
C139  C     C_3   0.205237 0.287046 0.492011 0.262400
C140  C     C_3   0.961093 0.270767 0.047462 0.210583
C141  C     C_3   0.659697 0.197778 0.517111 0.254751
C142  C     C_3   0.567768 0.180530 0.961067 0.243397
C143  C     C_3   0.705236 0.787046 0.492011 0.262396
C144  C     C_3   0.461041 0.770643 0.047475 0.210608
Cr1   Cr    Cr6+3 0.488160 0.884660 0.750000 1.001163
Cr2   Cr    Cr6+3 0.488160 0.115340 0.250000 1.023878
Cr3   Cr    Cr6+3 0.988160 0.384660 0.750000 1.001272
Cr4   Cr    Cr6+3 0.988160 0.615340 0.250000 1.023826
Cr5   Cr    Cr6+3 0.173480 0.883120 0.750000 1.031000
Cr6   Cr    Cr6+3 0.173480 0.116880 0.250000 1.011130
Cr7   Cr    Cr6+3 0.673480 0.383120 0.750000 1.031044
Cr8   Cr    Cr6+3 0.673480 0.616880 0.250000 1.011184
Cr9   Cr    Cr6+3 0.333410 0.727260 0.750000 1.019301
Cr10  Cr    Cr6+3 0.333410 0.272740 0.250000 1.034444
Cr11  Cr    Cr6+3 0.833410 0.227260 0.750000 1.019257
Cr12  Cr    Cr6+3 0.833410 0.772740 0.250000 1.034470
H1    H     H_    0.928763 0.066436 0.580166 0.191314
H2    H     H_    0.936216 0.071746 0.913117 0.152791
H3    H     H_    0.904825 0.031136 0.452437 0.205870
H4    H     H_    0.905060 0.031596 0.037844 0.175025
H5    H     H_    0.428763 0.566437 0.580165 0.191318
H6    H     H_    0.436216 0.571739 0.913139 0.152498
H7    H     H_    0.404825 0.531136 0.452436 0.205870
H8    H     H_    0.405065 0.531594 0.037874 0.174770
H9    H     H_    0.049995 0.867390 0.442935 0.155694
H10   H     H_    0.023815 0.850058 0.058892 0.144453
H11   H     H_    0.933541 0.173932 0.529090 0.178354
H12   H     H_    0.223621 0.235238 0.920519 0.128221
H13   H     H_    0.549994 0.367390 0.442935 0.155692
H14   H     H_    0.522466 0.350086 0.058682 0.144334
H15   H     H_    0.433540 0.673932 0.529090 0.178352
H16   H     H_    0.723744 0.735582 0.920516 0.128381
H17   H     H_    0.954540 0.800293 0.568529 0.186338
H18   H     H_    0.890894 0.807498 0.934805 0.152684
H19   H     H_    0.949583 0.280633 0.421376 0.118113
H20   H     H_    0.134435 0.143783 0.026630 0.147212
H21   H     H_    0.454540 0.300292 0.568530 0.186339
H22   H     H_    0.390544 0.306896 0.934488 0.152364
H23   H     H_    0.449582 0.780633 0.421376 0.118146
H24   H     H_    0.634761 0.643839 0.026512 0.147023
H25   H     H_    0.955487 0.672920 0.486227 0.106990
H26   H     H_    0.864442 0.669319 0.001335 0.103944
H27   H     H_    0.042491 0.363371 0.529624 0.126220
H28   H     H_    0.886662 0.180134 0.971900 0.130922
H29   H     H_    0.455488 0.172920 0.486227 0.106990
H30   H     H_    0.365125 0.168746 0.001239 0.104085
H31   H     H_    0.542490 0.863372 0.529624 0.126223
H32   H     H_    0.386818 0.680036 0.971878 0.130432
H33   H     H_    0.289548 0.710306 0.417646 0.131047
H34   H     H_    0.216618 0.671337 0.050720 0.136992
H35   H     H_    0.284342 0.215156 0.584754 0.103774
H36   H     H_    0.966408 0.372417 0.985726 0.115350
H37   H     H_    0.789548 0.210307 0.417645 0.131024
H38   H     H_    0.717161 0.172018 0.051113 0.137493
H39   H     H_    0.784342 0.715157 0.584754 0.103778
H40   H     H_    0.465986 0.872371 0.985829 0.115381
H41   H     H_    0.533073 0.958815 0.363371 0.126676
H42   H     H_    0.533884 0.963385 0.137357 0.170115
H43   H     H_    0.571201 0.008476 0.625137 0.158588
H44   H     H_    0.581774 0.993300 0.874673 0.156526
H45   H     H_    0.033073 0.458815 0.363370 0.126661
H46   H     H_    0.033879 0.463357 0.137358 0.170170
H47   H     H_    0.071200 0.508476 0.625137 0.158628
H48   H     H_    0.081775 0.493354 0.874677 0.157098
H49   H     H_    0.073612 0.978274 0.386260 0.154120
H50   H     H_    0.073652 0.981546 0.106496 0.152158
H51   H     H_    0.129831 0.064555 0.636011 0.129357
H52   H     H_    0.142347 0.072648 0.860948 0.126028
H53   H     H_    0.573613 0.478274 0.386260 0.154115
H54   H     H_    0.573659 0.481532 0.106509 0.152188
H55   H     H_    0.629831 0.564555 0.636011 0.129360
H56   H     H_    0.642334 0.572629 0.860960 0.126038
O1    O     O_R   0.575450 0.828820 0.667950 -0.496125
O2    O     O_R   0.575450 0.828820 0.832050 -0.513825
O3    O     O_R   0.575450 0.171180 0.332050 -0.499962
O4    O     O_R   0.575450 0.171180 0.167950 -0.512405
O5    O     O_R   0.075450 0.328820 0.667950 -0.496124
O6    O     O_R   0.075450 0.328820 0.832050 -0.513823
O7    O     O_R   0.075450 0.671180 0.332050 -0.499940
O8    O     O_R   0.075450 0.671180 0.167950 -0.512411
O9    O     O_R   0.416860 0.942890 0.674680 -0.517575
O10   O     O_R   0.416860 0.942890 0.825320 -0.539314
O11   O     O_R   0.416860 0.057110 0.325320 -0.499807
O12   O     O_R   0.416860 0.057110 0.174680 -0.520072
O13   O     O_R   0.916860 0.442890 0.674680 -0.517552
O14   O     O_R   0.916860 0.442890 0.825320 -0.539284
O15   O     O_R   0.916860 0.557110 0.325320 -0.499810
O16   O     O_R   0.916860 0.557110 0.174680 -0.520106
O17   O     O_R   0.213790 0.953680 0.668330 -0.513885
O18   O     O_R   0.213790 0.953680 0.831670 -0.502792
O19   O     O_R   0.213790 0.046320 0.331670 -0.534588
O20   O     O_R   0.213790 0.046320 0.168330 -0.527616
O21   O     O_R   0.713790 0.453680 0.668330 -0.513888
O22   O     O_R   0.713790 0.453680 0.831670 -0.502848
O23   O     O_R   0.713790 0.546320 0.331670 -0.534598
O24   O     O_R   0.713790 0.546320 0.168330 -0.527634
O25   O     O_R   0.121360 0.817890 0.672660 -0.503497
O26   O     O_R   0.121360 0.817890 0.827340 -0.502139
O27   O     O_R   0.121360 0.182110 0.327340 -0.496940
O28   O     O_R   0.121360 0.182110 0.172660 -0.513503
O29   O     O_R   0.621360 0.317890 0.672660 -0.503484
O30   O     O_R   0.621360 0.317890 0.827340 -0.502008
O31   O     O_R   0.621360 0.682110 0.327340 -0.496898
O32   O     O_R   0.621360 0.682110 0.172660 -0.513411
O33   O     O_R   0.206850 0.711370 0.665820 -0.512693
O34   O     O_R   0.206850 0.711370 0.834180 -0.493340
O35   O     O_R   0.206850 0.288630 0.334180 -0.510630
O36   O     O_R   0.206850 0.288630 0.165820 -0.500986
O37   O     O_R   0.706850 0.211370 0.665820 -0.512747
O38   O     O_R   0.706850 0.211370 0.834180 -0.493543
O39   O     O_R   0.706850 0.788630 0.334180 -0.510601
O40   O     O_R   0.706850 0.788630 0.165820 -0.501092
O41   O     O_R   0.457710 0.733190 0.672630 -0.520257
O42   O     O_R   0.457710 0.733190 0.827370 -0.510285
O43   O     O_R   0.457710 0.266810 0.327370 -0.532147
O44   O     O_R   0.457710 0.266810 0.172630 -0.498912
O45   O     O_R   0.957710 0.233190 0.672630 -0.520256
O46   O     O_R   0.957710 0.233190 0.827370 -0.510228
O47   O     O_R   0.957710 0.766810 0.327370 -0.532148
O48   O     O_R   0.957710 0.766810 0.172630 -0.498888
O49   O     O_3   0.331690 0.831680 0.750000 -0.301282
O50   O     O_3   0.331690 0.168320 0.250000 -0.302551
O51   O     O_3   0.831690 0.331680 0.750000 -0.301265
O52   O     O_3   0.831690 0.668320 0.250000 -0.302573
H57   H     H_    0.290942 0.842282 0.500583 0.112252
H58   H     H_    0.238479 0.808992 0.984938 0.153198
H59   H     H_    0.180874 0.130711 0.471901 0.145906
H60   H     H_    0.227878 0.334274 0.032241 0.172185
H61   H     H_    0.790941 0.342282 0.500583 0.112249
H62   H     H_    0.737900 0.309603 0.985115 0.153440
H63   H     H_    0.680873 0.630711 0.471901 0.145905
H64   H     H_    0.727657 0.834400 0.032315 0.172178
O53   O     O_3   0.201229 0.634070 0.542545 -0.701096
H65   H     H_    0.142110 0.621261 0.580720 0.337773
O54   O     O_3   0.085977 0.621010 0.919940 -0.703168
H66   H     H_    0.021856 0.621755 0.881942 0.312948
O55   O     O_3   0.300718 0.332383 0.477895 -0.692678
H67   H     H_    0.345432 0.312644 0.436181 0.352743
O56   O     O_3   0.866552 0.284704 0.096647 -0.716627
H68   H     H_    0.858214 0.242190 0.126020 0.331288
O57   O     O_3   0.701230 0.134070 0.542544 -0.701099
H69   H     H_    0.642111 0.121261 0.580719 0.337759
O58   O     O_3   0.587715 0.120941 0.920366 -0.702881
H70   H     H_    0.523965 0.121417 0.882143 0.313115
O59   O     O_3   0.800717 0.832383 0.477894 -0.692673
H71   H     H_    0.845435 0.812640 0.436183 0.352733
O60   O     O_3   0.366465 0.784404 0.096695 -0.716320
H72   H     H_    0.357794 0.741686 0.125707 0.331382
O61   O     O_3   0.757683 0.950209 0.413422 -0.707376
H73   H     H_    0.734952 0.944161 0.361810 0.331276
O62   O     O_3   0.751510 0.948463 0.095407 -0.720761
H74   H     H_    0.822384 0.931846 0.066673 0.342879
O63   O     O_3   0.770032 0.968670 0.567562 -0.696987
H75   H     H_    0.829756 0.943547 0.536934 0.393655
O64   O     O_3   0.781434 0.955957 0.942407 -0.748390
H76   H     H_    0.773924 0.959086 0.889060 0.327405
O65   O     O_3   0.257683 0.450209 0.413422 -0.707381
H77   H     H_    0.234952 0.444161 0.361811 0.331270
O66   O     O_3   0.251494 0.448387 0.095392 -0.720708
H78   H     H_    0.322377 0.431809 0.066644 0.342878
O67   O     O_3   0.270032 0.468671 0.567562 -0.696976
H79   H     H_    0.329756 0.443548 0.536934 0.393654
O68   O     O_3   0.281441 0.455980 0.942402 -0.748356
H80   H     H_    0.273939 0.459154 0.889058 0.327393

loop_
_geom_bond_atom_site_label_1
_geom_bond_atom_site_label_2
_ccdc_geom_bond_type
C6    C32   S    
C7    C29   S    
C119  C143  S    
O62   H74   S    
C34   C42   A    
C75   H3    S    
C110  C118  S    
O67   H79   S    
Cr5   O18   S    
C4    O20   A    
C89   O1    A    
C16   C144  S    
Cr8   O32   S    
C30   C64   A    
C57   C59   A    
Cr1   O9    S    
C58   C60   A    
Cr6   O20   S    
C62   C70   A    
C1    O9    A    
C61   C63   A    
C91   O3    A    
C121  H17   S    
C49   C51   A    
C120  C144  S    
C50   C52   A    
C23   C89   S    
C128  H24   S    
C67   H49   S    
C88   O40   A    
Cr11  O51   S    
C14   H38   S    
C144  O60   S    
C41   C43   A    
C47   O67   S    
C42   C44   A    
C20   C132  S    
C9    H33   S    
C21   C133  S    
Cr3   O14   S    
C99   H11   S    
Cr10  O43   S    
C45   C47   A    
C12   H36   S    
C46   C48   A    
C115  C123  S    
C27   C57   A    
C57   C65   A    
C112  C120  S    
Cr11  O46   S    
C19   C99   S    
C29   C55   A    
C96   O8    A    
Cr7   O22   S    
C30   C56   A    
C100  C124  S    
Cr3   O5    S    
C81   O33   A    
C91   O43   A    
O68   H80   S    
C104  C128  S    
C86   O30   A    
Cr9   O34   S    
C12   C20   S    
C120  C128  S    
C13   C21   S    
C85   C117  S    
C93   O45   A    
C63   C71   A    
C43   O63   S    
C113  C137  S    
C36   C44   A    
C33   C51   A    
C37   C45   A    
C130  C138  S    
C90   O2    A    
C36   C50   A    
C39   C47   A    
C40   C48   A    
C20   C94   S    
C133  C141  S    
C97   C105  S    
C139  O55   S    
C24   C90   S    
Cr8   O24   S    
C28   C58   A    
C98   C106  S    
C33   C41   A    
C68   H50   S    
C7    O15   A    
C10   C18   S    
C5    O13   A    
C126  H22   S    
Cr4   O7    S    
C32   C62   A    
Cr1   O2    S    
C129  C137  S    
C126  C134  S    
Cr6   O27   S    
C38   H46   S    
C83   O35   A    
C10   C138  S    
C101  C109  S    
C102  H14   S    
C14   C142  S    
C85   O37   A    
C70   H56   S    
C134  H30   S    
C69   C77   A    
Cr4   O16   S    
C71   C79   A    
C8    O16   A    
Cr12  O39   S    
C35   H43   S    
C87   O39   A    
C74   C76   A    
C105  C113  S    
C78   C80   A    
C9    C105  S    
C66   C74   A    
C73   H1    S    
C124  C132  S    
C93   O5    A    
C108  H60   S    
C97   C121  S    
C59   C67   A    
Cr12  O52   S    
C40   H48   S    
C71   H53   S    
C35   C49   A    
C62   C64   A    
Cr2   O50   S    
Cr9   O49   S    
C133  H29   S    
C24   C136  S    
C135  C143  S    
C90   O42   A    
C84   C116  S    
O55   H67   S    
C136  H32   S    
C103  H15   S    
C131  H27   S    
C135  H31   S    
C23   C103  S    
C100  C108  S    
C82   O34   A    
C83   C115  S    
C3    O19   A    
C110  H62   S    
C122  H18   S    
C104  C112  S    
C87   C119  S    
O63   H75   S    
Cr7   O29   S    
Cr2   O12   S    
C34   H42   S    
C95   O7    A    
O61   H73   S    
Cr4   O52   S    
C98   H10   S    
C69   H55   S    
C40   C54   A    
Cr1   O49   S    
C15   C143  S    
C10   C106  S    
C67   C75   A    
C14   C110  S    
C42   O62   S    
C3    O11   A    
C102  C126  S    
C123  H19   S    
C65   H51   S    
C68   C76   A    
C138  O54   S    
C84   O36   A    
C127  H23   S    
C14   C22   S    
Cr9   O41   S    
C72   C80   A    
C125  H21   S    
C94   O46   A    
C81   O25   A    
C11   H35   S    
C114  C138  S    
C38   C46   A    
C131  C139  S    
C2    O18   A    
C37   C55   A    
C38   C56   A    
Cr10  O35   S    
O58   H70   S    
C22   C92   S    
C25   C59   A    
C17   C97   S    
C27   C49   A    
C119  C127  S    
C29   C63   A    
C39   H47   S    
C73   C75   A    
C31   C61   A    
O54   H66   S    
C111  H63   S    
C48   O68   S    
Cr3   O13   S    
C109  C117  S    
Cr10  O44   S    
C11   C19   S    
C127  C135  S    
C128  C136  S    
Cr11  O45   S    
C107  H59   S    
C61   C69   A    
Cr7   O21   S    
C2    O10   A    
C103  C111  S    
Cr5   O49   S    
C11   C139  S    
C80   H8    S    
C9    C137  S    
Cr9   O33   S    
O56   H68   S    
C12   C140  S    
C101  H13   S    
C17   C95   S    
C13   C141  S    
C88   C120  S    
Cr2   O3    S    
C19   C93   S    
Cr7   O51   S    
C104  H16   S    
Cr12  O47   S    
C15   H39   S    
Cr8   O52   S    
C77   C79   A    
C13   H37   S    
C77   H5    S    
C32   C54   A    
Cr11  O37   S    
C7    O23   A    
C106  H58   S    
C74   H2    S    
C3    C25   S    
C46   O66   S    
Cr8   O31   S    
C79   H7    S    
O64   H76   S    
Cr1   O10   S    
Cr6   O19   S    
C45   O65   S    
C117  C141  S    
O66   H78   S    
O59   H71   S    
C16   H40   S    
C142  O58   S    
C134  C142  S    
C66   H52   S    
C109  H61   S    
O60   H72   S    
C20   C100  S    
C96   O48   A    
C85   O29   A    
Cr5   O26   S    
C86   C118  S    
Cr4   O8    S    
C141  O57   S    
Cr6   O50   S    
Cr1   O1    S    
C92   O44   A    
C22   C134  S    
C143  O59   S    
Cr6   O28   S    
C102  C110  S    
C16   C112  S    
C12   C108  S    
C21   C91   S    
C116  C124  S    
C123  C131  S    
C36   H44   S    
C121  C129  S    
C88   O32   A    
C4    C26   S    
Cr12  O40   S    
C132  C140  S    
C99   C107  S    
C34   C52   A    
C23   C135  S    
C8    C30   S    
C108  C116  S    
Cr5   O17   S    
C136  C144  S    
Cr3   O6    S    
C132  H28   S    
C39   C53   A    
C97   H9    S    
C6    O14   A    
C92   O4    A    
C60   C68   A    
C81   C113  S    
Cr5   O25   S    
C37   H45   S    
C124  H20   S    
C105  H57   S    
C86   O38   A    
Cr9   O42   S    
C70   C78   A    
C18   C96   S    
O65   H77   S    
C35   C43   A    
C112  H64   S    
Cr8   O23   S    
C95   O47   A    
C10   H34   S    
C106  C114  S    
Cr10  O50   S    
C111  C119  S    
C94   O6    A    
C65   C73   A    
C5    C31   S    
C28   C50   A    
C58   C66   A    
C72   H54   S    
C44   O64   S    
C13   C109  S    
C21   C101  S    
C15   C23   S    
C16   C24   S    
C5    O21   A    
C140  O56   S    
C84   O28   A    
Cr4   O15   S    
Cr11  O38   S    
C53   C55   A    
C19   C131  S    
C83   O27   A    
C17   C129  S    
C15   C111  S    
C82   C114  S    
C130  H26   S    
O57   H69   S    
C4    O12   A    
C24   C104  S    
C25   C51   A    
C26   C52   A    
C87   O31   A    
C33   H41   S    
O53   H65   S    
C113  C121  S    
C31   C53   A    
C107  C115  S    
C98   C122  S    
C9    C17   S    
Cr10  O36   S    
C78   H6    S    
C11   C107  S    
C8    O24   A    
C103  C127  S    
C99   C123  S    
C125  C133  S    
C129  H25   S    
C76   H4    S    
C115  C139  S    
C118  C142  S    
C2    C28   S    
C54   C56   A    
C41   O61   S    
C18   C98   S    
C22   C102  S    
C100  H12   S    
Cr7   O30   S    
Cr2   O11   S    
C26   C60   A    
C82   O26   A    
C137  O53   S    
C64   C72   A    
C6    O22   A    
C18   C130  S    
C114  C122  S    
C1    O17   A    
C1    C27   S    
C89   O41   A    
C118  C126  S    
C116  C140  S    
C117  C125  S    
Cr3   O51   S    
C101  C125  S    
C122  C130  S    
Cr2   O4    S    
Cr12  O48   S    
