data_str_m9_o16_o22_f0_sra.sym.8
_audit_creation_date              2012-12-11T15:11:52-0500
_audit_creation_method            fapswitch 2.2
_symmetry_space_group_name_H-M    P1
_symmetry_Int_Tables_number       1
_space_group_crystal_system       triclinic
_cell_length_a                    20.042851
_cell_length_b                    7.120715
_cell_length_c                    13.765476
_cell_angle_alpha                 89.999859
_cell_angle_beta                  103.384904
_cell_angle_gamma                 89.999909
_cell_volume                      1911.23624301

loop_
_atom_site_label
_atom_site_type_symbol
_atom_type_description
_atom_site_fract_x
_atom_site_fract_y
_atom_site_fract_z
_atom_type_partial_charge
O1    O     O_R   0.449830 0.506740 0.599960 -0.536148
O2    O     O_R   0.550170 0.006740 0.400040 -0.536143
O3    O     O_R   0.588980 0.179860 0.596720 -0.547995
O4    O     O_R   0.411020 0.679860 0.403280 -0.547997
C1    C     C_R   0.616662 0.344211 0.617746 0.660833
C2    C     C_R   0.383336 0.844210 0.382257 0.660833
O5    O     O_R   0.452740 0.177340 0.612040 -0.536726
O6    O     O_R   0.547260 0.677340 0.387960 -0.536727
O7    O     O_R   0.412960 0.002070 0.415460 -0.544125
O8    O     O_R   0.587040 0.502070 0.584540 -0.544128
C3    C     C_R   0.436966 0.345851 0.638089 0.710009
C4    C     C_R   0.563033 0.845851 0.361910 0.710014
O9    O     O_3   0.487110 0.337570 0.435490 -0.373061
O10   O     O_3   0.512890 0.837570 0.564510 -0.373063
V1    V     V_3+5 0.502390 0.064650 0.511970 1.440564
V2    V     V_3+5 0.497610 0.564650 0.488030 1.440557
C5    C     C_R   0.603912 0.857229 0.110570 0.328018
C6    C     C_R   0.396089 0.356939 0.889436 0.328016
H1    H     H_    0.511567 0.852823 0.164297 0.155206
H2    H     H_    0.488434 0.352474 0.835709 0.155214
H3    H     H_    0.687332 0.857921 0.985132 0.197451
H4    H     H_    0.312668 0.357688 0.014874 0.197448
C7    C     C_R   0.601532 0.853919 0.284709 -0.091375
C8    C     C_R   0.398469 0.353906 0.715293 -0.091377
C9    C     C_R   0.931098 0.858881 0.314446 -0.201845
C10   C     C_R   0.068902 0.358722 0.685553 -0.201847
C11   C     C_R   0.895391 0.855866 0.389312 -0.112432
C12   C     C_R   0.104608 0.355419 0.610688 -0.112422
C13   C     C_R   0.824120 0.855014 0.365652 -0.136935
C14   C     C_R   0.175880 0.354499 0.634349 -0.136923
C15   C     C_R   0.785933 0.856556 0.265004 0.052939
C16   C     C_R   0.214067 0.356353 0.735000 0.052935
C17   C     C_R   0.822722 0.857887 0.187421 0.017656
C18   C     C_R   0.177278 0.357803 0.812583 0.017649
C19   C     C_R   0.712411 0.856798 0.239427 0.037760
C20   C     C_R   0.287589 0.356690 0.760576 0.037760
C21   C     C_R   0.676551 0.857743 0.137199 0.003297
C22   C     C_R   0.323450 0.357534 0.862806 0.003295
C23   C     C_R   0.713507 0.858098 0.063259 -0.192678
C24   C     C_R   0.286493 0.357904 0.936746 -0.192675
C25   C     C_R   0.784581 0.857718 0.086632 0.282134
C26   C     C_R   0.215418 0.357642 0.913373 0.282139
C27   C     C_R   0.672968 0.855538 0.312200 -0.204069
C28   C     C_R   0.327032 0.355676 0.687802 -0.204067
C29   C     C_R   0.567148 0.854724 0.184680 -0.127632
C30   C     C_R   0.432853 0.354478 0.815326 -0.127635
C31   C     C_R   0.896096 0.859902 0.214186 -0.065219
C32   C     C_R   0.103905 0.359872 0.785815 -0.065225
H5    H     H_    0.695652 0.854242 0.391142 0.093353
H6    H     H_    0.304349 0.354749 0.608855 0.093357
H7    H     H_    0.986691 0.860818 0.334879 0.090528
H8    H     H_    0.013309 0.360681 0.665117 0.090533
H9    H     H_    0.800852 0.853209 0.428639 0.096802
H10   H     H_    0.199147 0.352258 0.571361 0.096799
H11   H     H_    0.923254 0.854902 0.466759 0.114125
H12   H     H_    0.076744 0.354229 0.533238 0.114117
C33   C     C_3   0.223634 0.668830 0.184506 -0.282429
C34   C     C_3   0.776336 0.168903 0.815580 -0.282396
H13   H     H_    0.190907 0.550076 0.198105 0.185256
H14   H     H_    0.809039 0.050088 0.801986 0.185327
H15   H     H_    0.233236 0.657090 0.108551 0.200771
H16   H     H_    0.766759 0.157256 0.891555 0.200688
C35   C     C_3   0.293354 0.657841 0.260566 -0.326707
C36   C     C_3   0.706601 0.157925 0.739552 -0.326659
H17   H     H_    0.333603 0.613954 0.221406 0.162302
H18   H     H_    0.666349 0.114261 0.778760 0.162303
H19   H     H_    0.290705 0.547806 0.317043 0.141967
H20   H     H_    0.709208 0.047730 0.683138 0.141988
H21   H     H_    0.153333 0.772453 0.324580 0.129431
H22   H     H_    0.846670 0.272183 0.675471 0.129416
H23   H     H_    0.259478 0.794868 0.433627 0.127114
H24   H     H_    0.740521 0.294424 0.566430 0.127118
C37   C     C_3   0.183104 0.888887 0.301032 -0.344523
C38   C     C_3   0.816901 0.388683 0.698961 -0.344504
C39   C     C_3   0.234641 0.014710 0.165265 -0.275188
C40   C     C_3   0.765380 0.514830 0.834677 -0.275143
C41   C     C_3   0.187310 0.858668 0.190842 0.066331
C42   C     C_3   0.812688 0.358667 0.809163 0.066282
H25   H     H_    0.213733 0.153052 0.180582 0.204492
H26   H     H_    0.786323 0.653121 0.819348 0.204423
H27   H     H_    0.236074 0.006386 0.085086 0.180819
H28   H     H_    0.763925 0.506576 0.914849 0.180890
C43   C     C_3   0.312221 0.850258 0.313033 0.101838
C44   C     C_3   0.687777 0.350260 0.686973 0.101799
C45   C     C_3   0.256366 0.896540 0.371351 -0.309167
C46   C     C_3   0.743642 0.396272 0.628629 -0.309159
C47   C     C_3   0.308575 0.000267 0.230540 -0.343184
C48   C     C_3   0.691451 0.500460 0.769379 -0.343110
H29   H     H_    0.344528 0.962701 0.182924 0.160916
H30   H     H_    0.655471 0.463130 0.816996 0.160896
H31   H     H_    0.324598 0.139966 0.264256 0.157143
H32   H     H_    0.675479 0.640129 0.735579 0.157096
H33   H     H_    0.155413 0.021800 0.308051 0.131833
H34   H     H_    0.844597 0.521560 0.691885 0.131823
H35   H     H_    0.265712 0.038918 0.405108 0.133195
H36   H     H_    0.734315 0.538569 0.594767 0.133182
O11   O     O_R   0.912980 0.203550 0.915410 -0.525197
O12   O     O_R   0.087020 0.703550 0.084590 -0.525192
O13   O     O_R   0.047270 0.535570 0.887960 -0.534599
O14   O     O_R   0.952730 0.035570 0.112040 -0.534603
C49   C     C_R   0.061585 0.367749 0.859444 0.779437
C50   C     C_R   0.938415 0.867751 0.140555 0.779429
O15   O     O_R   0.911030 0.532970 0.903270 -0.526790
O16   O     O_R   0.088970 0.032970 0.096730 -0.526785
O17   O     O_R   0.949820 0.708150 0.099970 -0.522707
O18   O     O_R   0.050180 0.208150 0.900030 -0.522706
C51   C     C_R   0.883862 0.364826 0.880933 0.661963
C52   C     C_R   0.116136 0.864826 0.119070 0.661968
O19   O     O_3   0.012900 0.375230 0.064480 -0.365458
O20   O     O_3   0.987100 0.875230 0.935520 -0.365460
V3    V     V_3+5 0.997610 0.648190 0.988040 1.527293
V4    V     V_3+5 0.002390 0.148190 0.011960 1.527288
Br1   Br    Br    0.551191 0.858399 0.974495 -0.538310
Br2   Br    Br    0.448811 0.357924 0.025513 -0.538299
Cl1   Cl    Cl    0.820439 0.854382 0.982444 -0.768317
Cl2   Cl    Cl    0.179557 0.354398 0.017558 -0.768295

loop_
_geom_bond_atom_site_label_1
_geom_bond_atom_site_label_2
_ccdc_geom_bond_type
C34   H16   S    
C43   C47   S    
C35   H17   S    
C7    C29   A    
C47   H31   S    
C11   C13   A    
C38   H34   S    
O1    C3    A    
C37   H33   S    
O2    C4    A    
C6    Br2   S    
C2    O7    A    
C12   H12   S    
C5    Br1   S    
C23   C25   A    
O18   V4    S    
O5    C3    A    
C14   H10   S    
C4    C7    S    
C13   H9    S    
C16   C20   A    
C19   C21   A    
C44   C46   S    
O19   V3    S    
C11   H11   S    
C33   H13   S    
C34   H14   S    
C3    C8    S    
O12   C52   A    
C50   O17   A    
O15   V3    S    
O20   V3    S    
C36   C44   S    
C28   H6    S    
H23   C45   S    
C48   H32   S    
C18   C26   A    
H22   C38   S    
C15   C17   A    
H21   C37   S    
C2    C43   S    
C19   C27   A    
C9    C31   A    
C10   C32   A    
C24   C26   A    
O17   V3    S    
H4    C24   S    
O6    V2    S    
C31   C50   S    
C25   Cl1   S    
C6    C30   A    
C33   C35   S    
C34   C36   S    
C35   H19   S    
C40   C42   S    
C44   C48   S    
O4    C2    A    
O19   V4    S    
C40   H28   S    
O16   V4    S    
C1    C44   S    
C27   H5    S    
O5    V1    S    
C35   C43   S    
C42   C51   S    
C36   H18   S    
O4    V2    S    
C9    H7    S    
C10   H8    S    
H3    C23   S    
O6    C4    A    
O13   V3    S    
O14   C50   A    
O1    V2    S    
C5    C21   A    
C38   C46   S    
O2    V1    S    
C39   C41   S    
C37   C45   S    
C46   H36   S    
C39   C47   S    
C43   C45   S    
C48   H30   S    
O14   V4    S    
C47   H29   S    
C17   C31   A    
C15   C19   A    
C20   C28   A    
C18   C32   A    
C36   H20   S    
O16   C52   A    
O3    V1    S    
C26   Cl2   S    
C49   O18   A    
O11   V4    S    
C40   C48   S    
O12   V3    S    
O13   C49   A    
C7    C27   A    
C41   C52   S    
C39   H27   S    
C40   H26   S    
C5    C29   A    
O3    C1    A    
H24   C46   S    
H1    C29   S    
C33   H15   S    
C9    C11   A    
C10   C12   A    
C8    C30   A    
C33   C41   S    
C20   C22   A    
C6    C22   A    
C17   C25   A    
C1    O8    A    
C13   C15   A    
O8    V2    S    
C14   C16   A    
C45   H35   S    
C22   C24   A    
C8    C28   A    
C32   C49   S    
C12   C14   A    
O7    V1    S    
O20   V4    S    
C34   C42   S    
O11   C51   A    
C21   C23   A    
C38   C42   S    
O9    V2    S    
C37   C41   S    
O10   V1    S    
O15   C51   A    
C39   H25   S    
H2    C30   S    
C16   C18   A    
