data_str_m9_o11_o18_f0_sra.sym.42
_audit_creation_date              2012-12-11T14:21:15-0500
_audit_creation_method            fapswitch 2.2
_symmetry_space_group_name_H-M    P1
_symmetry_Int_Tables_number       1
_space_group_crystal_system       triclinic
_cell_length_a                    21.944588
_cell_length_b                    7.203134
_cell_length_c                    14.904401
_cell_angle_alpha                 89.999895
_cell_angle_beta                  107.01818
_cell_angle_gamma                 89.9999
_cell_volume                      2252.77394054

loop_
_atom_site_label
_atom_site_type_symbol
_atom_type_description
_atom_site_fract_x
_atom_site_fract_y
_atom_site_fract_z
_atom_type_partial_charge
O1    O     O_R   0.584770 0.505770 0.002090 -0.538348
O2    O     O_R   0.415230 0.005770 0.997910 -0.538348
O3    O     O_R   0.467060 0.173340 0.861950 -0.535388
O4    O     O_R   0.532940 0.673340 0.138050 -0.535387
C1    C     C_R   0.455876 0.344602 0.825798 0.671535
C2    C     C_R   0.544124 0.844602 0.174202 0.671540
O5    O     O_R   0.587510 0.175890 0.993210 -0.545595
O6    O     O_R   0.412490 0.675890 0.006790 -0.545595
O7    O     O_R   0.536540 0.008150 0.130100 -0.534530
O8    O     O_R   0.463460 0.508150 0.869900 -0.534530
C3    C     C_R   0.612233 0.345205 0.994052 0.611183
C4    C     C_R   0.387767 0.845205 0.005948 0.611187
O9    O     O_3   0.483140 0.340040 0.044760 -0.374345
O10   O     O_3   0.516860 0.840040 0.955240 -0.374347
V1    V     V_3+5 0.503130 0.064190 0.991700 1.408087
V2    V     V_3+5 0.496870 0.564190 0.008300 1.408089
C5    C     C_2   0.213231 0.730372 0.996589 -0.081506
C6    C     C_2   0.786769 0.230373 0.003412 -0.081510
C7    C     C_2   0.178788 0.887543 0.990079 -0.259918
C8    C     C_2   0.821211 0.387543 0.009921 -0.259919
H1    H     H_    0.191367 0.597666 0.002875 0.139529
H2    H     H_    0.808633 0.097666 0.997126 0.139527
H3    H     H_    0.198686 0.018962 0.976825 0.177524
H4    H     H_    0.801314 0.518962 0.023175 0.177523
C9    C     C_2   0.279257 0.725426 0.987968 -0.150061
C10   C     C_2   0.720744 0.225426 0.012032 -0.150058
C11   C     C_2   0.323165 0.860317 0.019205 0.212727
C12   C     C_2   0.676835 0.360317 0.980795 0.212728
H5    H     H_    0.292467 0.601077 0.956850 0.094315
H6    H     H_    0.707534 0.101076 0.043151 0.094315
C13   C     C_R   0.925839 0.879766 0.723754 -0.051420
C14   C     C_R   0.074161 0.379763 0.276246 -0.051420
C15   C     C_R   0.570327 0.855050 0.276442 -0.122148
C16   C     C_R   0.429673 0.355052 0.723558 -0.122145
C17   C     C_R   0.930544 0.753890 0.575952 -0.170166
C18   C     C_R   0.069456 0.253880 0.424047 -0.170166
C19   C     C_R   0.959103 0.786257 0.670766 -0.251999
C20   C     C_R   0.040897 0.286253 0.329233 -0.251999
C21   C     C_R   0.863100 0.940898 0.681708 0.268687
C22   C     C_R   0.136901 0.440888 0.318291 0.268687
C23   C     C_R   0.829562 0.878767 0.589167 0.007958
C24   C     C_R   0.170438 0.378754 0.410832 0.007958
C25   C     C_R   0.866096 0.796774 0.535083 0.111929
C26   C     C_R   0.133904 0.296759 0.464915 0.111930
C27   C     C_R   0.761576 0.886749 0.549648 -0.008355
C28   C     C_R   0.238424 0.386734 0.450351 -0.008368
C29   C     C_R   0.733502 0.846514 0.452434 0.082767
C30   C     C_R   0.266499 0.346497 0.547565 0.082769
C31   C     C_R   0.773273 0.781256 0.399863 -0.170699
C32   C     C_R   0.226728 0.281236 0.600135 -0.170698
C33   C     C_R   0.837837 0.752734 0.441190 -0.186638
C34   C     C_R   0.162164 0.252714 0.558809 -0.186637
C35   C     C_R   0.720594 0.917054 0.605683 -0.268781
C36   C     C_R   0.279406 0.417039 0.394315 -0.268755
C37   C     C_R   0.654451 0.924041 0.567407 0.403414
C38   C     C_R   0.345549 0.424034 0.432591 0.403413
C39   C     C_R   0.626895 0.900291 0.470468 -0.033626
C40   C     C_R   0.373105 0.400290 0.529531 -0.033652
C41   C     C_R   0.666129 0.863062 0.411920 0.025493
C42   C     C_R   0.333872 0.363051 0.588079 0.025501
C43   C     C_R   0.560228 0.909262 0.431610 -0.124949
C44   C     C_R   0.439772 0.409279 0.568391 -0.124973
C45   C     C_R   0.531398 0.883815 0.335703 0.318870
C46   C     C_R   0.468602 0.383833 0.664298 0.318912
C47   C     C_R   0.636478 0.846030 0.314396 -0.227274
C48   C     C_R   0.363523 0.346018 0.685603 -0.227277
H7    H     H_    0.865839 0.693077 0.399317 0.118768
H8    H     H_    0.134163 0.193056 0.600681 0.118768
H9    H     H_    0.663647 0.831714 0.265100 0.111200
H10   H     H_    0.336354 0.331691 0.734898 0.111200
H11   H     H_    0.958069 0.686793 0.535488 0.127957
H12   H     H_    0.041932 0.186783 0.464511 0.127957
H13   H     H_    0.007641 0.740327 0.702837 0.125210
H14   H     H_    0.992358 0.240327 0.297163 0.125209
H15   H     H_    0.755374 0.738694 0.327647 0.117587
H16   H     H_    0.244627 0.238671 0.672351 0.117586
H17   H     H_    0.738491 0.927565 0.680971 0.185916
H18   H     H_    0.261510 0.427542 0.319027 0.185932
H19   H     H_    0.529747 0.934358 0.475909 0.173522
H20   H     H_    0.470252 0.434391 0.524093 0.173515
O11   O     O_R   0.036450 0.233070 0.130130 -0.545593
O12   O     O_R   0.963550 0.733070 0.869870 -0.545593
O13   O     O_R   0.912470 0.560570 0.006790 -0.546177
O14   O     O_R   0.087530 0.060570 0.993210 -0.546176
C49   C     C_R   0.887327 0.391906 0.003911 0.714711
C50   C     C_R   0.112673 0.891906 0.996089 0.714711
O15   O     O_R   0.032920 0.562940 0.138050 -0.525433
O16   O     O_R   0.967080 0.062940 0.861950 -0.525432
O17   O     O_R   0.084790 0.730500 0.002090 -0.532068
O18   O     O_R   0.915210 0.230500 0.997910 -0.532068
C51   C     C_R   0.045464 0.394081 0.174574 0.741516
C52   C     C_R   0.954535 0.894082 0.825426 0.741514
O19   O     O_3   0.016820 0.396170 0.955260 -0.382377
O20   O     O_3   0.983180 0.896170 0.044740 -0.382378
V3    V     V_3+5 0.996880 0.672090 0.008300 1.463110
V4    V     V_3+5 0.003120 0.172090 0.991700 1.463112
O21   O     O_3   0.838123 0.067435 0.730779 -0.651370
H21   H     H_    0.810892 0.154347 0.684497 0.296503
O22   O     O_3   0.161879 0.567424 0.269221 -0.651369
H22   H     H_    0.189110 0.654333 0.315503 0.296505
O23   O     O_3   0.308440 0.010490 0.067012 -0.643781
H23   H     H_    0.347281 0.086258 0.093067 0.289037
O24   O     O_3   0.691560 0.510490 0.932988 -0.643786
H24   H     H_    0.652719 0.586259 0.906933 0.289028
O25   O     O_3   0.465606 0.889397 0.303718 -0.645798
H25   H     H_    0.450868 0.861293 0.235809 0.270861
O26   O     O_3   0.534394 0.389432 0.696284 -0.645801
H26   H     H_    0.549132 0.361330 0.764193 0.270846
O27   O     O_3   0.617129 0.972391 0.624291 -0.547250
C53   C     C_3   0.606664 0.813659 0.673290 0.081923
H27   H     H_    0.652301 0.759835 0.720868 0.137845
H28   H     H_    0.582806 0.702095 0.623542 0.152033
C54   C     C_3   0.563476 0.865988 0.732781 -0.597600
H29   H     H_    0.516862 0.916399 0.687093 0.215965
H30   H     H_    0.555250 0.743227 0.772745 0.180355
H31   H     H_    0.586020 0.977231 0.783223 0.215154
O28   O     O_3   0.382868 0.472388 0.375704 -0.547246
C55   C     C_3   0.393363 0.313632 0.326747 0.081959
H32   H     H_    0.347734 0.259658 0.279213 0.137856
H33   H     H_    0.417267 0.202171 0.376526 0.152005
C56   C     C_3   0.436509 0.365990 0.267198 -0.597651
H34   H     H_    0.483112 0.416581 0.312839 0.215997
H35   H     H_    0.444768 0.243202 0.227279 0.180372
H36   H     H_    0.413913 0.477112 0.216714 0.215136

loop_
_geom_bond_atom_site_label_1
_geom_bond_atom_site_label_2
_ccdc_geom_bond_type
C40   C44   A    
O16   V4    S    
O4    V2    S    
O23   H23   S    
O15   C51   A    
C38   O28   S    
C35   H17   S    
C6    C10   S    
C7    C50   S    
O2    C4    A    
C16   C48   A    
C2    O7    A    
O21   H21   S    
C15   C47   A    
C29   C31   A    
O5    C3    A    
C44   H20   S    
C17   C19   A    
O14   C50   A    
O14   V4    S    
C39   C41   A    
C14   C51   S    
C40   C42   A    
O12   C52   A    
C24   C28   A    
C27   C29   A    
C43   C45   A    
C55   H32   S    
C56   H36   S    
C44   C46   A    
C53   H28   S    
C53   H27   S    
C8    H4    S    
C13   C21   A    
C31   C33   A    
O15   V3    S    
C32   C34   A    
O26   H26   S    
C31   H15   S    
C14   C20   A    
C45   O25   S    
C17   C25   A    
C34   H8    S    
O6    C4    A    
C54   H31   S    
C26   C34   A    
C30   C32   A    
C17   H11   S    
O6    V2    S    
C1    C16   S    
C23   C25   A    
C24   C26   A    
C22   O22   S    
C30   C42   A    
C28   C30   A    
C35   C37   A    
C9    H5    S    
C36   C38   A    
C4    C11   S    
O16   C52   A    
C21   C23   A    
O11   V4    S    
C11   O23   S    
C5    H1    S    
C13   C19   A    
C55   C56   S    
O17   V3    S    
C7    H3    S    
C32   H16   S    
O22   H22   S    
C15   C45   A    
O13   V3    S    
C8    C49   S    
C28   C36   A    
C16   C46   A    
O1    V2    S    
C33   H7    S    
C39   C43   A    
O2    V1    S    
C53   C54   S    
C56   H34   S    
C42   C48   A    
O4    C2    A    
O13   C49   A    
C10   H6    S    
O19   V4    S    
C37   C39   A    
C18   C26   A    
O3    V1    S    
C46   O26   S    
C54   H29   S    
C20   H14   S    
C19   H13   S    
O12   V3    S    
C6    H2    S    
C22   C24   A    
O3    C1    A    
C50   O17   A    
C49   O18   A    
O18   V4    S    
C9    C11   D    
O25   H25   S    
C10   C12   D    
C2    C15   S    
C5    C9    S    
C18   C20   A    
O7    V1    S    
C1    O8    A    
O8    V2    S    
O27   C53   S    
C41   C47   A    
C12   O24   S    
C25   C33   A    
C48   H10   S    
C3    C12   S    
C43   H19   S    
C47   H9    S    
C27   C35   A    
O5    V1    S    
C5    C7    D    
C38   C40   A    
C6    C8    D    
C14   C22   A    
O20   V3    S    
C55   H33   S    
C56   H35   S    
C21   O21   S    
C29   C41   A    
O11   C51   A    
C13   C52   S    
O9    V2    S    
O24   H24   S    
C23   C27   A    
O10   V1    S    
O1    C3    A    
C54   H30   S    
O28   C55   S    
C37   O27   S    
C18   H12   S    
C36   H18   S    
