data_str_m9_o2_o16_f0_sra.sym.77
_audit_creation_date              2012-12-11T16:25:35-0500
_audit_creation_method            fapswitch 2.2
_symmetry_space_group_name_H-M    P1
_symmetry_Int_Tables_number       1
_space_group_crystal_system       triclinic
_cell_length_a                    19.934684
_cell_length_b                    7.30432
_cell_length_c                    14.142273
_cell_angle_alpha                 90.001431
_cell_angle_beta                  103.254305
_cell_angle_gamma                 89.999441
_cell_volume                      2004.39248655

loop_
_atom_site_label
_atom_site_type_symbol
_atom_type_description
_atom_site_fract_x
_atom_site_fract_y
_atom_site_fract_z
_atom_type_partial_charge
O1    O     O_R   0.449520 0.506760 0.599710 -0.539933
O2    O     O_R   0.550480 0.006760 0.400290 -0.539932
O3    O     O_R   0.587930 0.180200 0.595790 -0.539656
O4    O     O_R   0.412070 0.680200 0.404210 -0.539656
C1    C     C_R   0.613351 0.344770 0.619448 0.681222
C2    C     C_R   0.386649 0.844769 0.380550 0.681230
O5    O     O_R   0.452350 0.177380 0.611700 -0.544910
O6    O     O_R   0.547650 0.677380 0.388300 -0.544917
O7    O     O_R   0.413930 0.001760 0.416320 -0.537607
O8    O     O_R   0.586070 0.501760 0.583680 -0.537608
C3    C     C_R   0.436466 0.345898 0.636647 0.669207
C4    C     C_R   0.563533 0.845894 0.363353 0.669203
O9    O     O_3   0.487550 0.337460 0.435880 -0.381750
O10   O     O_3   0.512450 0.837460 0.564120 -0.381745
V1    V     V_3+5 0.502310 0.064670 0.511900 1.426755
V2    V     V_3+5 0.497690 0.564670 0.488100 1.426752
C5    C     C_R   0.607005 0.906267 0.120015 -0.191350
C6    C     C_R   0.392996 0.406210 0.879990 -0.191351
H1    H     H_    0.514426 0.916181 0.171589 0.104238
H2    H     H_    0.485574 0.416106 0.828415 0.104233
H3    H     H_    0.688774 0.931595 0.997159 0.138845
H4    H     H_    0.311227 0.431556 0.002847 0.138844
H5    H     H_    0.579956 0.935289 0.045901 0.118333
H6    H     H_    0.420045 0.435212 0.954104 0.118336
C7    C     C_R   0.602647 0.855435 0.287359 -0.008805
C8    C     C_R   0.397354 0.355443 0.712643 -0.008848
C9    C     C_R   0.932841 0.812620 0.306741 -0.108726
C10   C     C_R   0.067159 0.312572 0.693265 -0.108671
C11   C     C_R   0.898324 0.797297 0.380931 -0.147641
C12   C     C_R   0.101678 0.297199 0.619079 -0.147697
C13   C     C_R   0.827119 0.815473 0.361359 -0.194313
C14   C     C_R   0.172884 0.315365 0.638652 -0.194467
C15   C     C_R   0.787984 0.845889 0.265592 0.067200
C16   C     C_R   0.212018 0.345853 0.734413 0.067236
C17   C     C_R   0.824236 0.870901 0.190518 0.031433
C18   C     C_R   0.175765 0.370886 0.809485 0.031413
C19   C     C_R   0.714252 0.853251 0.241994 0.067254
C20   C     C_R   0.285748 0.353236 0.758010 0.067320
C21   C     C_R   0.678928 0.887313 0.144329 0.121872
C22   C     C_R   0.321073 0.387274 0.855677 0.121864
C23   C     C_R   0.715580 0.907618 0.071913 -0.181243
C24   C     C_R   0.284421 0.407584 0.928093 -0.181237
C25   C     C_R   0.787026 0.902258 0.094627 -0.207403
C26   C     C_R   0.212975 0.402251 0.905377 -0.207394
C27   C     C_R   0.674235 0.833206 0.312298 -0.239965
C28   C     C_R   0.325765 0.333240 0.687704 -0.240030
C29   C     C_R   0.569385 0.894043 0.191402 -0.174809
C30   C     C_R   0.430616 0.393998 0.808601 -0.174789
C31   C     C_R   0.897042 0.855626 0.212303 -0.071017
C32   C     C_R   0.102958 0.355611 0.787699 -0.071001
H7    H     H_    0.697098 0.806523 0.387731 0.099472
H8    H     H_    0.302901 0.306616 0.612267 0.099519
H9    H     H_    0.987692 0.788485 0.323498 0.170303
H10   H     H_    0.012308 0.288435 0.676507 0.170295
H11   H     H_    0.804288 0.801675 0.422963 0.120731
H12   H     H_    0.195716 0.301499 0.577053 0.120786
H13   H     H_    0.926899 0.768125 0.454177 0.130965
H14   H     H_    0.073104 0.267986 0.545836 0.130962
H15   H     H_    0.812860 0.920735 0.035815 0.117324
H16   H     H_    0.187140 0.420740 0.964187 0.117323
H17   H     H_    0.097393 0.961540 0.457723 0.134131
H18   H     H_    0.902615 0.461474 0.542268 0.134130
C33   C     C_R   0.237406 0.830167 0.047920 -0.149397
C34   C     C_R   0.762591 0.330206 0.952074 -0.149378
C35   C     C_R   0.295824 0.841882 0.008697 0.203172
C36   C     C_R   0.704174 0.341932 0.991295 0.203162
C37   C     C_R   0.361022 0.828078 0.070960 -0.201038
C38   C     C_R   0.638980 0.328120 0.929034 -0.201046
C39   C     C_R   0.367895 0.819781 0.171168 -0.171506
C40   C     C_R   0.632108 0.319802 0.828829 -0.171511
C41   C     C_R   0.309742 0.834586 0.211650 0.081891
C42   C     C_R   0.690259 0.334594 0.788346 0.081900
C43   C     C_R   0.242990 0.837666 0.148601 0.002749
C44   C     C_R   0.757009 0.337678 0.851395 0.002743
C45   C     C_R   0.317274 0.852590 0.312892 -0.120917
C46   C     C_R   0.682727 0.352588 0.687106 -0.120915
C47   C     C_R   0.258098 0.881758 0.349911 -0.032946
C48   C     C_R   0.741904 0.381728 0.650087 -0.032963
C49   C     C_R   0.191195 0.891238 0.286828 -0.030935
C50   C     C_R   0.808807 0.391201 0.713167 -0.030922
C51   C     C_R   0.183234 0.860415 0.185806 -0.153831
C52   C     C_R   0.816766 0.360408 0.814191 -0.153827
C53   C     C_R   0.264723 0.899378 0.450406 -0.167269
C54   C     C_R   0.735279 0.399334 0.549594 -0.167259
C55   C     C_R   0.207128 0.917233 0.489378 0.100270
C56   C     C_R   0.792878 0.417148 0.510617 0.100270
C57   C     C_R   0.142235 0.939286 0.428056 -0.223783
C58   C     C_R   0.857771 0.439209 0.571936 -0.223827
C59   C     C_R   0.134334 0.931614 0.327879 0.550608
C60   C     C_R   0.865670 0.431560 0.672115 0.550625
H19   H     H_    0.187024 0.824911 0.999756 0.106099
H20   H     H_    0.812969 0.324963 0.000237 0.106101
H21   H     H_    0.406802 0.829347 0.041901 0.114280
H22   H     H_    0.593203 0.329396 0.958094 0.114278
H23   H     H_    0.419212 0.810741 0.216887 0.098591
H24   H     H_    0.580794 0.310753 0.783111 0.098598
H25   H     H_    0.314551 0.891137 0.500542 0.134727
H26   H     H_    0.685447 0.391118 0.499467 0.134740
O11   O     O_R   0.913760 0.203480 0.916370 -0.551444
O12   O     O_R   0.086240 0.703480 0.083630 -0.551446
O13   O     O_R   0.047590 0.535230 0.888250 -0.521721
O14   O     O_R   0.952410 0.035230 0.111750 -0.521718
C61   C     C_R   0.063898 0.367682 0.863740 0.755941
C62   C     C_R   0.936102 0.867685 0.136261 0.755946
O15   O     O_R   0.912020 0.532880 0.904260 -0.515197
O16   O     O_R   0.087980 0.032880 0.095740 -0.515197
O17   O     O_R   0.949590 0.708460 0.099750 -0.554908
O18   O     O_R   0.050410 0.208460 0.900250 -0.554908
C63   C     C_R   0.886274 0.365011 0.882247 0.786279
C64   C     C_R   0.113726 0.865013 0.117753 0.786292
O19   O     O_3   0.012370 0.375360 0.064120 -0.386051
O20   O     O_3   0.987630 0.875360 0.935880 -0.386052
V3    V     V_3+5 0.997700 0.648160 0.988110 1.490322
V4    V     V_3+5 0.002300 0.148160 0.011890 1.490326
C65   C     C_3   0.290667 0.881550 0.902453 -0.359278
C66   C     C_3   0.217585 0.925367 0.845441 -0.748743
H27   H     H_    0.185587 0.799424 0.832359 0.228864
H28   H     H_    0.192679 0.027621 0.883994 0.231628
H29   H     H_    0.219940 0.986990 0.775779 0.232510
H30   H     H_    0.323580 0.002129 0.897248 0.192829
H31   H     H_    0.311468 0.764915 0.868092 0.190180
C67   C     C_3   0.709325 0.381598 0.097531 -0.359311
C68   C     C_3   0.782407 0.425397 0.154554 -0.748711
H32   H     H_    0.814403 0.299448 0.167621 0.228881
H33   H     H_    0.807319 0.527680 0.116023 0.231622
H34   H     H_    0.780044 0.486993 0.224221 0.232510
H35   H     H_    0.676415 0.502176 0.102742 0.192846
H36   H     H_    0.688517 0.264947 0.131866 0.190150
C69   C     C_3   0.215807 0.904751 0.596754 -0.373152
C70   C     C_3   0.249988 0.725339 0.634752 -0.720947
H37   H     H_    0.229558 0.612859 0.583821 0.236687
H38   H     H_    0.306706 0.733519 0.643385 0.222780
H39   H     H_    0.239502 0.695674 0.706362 0.236247
H40   H     H_    0.249657 0.017271 0.631452 0.187833
H41   H     H_    0.165036 0.914921 0.616450 0.196761
C71   C     C_3   0.784200 0.404674 0.403240 -0.373024
C72   C     C_3   0.749872 0.225448 0.365175 -0.720890
H42   H     H_    0.770196 0.112843 0.416072 0.236640
H43   H     H_    0.693157 0.233958 0.356522 0.222723
H44   H     H_    0.760343 0.195708 0.293565 0.236232
H45   H     H_    0.750443 0.517371 0.368575 0.187804
H46   H     H_    0.834982 0.414585 0.383555 0.196719
F1    F     F_    0.071052 0.968597 0.272532 -0.728323
F2    F     F_    0.928949 0.468568 0.727463 -0.728323

loop_
_geom_bond_atom_site_label_1
_geom_bond_atom_site_label_2
_ccdc_geom_bond_type
C36   C38   A    
C33   C35   A    
O12   C64   A    
C65   H31   S    
C9    C11   A    
O13   V3    S    
C40   H24   S    
O1    C3    A    
C50   C60   A    
C42   C46   A    
O2    C4    A    
C31   C62   S    
O3    V1    S    
C68   H32   S    
C21   C23   A    
O5    C3    A    
C72   H43   S    
C5    H5    S    
O16   V4    S    
C27   H7    S    
C6    H6    S    
O15   V3    S    
C20   C22   A    
C46   C48   A    
O16   C64   A    
C56   C58   A    
C68   H33   S    
C47   C53   A    
C65   C66   S    
O11   C63   A    
C28   H8    S    
C66   H27   S    
C5    C21   A    
O18   V4    S    
C67   H35   S    
C39   C41   A    
C6    C22   A    
O17   V3    S    
C71   H46   S    
H17   C57   S    
C55   C69   S    
C69   H41   S    
C10   C32   A    
C35   C37   A    
C17   C31   A    
C13   C15   A    
C61   O18   A    
C17   C25   A    
C7    C29   A    
C16   C18   A    
C8    C30   A    
C55   C57   A    
C32   C61   S    
O6    V2    S    
C11   C13   A    
C35   C65   S    
C24   C26   A    
C2    O7    A    
C43   C51   A    
O20   V3    S    
C47   C49   A    
C72   H44   S    
C41   C45   A    
C49   C59   A    
O12   V3    S    
C52   C63   S    
C2    C45   S    
C42   C44   A    
C49   C51   A    
C10   H10   S    
C68   H34   S    
O5    V1    S    
C33   C43   A    
C3    C8    S    
O3    C1    A    
C59   F1    S    
H18   C58   S    
C15   C19   A    
C37   C39   A    
C14   C16   A    
O4    V2    S    
C70   H38   S    
C71   H45   S    
O14   V4    S    
O6    C4    A    
C36   C67   S    
H1    C29   S    
O1    V2    S    
O14   C62   A    
O2    V1    S    
C45   C47   A    
H2    C30   S    
H3    C23   S    
O4    C2    A    
C53   C55   A    
C11   H13   S    
C57   C59   A    
C18   C26   A    
C70   H39   S    
C34   H20   S    
C19   C27   A    
C7    C27   A    
O11   V4    S    
C18   C32   A    
C41   C43   A    
C69   C70   S    
C44   C52   A    
C56   C71   S    
O15   C63   A    
C16   C20   A    
C23   C25   A    
C5    C29   A    
C58   C60   A    
C71   C72   S    
C39   H23   S    
C6    C30   A    
C9    H9    S    
C25   H15   S    
C72   H42   S    
C66   H29   S    
C4    C7    S    
C54   H26   S    
C1    C46   S    
C10   C12   A    
C70   H37   S    
O7    V1    S    
C1    O8    A    
C19   C21   A    
O8    V2    S    
C12   C14   A    
H4    C24   S    
C26   H16   S    
C12   H14   S    
C22   C24   A    
C15   C17   A    
C50   C52   A    
C66   H28   S    
O19   V4    S    
C48   C50   A    
C67   H36   S    
C38   H22   S    
C20   C28   A    
C8    C28   A    
C69   H40   S    
C48   C54   A    
C51   C64   S    
O13   C61   A    
C65   H30   S    
C53   H25   S    
O9    V2    S    
C33   H19   S    
C37   H21   S    
C38   C40   A    
C34   C44   A    
O10   V1    S    
C54   C56   A    
C40   C42   A    
C13   H11   S    
C67   C68   S    
C14   H12   S    
C62   O17   A    
C60   F2    S    
C9    C31   A    
C34   C36   A    
