data_str_m3_o10_o28_f0_pcu.sym.152
_audit_creation_date              2013-03-05T15:42:28-0500
_audit_creation_method            fapswitch 2.2
_symmetry_space_group_name_H-M    P1
_symmetry_Int_Tables_number       1
_space_group_crystal_system       triclinic
_cell_length_a                    7.738373
_cell_length_b                    8.671702
_cell_length_c                    23.412968
_cell_angle_alpha                 91.154734
_cell_angle_beta                  85.908202
_cell_angle_gamma                 93.685241
_cell_volume                      1563.68754805

loop_
_atom_site_label
_atom_site_type_symbol
_atom_site_description
_atom_site_fract_x
_atom_site_fract_y
_atom_site_fract_z
_atom_type_partial_charge
O1    O     O_R   0.389250 0.738570 0.503790 -0.587661
O2    O     O_R   0.610750 0.261430 0.496210 -0.583570
O3    O     O_R   0.678390 0.711620 0.493890 -0.588828
O4    O     O_R   0.321610 0.288380 0.506110 -0.595243
C1    C     C_R   0.545228 0.794105 0.497984 0.882717
C2    C     C_R   0.454764 0.205942 0.502258 0.885400
O5    O     O_R   0.355400 0.513520 0.588790 -0.604354
O6    O     O_R   0.644600 0.486480 0.411210 -0.604691
O7    O     O_R   0.644550 0.486570 0.578900 -0.618484
O8    O     O_R   0.355450 0.513430 0.421100 -0.609405
C3    C     C_R   0.503067 0.504035 0.610618 0.895616
C4    C     C_R   0.496985 0.496794 0.389297 0.901695
Zn1   Zn    Zn3+2 0.306930 0.518000 0.506610 1.061442
Zn2   Zn    Zn3+2 0.693070 0.482000 0.493390 1.063113
C5    C     C_R   0.485484 0.373141 0.119362 0.532249
C6    C     C_R   0.584642 0.630295 0.878666 0.540432
N1    N     N_R   0.509523 0.512490 0.147052 -0.358929
N2    N     N_R   0.541616 0.493897 0.851274 -0.359739
C7    C     C_R   0.550004 0.646791 0.118102 0.519388
C8    C     C_R   0.507245 0.358601 0.880049 0.519363
C9    C     C_R   0.565659 0.644719 0.058325 -0.020025
C10   C     C_R   0.508505 0.358049 0.939634 -0.019534
C11   C     C_R   0.535731 0.503032 0.029008 -0.017685
C12   C     C_R   0.543772 0.498945 0.968908 -0.019723
C13   C     C_R   0.495568 0.365744 0.059654 -0.024532
C14   C     C_R   0.584234 0.636216 0.938257 -0.028370
C15   C     C_R   0.608795 0.780380 0.027370 -0.160777
C16   C     C_R   0.470916 0.221539 0.970540 -0.157706
C17   C     C_R   0.618805 0.776039 0.967785 -0.152545
C18   C     C_R   0.465177 0.225266 0.030088 -0.157032
O9    O     O_2   0.451794 0.242575 0.149709 -0.498597
O10   O     O_2   0.624485 0.759836 0.848186 -0.493549
O11   O     O_2   0.573788 0.781553 0.147212 -0.512480
O12   O     O_2   0.468747 0.226147 0.851060 -0.508942
H1    H     H_    0.634051 0.890184 0.049036 0.194155
H2    H     H_    0.443905 0.111978 0.948903 0.195878
H3    H     H_    0.650965 0.882725 0.945025 0.195185
H4    H     H_    0.434142 0.118420 0.052842 0.195910
C19   C     C_R   0.653028 0.429963 0.754966 -0.087786
C20   C     C_R   0.651669 0.542266 0.235615 -0.100746
H5    H     H_    0.759085 0.375533 0.772630 0.194710
H6    H     H_    0.773899 0.567259 0.211030 0.201489
C21   C     C_R   0.644853 0.435030 0.696234 -0.208681
C22   C     C_R   0.648884 0.534662 0.294523 -0.195901
H7    H     H_    0.743392 0.380392 0.669120 0.217743
H8    H     H_    0.769660 0.558744 0.314694 0.231840
C23   C     C_R   0.510625 0.508370 0.672762 -0.259769
C24   C     C_R   0.493035 0.496744 0.326927 -0.264465
C25   C     C_R   0.383939 0.579785 0.709257 0.417943
C26   C     C_R   0.337296 0.465331 0.299034 0.426105
C27   C     C_R   0.386408 0.566249 0.768430 0.498157
C28   C     C_R   0.338617 0.482510 0.239839 0.509578
C29   C     C_R   0.525043 0.494515 0.791117 0.077858
C30   C     C_R   0.498398 0.516414 0.208049 0.075403
C31   C     C_2   0.569453 0.955973 0.501200 -0.014973
C32   C     C_2   0.430328 0.044081 0.499602 -0.018400
N3    N     N_2   0.950330 0.457950 0.484560 -0.134485
N4    N     N_2   0.049670 0.542050 0.515440 -0.136427
H9    H     H_    0.014225 0.382550 0.457291 0.226429
H10   H     H_    0.985757 0.617351 0.542753 0.227962
O13   O     O_3   0.257428 0.665022 0.688962 -0.668896
H11   H     H_    0.308445 0.721315 0.654768 0.344806
O14   O     O_3   0.182571 0.415524 0.327743 -0.689522
H12   H     H_    0.208906 0.343080 0.357651 0.341899
O15   O     O_3   0.254499 0.628738 0.802564 -0.675861
H13   H     H_    0.257663 0.593333 0.842367 0.327403
O16   O     O_3   0.182860 0.459618 0.214492 -0.697652
H14   H     H_    0.197949 0.494461 0.174346 0.329504
N5    N     N_R   0.742101 0.017174 0.510772 0.238163
O17   O     O_R   0.858434 0.030344 0.467960 -0.294667
O18   O     O_R   0.782897 0.056996 0.562214 -0.343536
N6    N     N_R   0.257489 0.982892 0.490304 0.236302
O19   O     O_R   0.142135 0.968451 0.533361 -0.298007
O20   O     O_R   0.215238 0.945406 0.438810 -0.333660

loop_
_geom_bond_atom_site_label_1
_geom_bond_atom_site_label_2
_geom_bond_distance
_ccdc_geom_bond_type
O5    Zn1   1.987998 S    
C26   C28   1.396141 A    
O7    Zn2   2.010515 S    
Zn2   N3    2.010550 S    
C5    O9    1.350108 S    
O6    C4    1.294092 A    
C15   C17   1.391576 A    
C21   H7    1.083593 S    
C3    C23   1.459947 S    
O13   H11   0.990447 S    
C4    C24   1.462771 S    
C11   C12   1.403884 A    
C8    O12   1.349868 S    
C15   H1    1.083012 S    
C31   C32   1.362683 D    
C16   C18   1.391516 A    
C9    C15   1.403562 A    
C19   H5    1.083273 S    
C6    N2    1.367648 A    
C10   C16   1.403490 A    
O5    C3    1.292604 A    
C26   O14   1.379233 S    
O7    C3    1.293774 A    
C25   O13   1.379901 S    
C18   H4    1.083040 S    
N3    N4    1.277310 D    
C31   N5    1.436532 S    
O3    Zn2   2.001462 S    
O8    C4    1.293990 A    
C28   O16   1.382364 S    
O1    C1    1.269564 A    
N1    C30   1.424433 S    
C23   C25   1.418410 A    
C7    C9    1.395995 A    
C28   C30   1.414199 A    
C24   C26   1.419875 A    
N2    C8    1.366493 A    
C11   C13   1.408481 A    
C9    C11   1.409440 A    
C6    C14   1.394891 A    
N5    O17   1.300316 A    
O2    Zn2   1.977651 S    
C10   C12   1.409657 A    
C5    C13   1.394950 A    
O4    C2    1.288303 A    
N3    H9    1.029218 S    
O4    Zn1   2.001463 S    
C8    C10   1.395894 A    
O14   H12   0.990486 S    
N4    H10   1.029314 S    
O16   H14   0.989760 S    
C22   C24   1.402386 A    
C20   C22   1.380661 A    
O1    Zn1   1.977650 S    
C27   C29   1.414369 A    
C16   H2    1.083129 S    
C14   C17   1.403768 A    
N6    O20   1.301109 A    
O15   H13   0.989468 S    
C27   O15   1.382585 S    
C25   C27   1.394305 A    
C2    C32   1.404914 S    
C13   C18   1.403872 A    
N5    O18   1.301152 A    
C19   C29   1.393976 A    
C20   H6    1.083483 S    
C6    O10   1.350046 S    
N1    C7    1.366937 A    
O6    Zn2   1.987998 S    
Zn1   N4    2.010552 S    
C22   H8    1.083544 S    
N2    C29   1.423518 S    
O3    C1    1.288625 A    
C7    O11   1.349892 S    
C5    N1    1.368160 A    
C21   C23   1.402100 A    
C19   C21   1.382746 A    
C1    C31   1.405352 S    
C17   H3    1.083121 S    
O2    C2    1.269766 A    
C20   C30   1.393840 A    
C12   C14   1.408706 A    
N6    O19   1.300409 A    
C32   N6    1.436479 S    
O8    Zn1   2.010515 S    
