data_str_m9_o16_o24_f0_sra.sym.39
_audit_creation_date              2012-12-11T15:13:44-0500
_audit_creation_method            fapswitch 2.2
_symmetry_space_group_name_H-M    P1
_symmetry_Int_Tables_number       1
_space_group_crystal_system       triclinic
_cell_length_a                    6.94574
_cell_length_b                    13.4869
_cell_length_c                    20.154631
_cell_angle_alpha                 104.154668
_cell_angle_beta                  89.914543
_cell_angle_gamma                 90.798074
_cell_volume                      1830.51236372

loop_
_atom_site_label
_atom_site_type_symbol
_atom_type_description
_atom_site_fract_x
_atom_site_fract_y
_atom_site_fract_z
_atom_type_partial_charge
O1    O     O_R   0.506780 0.600060 0.449950 -0.538504
O2    O     O_R   0.179840 0.597110 0.589410 -0.544416
O3    O     O_R   0.004570 0.399940 0.550050 -0.537093
C1    C     C_R   0.348551 0.620910 0.616197 0.673687
O4    O     O_R   0.177380 0.612160 0.452890 -0.541752
O5    O     O_R   0.002100 0.415100 0.412560 -0.539930
C2    C     C_R   0.347284 0.639753 0.437063 0.694837
O6    O     O_R   0.509250 0.584900 0.587440 -0.539952
O7    O     O_3   0.337570 0.435330 0.486930 -0.369202
V1    V     V_3+5 0.064650 0.512000 0.502430 1.413596
O8    O     O_R   0.672090 0.402890 0.410590 -0.543767
C3    C     C_R   0.840234 0.381061 0.383027 0.675401
O9    O     O_R   0.674540 0.387840 0.547110 -0.541332
C4    C     C_R   0.842901 0.360480 0.563318 0.696849
V2    V     V_3+5 0.564040 0.488000 0.497570 1.414340
O10   O     O_3   0.840990 0.564670 0.513070 -0.370524
C5    C     C_R   0.882690 0.105853 0.606680 -0.165453
H1    H     H_    0.866029 0.155574 0.513488 0.101351
H2    H     H_    0.908332 0.979794 0.688850 0.115648
H3    H     H_    0.893045 0.026070 0.579670 0.112870
C6    C     C_R   0.852110 0.282403 0.602420 -0.033791
C7    C     C_R   0.841119 0.316916 0.931165 -0.266057
C8    C     C_R   0.834550 0.393769 0.896004 0.479298
C9    C     C_R   0.859371 0.369728 0.825142 -0.258047
C10   C     C_R   0.870915 0.267168 0.786775 0.016666
C11   C     C_R   0.876964 0.188877 0.823076 0.065910
C12   C     C_R   0.871712 0.239783 0.713644 0.098450
C13   C     C_R   0.884648 0.134951 0.678546 0.145127
C14   C     C_R   0.897515 0.059831 0.715297 -0.219603
C15   C     C_R   0.893018 0.086130 0.786377 -0.184536
C16   C     C_R   0.855298 0.312555 0.673892 -0.219538
C17   C     C_R   0.866515 0.179197 0.568881 -0.177822
C18   C     C_R   0.864176 0.215135 0.895518 -0.133826
H4    H     H_    0.843596 0.393316 0.696492 0.091819
H5    H     H_    0.826580 0.336700 0.986387 0.112105
H6    H     H_    0.860480 0.433466 0.801813 0.122164
H7    H     H_    0.900180 0.024825 0.812335 0.116570
C19   C     C_3   0.785009 0.157603 0.250645 -0.145915
C20   C     C_3   0.960251 0.210339 0.293125 -0.137127
H8    H     H_    0.045386 0.177748 0.329088 0.102857
H9    H     H_    0.727753 0.080464 0.250560 0.109678
C21   C     C_3   0.848178 0.311006 0.312304 -0.005921
C22   C     C_3   0.672659 0.259004 0.270601 -0.121664
C23   C     C_3   0.753537 0.289987 0.206731 -0.139646
C24   C     C_3   0.928929 0.342727 0.249210 -0.139725
C25   C     C_3   0.041063 0.241230 0.229238 -0.116309
C26   C     C_3   0.865440 0.189303 0.187569 -0.004683
H10   H     H_    0.520517 0.266267 0.287882 0.106553
H11   H     H_    0.668417 0.322474 0.170715 0.100338
H12   H     H_    0.988464 0.419491 0.249021 0.099160
H13   H     H_    0.193167 0.233703 0.211925 0.105510
C27   C     C_3   0.488930 0.785942 0.710622 -0.137074
C28   C     C_3   0.316049 0.848681 0.746588 -0.148918
H14   H     H_    0.282354 0.928342 0.745103 0.113161
H15   H     H_    0.598677 0.813086 0.678780 0.099913
C29   C     C_3   0.357726 0.812280 0.811765 -0.004976
C30   C     C_3   0.530929 0.750318 0.776559 -0.112878
C31   C     C_3   0.395647 0.656432 0.751259 -0.142363
C32   C     C_3   0.222864 0.719050 0.787138 -0.137235
C33   C     C_3   0.181137 0.754571 0.721235 -0.120322
C34   C     C_3   0.354383 0.692599 0.686259 -0.007027
H16   H     H_    0.675413 0.748239 0.799657 0.109302
H17   H     H_    0.426776 0.575651 0.749918 0.105073
H18   H     H_    0.111052 0.692589 0.818500 0.112401
H19   H     H_    0.036617 0.756390 0.698104 0.105951
C35   C     C_R   0.423991 0.892100 0.393090 -0.161290
H20   H     H_    0.420411 0.841804 0.486217 0.101669
H21   H     H_    0.459461 0.017068 0.310657 0.117266
H22   H     H_    0.456806 0.970591 0.419595 0.112303
C36   C     C_R   0.360441 0.717731 0.398167 -0.031130
C37   C     C_R   0.297711 0.686615 0.070941 -0.174322
C38   C     C_R   0.273939 0.610647 0.105904 -0.119875
C39   C     C_R   0.297736 0.633241 0.176545 -0.160643
C40   C     C_R   0.344676 0.733897 0.214243 0.080359
C41   C     C_R   0.371839 0.811135 0.177563 0.072530
C42   C     C_R   0.362627 0.760676 0.287055 0.071412
C43   C     C_R   0.405052 0.863877 0.321536 0.145935
C44   C     C_R   0.428853 0.938168 0.284520 -0.217036
C45   C     C_R   0.413673 0.912320 0.213661 -0.205954
C46   C     C_R   0.340020 0.688608 0.327091 -0.215603
C47   C     C_R   0.402853 0.819231 0.431136 -0.178772
C48   C     C_R   0.351051 0.785810 0.105431 -0.078697
H23   H     H_    0.309729 0.608841 0.304897 0.091429
H24   H     H_    0.272121 0.668568 0.016675 0.114805
H25   H     H_    0.274974 0.570333 0.199912 0.101317
H26   H     H_    0.234325 0.533777 0.078103 0.119263
H27   H     H_    0.433330 0.972802 0.187389 0.117763
O11   O     O_R   0.203580 0.914920 0.912610 -0.540722
O12   O     O_R   0.535710 0.887810 0.047120 -0.540120
O13   O     O_R   0.710730 0.084950 0.087430 -0.542053
C49   C     C_R   0.366051 0.863036 0.065416 0.690406
O14   O     O_R   0.533010 0.902850 0.910600 -0.543547
O15   O     O_R   0.708010 0.100090 0.949930 -0.539083
C50   C     C_R   0.364410 0.881219 0.882940 0.678786
O16   O     O_R   0.206300 0.899780 0.050100 -0.535463
O17   O     O_3   0.375170 0.064580 0.013100 -0.372020
V3    V     V_3+5 0.648200 0.988020 0.997570 1.419124
O18   O     O_R   0.038030 0.112330 0.952840 -0.542102
C51   C     C_R   0.870240 0.137617 0.935173 0.713265
O19   O     O_R   0.040730 0.097300 0.089360 -0.544387
C52   C     C_R   0.872710 0.119109 0.116911 0.677442
V4    V     V_3+5 0.148780 0.012220 0.002360 1.418043
O20   O     O_3   0.871930 0.935430 0.986900 -0.368010
O21   O     O_3   0.803147 0.494138 0.930474 -0.578192
C53   C     C_3   0.603062 0.509079 0.942221 0.075381
H28   H     H_    0.585634 0.587875 0.974440 0.158041
H29   H     H_    0.542418 0.456115 0.971791 0.108485
C54   C     C_3   0.490170 0.498977 0.875102 -0.369490
H30   H     H_    0.568210 0.542599 0.843166 0.199477
H31   H     H_    0.481025 0.417301 0.846740 0.196202
C55   C     C_3   0.285641 0.538300 0.887236 -0.789491
H32   H     H_    0.213481 0.506408 0.926811 0.250979
H33   H     H_    0.202010 0.514606 0.838924 0.230940
H34   H     H_    0.288268 0.623009 0.903049 0.215718

loop_
_geom_bond_atom_site_label_1
_geom_bond_atom_site_label_2
_ccdc_geom_bond_type
C23   H11   S    
C26   C52   S    
O17   V4    S    
C39   C40   A    
C55   H32   S    
C1    O6    A    
C2    C36   S    
C45   H27   S    
C30   H16   S    
C43   C44   A    
C23   C24   S    
C29   C50   S    
C7    H5    S    
C53   H29   S    
C32   H18   S    
C9    H6    S    
C40   C42   A    
C4    C6    S    
C13   C14   A    
H20   C47   S    
C27   C34   S    
O5    C3    A    
C19   C20   S    
C35   H22   S    
V2    O10   S    
C5    H3    S    
C54   H30   S    
C35   C43   A    
C36   C47   A    
C3    C21   S    
O8    V2    S    
C8    C9    A    
O1    V2    S    
O12   C49   A    
C22   H10   S    
O15   C51   A    
O13   V3    S    
C23   C26   S    
C37   C48   A    
C31   C34   S    
C32   C33   S    
O9    C4    A    
C46   H23   S    
O19   V4    S    
O21   C53   S    
C6    C17   A    
C28   C33   S    
O14   V3    S    
C20   C21   S    
H21   C44   S    
C53   C54   S    
O11   C50   A    
C40   C41   A    
C12   C16   A    
C42   C43   A    
C19   H9    S    
C20   H8    S    
O4    C2    A    
C44   C45   A    
C10   C11   A    
O18   V4    S    
C36   C46   A    
C1    C34   S    
C48   C49   S    
C15   H7    S    
O12   V3    S    
C33   C34   S    
C18   C51   S    
C21   C24   S    
O2    C1    A    
C22   C23   S    
O13   C52   A    
C14   C15   A    
C6    C16   A    
C11   C18   A    
O11   V4    S    
C8    O21   S    
C29   C32   S    
O17   V3    S    
O14   C50   A    
C16   H4    S    
C55   H33   S    
C9    C10   A    
C39   H25   S    
C19   C26   S    
V3    O20   S    
O3    C4    A    
C20   C25   S    
C33   H19   S    
C11   C15   A    
O6    V2    S    
O9    V2    S    
H1    C17   S    
C21   C22   S    
O2    V1    S    
O15   V3    S    
O16   V4    S    
C27   C28   S    
C37   H24   S    
O7    V1    S    
C28   C29   S    
C31   H17   S    
C29   C30   S    
C7    C18   A    
C25   C26   S    
O1    C2    A    
C5    C13   A    
C42   C46   A    
C38   C39   A    
O5    V1    S    
C38   H26   S    
O8    C3    A    
C27   H15   S    
C41   C48   A    
C28   H14   S    
C10   C12   A    
C53   H28   S    
C54   C55   S    
C31   C32   S    
O4    V1    S    
O3    V1    S    
V1    O10   S    
C35   C47   A    
C30   C31   S    
C24   H12   S    
C25   H13   S    
O19   C52   A    
C54   H31   S    
C55   H34   S    
O7    V2    S    
V4    O20   S    
C27   C30   S    
C49   O16   A    
C24   C25   S    
C19   C22   S    
C37   C38   A    
O18   C51   A    
C12   C13   A    
C5    C17   A    
C7    C8    A    
C41   C45   A    
H2    C14   S    
