data_str_m3_o10_o15_f0_pcu.sym.60
_audit_creation_date              2012-12-10T16:50:59-0500
_audit_creation_method            fapswitch 2.2
_symmetry_space_group_name_H-M    P1
_symmetry_Int_Tables_number       1
_space_group_crystal_system       triclinic
_cell_length_a                    8.160267
_cell_length_b                    8.572796
_cell_length_c                    10.512613
_cell_angle_alpha                 91.916945
_cell_angle_beta                  86.206358
_cell_angle_gamma                 92.729724
_cell_volume                      732.64066009

loop_
_atom_site_label
_atom_site_type_symbol
_atom_type_description
_atom_site_fract_x
_atom_site_fract_y
_atom_site_fract_z
_atom_type_partial_charge
C1    C     C_R   0.543325 0.792280 0.497366 0.763828
C2    C     C_R   0.922301 0.583058 0.057384 0.622011
C3    C     C_R   0.085254 0.618608 0.060200 -0.337446
C4    C     C_R   0.943046 0.665166 0.940474 -0.331306
C5    C     C_R   0.201046 0.532398 0.110621 -0.029443
C6    C     C_R   0.816916 0.632975 0.861938 -0.008989
C7    C     C_R   0.361230 0.571399 0.060448 -0.004846
C8    C     C_R   0.661122 0.615140 0.926798 0.017014
C9    C     C_R   0.378835 0.639648 0.937080 0.050423
C10   C     C_R   0.648452 0.616873 0.064556 0.096687
C11   C     C_R   0.502211 0.560398 0.127037 -0.130261
C12   C     C_R   0.456675 0.207744 0.502676 0.848478
C13   C     C_R   0.518937 0.606230 0.863316 -0.192325
C14   C     C_2   0.565337 0.955616 0.502925 0.311839
C15   C     C_2   0.434651 0.044330 0.497260 0.287710
C16   C     C_R   0.506975 0.535253 0.734481 0.836764
C17   C     C_R   0.499267 0.511398 0.260058 0.836586
C18   C     C_R   0.240808 0.699211 0.885453 0.000364
C19   C     C_R   0.793252 0.644768 0.127856 0.008325
C20   C     C_R   0.099866 0.616647 0.924077 0.695449
F1    F     F_    0.105107 0.471918 0.863790 -0.561779
F2    F     F_    0.890856 0.423748 0.047564 -0.569030
F3    F     F_    0.721183 0.014287 0.519576 -0.569319
F4    F     F_    0.278809 0.985609 0.480624 -0.580954
F5    F     F_    0.014959 0.328445 0.414625 -0.501259
F6    F     F_    0.991343 0.680478 0.569585 -0.569850
H1    H     H_    0.941882 0.794449 0.945663 0.109421
H2    H     H_    0.110617 0.733323 0.108861 0.095679
H3    H     H_    0.167110 0.450302 0.184499 0.232529
H4    H     H_    0.832981 0.661115 0.762936 0.223137
H5    H     H_    0.368420 0.862211 0.776800 0.176992
H6    H     H_    0.203333 0.776219 0.711037 0.292818
H7    H     H_    0.858210 0.866909 0.179854 0.206006
H8    H     H_    0.894007 0.732524 0.286843 0.247259
N1    N     N_2   0.950330 0.457950 0.466250 0.263347
N2    N     N_2   0.049670 0.542050 0.533750 0.254486
N3    N     N_3   0.246515 0.822369 0.796032 -0.412874
N4    N     N_3   0.809001 0.766105 0.223997 -0.426433
O1    O     O_R   0.389250 0.738570 0.508280 -0.596071
O2    O     O_R   0.610750 0.261430 0.491720 -0.543468
O3    O     O_R   0.678390 0.711630 0.486650 -0.547558
O4    O     O_R   0.321610 0.288370 0.513350 -0.501425
O5    O     O_R   0.355430 0.513480 0.694040 -0.565075
O6    O     O_R   0.644570 0.486520 0.305960 -0.579040
O7    O     O_R   0.644570 0.486540 0.672410 -0.602773
O8    O     O_R   0.355430 0.513460 0.327590 -0.631108
Zn1   Zn    Zn3+2 0.306940 0.517990 0.514440 1.152842
Zn2   Zn    Zn3+2 0.693060 0.482010 0.485560 1.162638

loop_
_geom_bond_atom_site_label_1
_geom_bond_atom_site_label_2
_ccdc_geom_bond_type
C16   O7    A    
C12   O2    A    
C2    C4    A    
C2    F2    S    
C8    C13   A    
C19   N4    S    
C5    C7    A    
C18   C20   A    
N1    N2    D    
C12   C15   S    
C10   C19   A    
C2    C3    A    
C17   O6    A    
C3    C20   A    
H8    N4    S    
H6    N3    S    
C20   F1    S    
C7    C11   A    
C16   O5    A    
F5    N1    S    
N1    Zn2   S    
F6    N2    S    
C15   F4    S    
C6    H4    S    
C14   F3    S    
C5    H3    S    
O4    Zn1   S    
O3    Zn2   S    
O7    Zn2   S    
C10   C11   A    
C1    O1    A    
C12   O4    A    
C4    C20   A    
H5    N3    S    
C9    C18   A    
C4    H1    S    
C17   O8    A    
N2    Zn1   S    
C4    C6    A    
C13   C16   S    
C1    O3    A    
C7    C9    A    
C9    C13   A    
O8    Zn1   S    
C3    H2    S    
H7    N4    S    
C6    C8    A    
C1    C14   S    
C2    C19   A    
C14   C15   D    
O1    Zn1   S    
O5    Zn1   S    
O2    Zn2   S    
C18   N3    S    
C8    C10   A    
C11   C17   S    
O6    Zn2   S    
C3    C5    A    
