data_str_m2_o4_o16_f0_pcu.sym.24
_audit_creation_date              2012-10-26T19:52:24-0400
_audit_creation_method            fapswitch 2.2
_symmetry_space_group_name_H-M    P1
_symmetry_Int_Tables_number       1
_space_group_crystal_system       triclinic
_cell_length_a                    9.586036
_cell_length_b                    10.846065
_cell_length_c                    13.331278
_cell_angle_alpha                 90.779883
_cell_angle_beta                  71.905458
_cell_angle_gamma                 89.005693
_cell_volume                      1317.05424966

loop_
_atom_site_label
_atom_site_type_symbol
_atom_type_description
_atom_site_fract_x
_atom_site_fract_y
_atom_site_fract_z
_atom_type_partial_charge
C1    C     C_R   0.499319 0.737852 0.499991 0.541707
C2    C     C_R   0.371405 0.515306 0.816499 0.028351
C3    C     C_R   0.374487 0.940841 0.502897 -0.005402
C4    C     C_R   0.420737 0.501999 0.700588 0.583355
C5    C     C_R   0.502572 0.871494 0.492576 -0.005284
C6    C     C_R   0.637174 0.932952 0.467411 -0.133876
C7    C     C_R   0.639472 0.061661 0.464592 -0.155197
C8    C     C_R   0.507409 0.129744 0.484802 0.015263
C9    C     C_R   0.378055 0.067352 0.494644 -0.012852
C10   C     C_3   0.231098 0.087041 0.574817 -0.217230
C11   C     C_3   0.229590 0.948488 0.589385 -0.083526
C12   C     C_R   0.432531 0.509547 0.981783 -0.043729
C13   C     C_R   0.950074 0.406301 0.451995 0.159284
C14   C     C_R   0.896738 0.581766 0.560239 0.060133
C15   C     C_R   0.044139 0.580457 0.561867 0.338110
C16   C     C_R   0.502658 0.262696 0.495903 0.553238
C17   C     C_R   0.094783 0.403600 0.455486 0.116827
C18   C     C_3   0.154061 0.348745 0.347197 -0.269345
C19   C     C_3   0.998504 0.359761 0.339454 -0.135770
C20   C     C_R   0.579341 0.497914 0.299521 0.544587
C21   C     C_R   0.721977 0.317262 0.048849 -0.086665
C22   C     C_R   0.625399 0.469997 0.186233 0.020377
C23   C     C_R   0.445129 0.456386 0.880618 0.026381
C24   C     C_R   0.262136 0.603734 0.860102 -0.174231
C25   C     C_R   0.224974 0.639373 0.965330 0.011943
C26   C     C_R   0.312898 0.597494 0.026865 0.013017
C27   C     C_2   0.238825 0.914868 0.696662 0.302600
C28   C     C_2   0.990291 0.452528 0.258107 0.238588
C29   C     C_2   0.733685 0.200705 0.849334 0.198252
C30   C     C_2   0.270882 0.641640 0.137972 0.295331
C31   C     C_2   0.092363 0.721377 0.005665 0.299238
C32   C     C_2   0.505693 0.264744 0.762256 0.223873
C33   C     C_R   0.537249 0.468984 0.032634 -0.003855
C34   C     C_R   0.633226 0.365550 0.990614 0.057220
C35   C     C_R   0.632041 0.306672 0.895812 -0.011788
C36   C     C_R   0.531291 0.346713 0.845169 0.003745
C37   C     C_R   0.552213 0.527797 0.123926 -0.127862
C38   C     C_R   0.713245 0.366053 0.147359 -0.134158
Cl1   Cl    Cl    0.082836 0.676196 0.654670 -0.644227
Cu1   Cu    Cu3+1 0.359330 0.500020 0.500010 1.042899
Cu2   Cu    Cu3+1 0.640670 0.499980 0.499990 1.001068
H1    H     H_    0.768432 0.318238 0.195604 0.105693
H2    H     H_    0.789960 0.235132 0.023575 0.177952
H3    H     H_    0.508430 0.618428 0.150278 0.136415
H4    H     H_    0.204402 0.646007 0.811163 0.181394
H5    H     H_    0.739946 0.882333 0.453989 0.165925
H6    H     H_    0.335314 0.867629 0.704858 0.101159
H7    H     H_    0.012078 0.422119 0.176731 0.108200
H8    H     H_    0.691471 0.115791 0.827315 0.114614
H9    H     H_    0.260530 0.576977 0.200469 0.109684
H10   H     H_    0.059181 0.779997 0.951338 0.154550
H11   H     H_    0.596965 0.218435 0.703683 0.105147
H12   H     H_    0.743071 0.107434 0.450998 0.130043
H13   H     H_    0.235012 0.143058 0.644319 0.229184
H14   H     H_    0.148094 0.120268 0.538242 0.128515
H15   H     H_    0.139702 0.904229 0.566991 0.187232
H16   H     H_    0.818043 0.648319 0.608500 0.145210
H17   H     H_    0.236658 0.406273 0.292249 0.146063
H18   H     H_    0.191244 0.251406 0.349203 0.122610
H19   H     H_    0.950226 0.269529 0.330130 0.086174
N1    N     N_R   0.852320 0.499070 0.499340 -0.234773
N2    N     N_R   0.148230 0.499110 0.499340 -0.213236
O1    O     O_R   0.381190 0.680360 0.500000 -0.456215
O2    O     O_2   0.964909 0.561813 0.281081 -0.416607
O3    O     O_2   0.865986 0.209736 0.831304 -0.462923
O4    O     O_2   0.254380 0.751711 0.160098 -0.443550
O5    O     O_2   0.014030 0.719592 0.097335 -0.420168
O6    O     O_2   0.381054 0.244981 0.761457 -0.503837
O7    O     O_R   0.618780 0.680320 0.499990 -0.507964
O8    O     O_R   0.323230 0.500000 0.650990 -0.431299
O9    O     O_R   0.560820 0.499960 0.650980 -0.523980
O10   O     O_R   0.381220 0.319680 0.500010 -0.498011
O11   O     O_R   0.618810 0.319640 0.500000 -0.527499
O12   O     O_R   0.439180 0.500040 0.349020 -0.523345
O13   O     O_R   0.676770 0.500000 0.349010 -0.449222
O14   O     O_2   0.136102 0.939609 0.775649 -0.453529

loop_
_geom_bond_atom_site_label_1
_geom_bond_atom_site_label_2
_ccdc_geom_bond_type
C25   C31   S    
C35   C36   A    
C16   O10   A    
Cu2   N1    S    
C4    O8    A    
C7    C8    A    
C29   H8    S    
C31   O5    D    
C12   C23   A    
Cu1   O1    S    
Cu1   O8    S    
C1    C5    S    
C24   H4    S    
C32   C36   S    
C38   H1    S    
C5    C6    A    
C34   C35   A    
C22   C38   A    
Cu1   N2    S    
C18   C19   S    
C32   H11   S    
C21   H2    S    
C18   H17   S    
C21   C38   A    
C8    C9    A    
C6    H5    S    
C9    C10   S    
Cu2   O9    S    
C30   H9    S    
C8    C16   S    
C1    O1    A    
C17   C18   S    
C13   C19   S    
C16   O11   A    
C24   C25   A    
C21   C34   A    
C25   C26   A    
C22   C37   A    
C33   C37   A    
C20   O13   A    
C12   C26   A    
C2    C4    S    
C3    C9    A    
C17   N2    A    
Cu2   O13   S    
C11   C27   S    
C33   C34   A    
C20   O12   A    
C19   C28   S    
C15   Cl1   S    
C30   O4    D    
C29   O3    D    
C28   O2    D    
Cu1   Cu2   S    
C20   C22   S    
C26   C30   S    
C2    C24   A    
C7    H12   S    
C27   O14   D    
Cu2   O7    S    
C27   H6    S    
C14   H16   S    
C28   H7    S    
Cu1   O10   S    
C31   H10   S    
C3    C5    A    
C6    C7    A    
C13   C17   A    
C19   H19   S    
C29   C35   S    
C32   O6    D    
C37   H3    S    
C14   N1    A    
C15   N2    A    
Cu1   O12   S    
C10   H14   S    
C10   H13   S    
C1    O7    A    
C3    C11   S    
C10   C11   S    
Cu2   O11   S    
C18   H18   S    
C13   N1    A    
C23   C36   A    
C2    C23   A    
C14   C15   A    
C12   C33   A    
C4    O9    A    
C11   H15   S    
