data_str_m3_o10_o23_f0_pcu.sym.66
_audit_creation_date              2012-12-10T16:55:00-0500
_audit_creation_method            fapswitch 2.2
_symmetry_space_group_name_H-M    P1
_symmetry_Int_Tables_number       1
_space_group_crystal_system       triclinic
_cell_length_a                    7.957689
_cell_length_b                    8.544982
_cell_length_c                    15.72636
_cell_angle_alpha                 92.266916
_cell_angle_beta                  83.907958
_cell_angle_gamma                 93.710294
_cell_volume                      1060.52223707

loop_
_atom_site_label
_atom_site_type_symbol
_atom_type_description
_atom_site_fract_x
_atom_site_fract_y
_atom_site_fract_z
_atom_type_partial_charge
C1    C     C_R   0.545044 0.793842 0.505429 0.943080
C2    C     C_2   0.436219 0.042043 0.508943 -0.416534
C3    C     C_R   0.499153 0.502487 0.661282 0.858093
C4    C     C_R   0.455560 0.206521 0.506067 0.941928
C5    C     C_R   0.500852 0.498469 0.338877 0.903772
C6    C     C_3   0.311053 0.558346 0.965271 0.208454
C7    C     C_3   0.626891 0.665949 0.948207 -0.062357
C8    C     C_3   0.641906 0.640405 0.045842 -0.112394
C9    C     C_1   0.503892 0.501538 0.250067 -0.133560
C10   C     C_3   0.493006 0.537701 0.918009 0.048939
C11   C     C_3   0.168990 0.503251 0.126215 -0.397930
C12   C     C_3   0.318715 0.583191 0.065866 0.421817
C13   C     C_3   0.016657 0.443149 0.083568 -0.799103
C14   C     C_3   0.717668 0.025769 0.571505 -0.340800
C15   C     C_3   0.806667 0.909302 0.619583 -0.871848
C16   C     C_3   0.601695 0.839190 0.925189 -0.234503
C17   C     C_3   0.623067 0.870276 0.829670 -0.864686
C18   C     C_3   0.686489 0.791443 0.101818 -0.371836
C19   C     C_3   0.874207 0.844196 0.089573 -0.710592
C20   C     C_3   0.494164 0.521654 0.084190 -0.053184
C21   C     C_3   0.517522 0.352440 0.037740 0.643936
C22   C     C_3   0.549119 0.374740 0.940570 -0.615286
C23   C     C_1   0.503116 0.508390 0.175060 0.036734
C24   C     C_1   0.493331 0.529798 0.825997 0.075561
C25   C     C_1   0.496889 0.516368 0.750415 -0.165590
C26   C     C_2   0.565822 0.957415 0.525972 -0.029725
Cl1   Cl    Cl    0.303962 0.788963 0.095970 -0.593739
Cl2   Cl    Cl    0.684997 0.248581 0.070826 -0.675636
Cl3   Cl    Cl    0.197908 0.702298 0.917182 -0.634954
Cl4   Cl    Cl    0.343881 0.209048 0.057078 -0.582907
H1    H     H_    0.238135 0.446320 0.952376 0.148965
H2    H     H_    0.031221 0.321595 0.057927 0.329673
H3    H     H_    0.906185 0.445337 0.132812 0.287130
H4    H     H_    0.205713 0.405733 0.163042 0.249367
H5    H     H_    0.124810 0.585535 0.179339 0.236548
H6    H     H_    0.714411 0.820969 0.650653 0.258193
H7    H     H_    0.901201 0.851025 0.574532 0.265989
H8    H     H_    0.876287 0.972752 0.669386 0.255465
H9    H     H_    0.814346 0.082195 0.524247 0.237067
H10   H     H_    0.672480 0.116173 0.619989 0.222025
H11   H     H_    0.732754 0.809295 0.797728 0.257583
H12   H     H_    0.320603 0.990115 0.485630 0.172838
H13   H     H_    0.506120 0.833179 0.799914 0.291765
H14   H     H_    0.646924 0.998248 0.819995 0.255913
H15   H     H_    0.478819 0.880520 0.953062 0.319306
H16   H     H_    0.700921 0.917986 0.951368 0.236385
H17   H     H_    0.946958 0.761634 0.121100 0.285072
H18   H     H_    0.921981 0.849067 0.020890 0.304362
H19   H     H_    0.894754 0.962398 0.120039 0.298872
H20   H     H_    0.614569 0.892536 0.088829 0.309495
H21   H     H_    0.655694 0.772055 0.171057 0.232978
H22   H     H_    0.012389 0.385499 0.432325 0.196596
H23   H     H_    0.987386 0.609317 0.569897 0.191280
H24   H     H_    0.752227 0.639612 0.913598 0.177251
H25   H     H_    0.751955 0.572264 0.045820 0.192189
H26   H     H_    0.481457 0.278078 0.905569 0.236179
H27   H     H_    0.685837 0.365728 0.918038 0.219174
H28   H     H_    0.998962 0.517870 0.030382 0.276035
N1    N     N_2   0.950340 0.457950 0.477370 -0.177729
N2    N     N_2   0.049660 0.542050 0.522630 -0.173833
O1    O     O_R   0.389240 0.738570 0.505550 -0.629062
O2    O     O_R   0.678400 0.711630 0.491050 -0.608464
O3    O     O_R   0.355360 0.513470 0.630110 -0.593621
O4    O     O_R   0.644510 0.486530 0.615610 -0.632328
O5    O     O_R   0.321600 0.288370 0.508950 -0.615629
O6    O     O_R   0.610760 0.261430 0.494450 -0.621152
O7    O     O_R   0.355490 0.513470 0.384390 -0.615052
O8    O     O_R   0.644640 0.486530 0.369890 -0.600801
Zn1   Zn    Zn3+2 0.306930 0.517990 0.509680 0.962674
Zn2   Zn    Zn3+2 0.693070 0.482010 0.490320 0.946153

loop_
_geom_bond_atom_site_label_1
_geom_bond_atom_site_label_2
_ccdc_geom_bond_type
C16   H15   S    
C6    C10   S    
C7    C10   S    
C2    C4    S    
C11   C12   S    
C17   H13   S    
C15   H8    S    
C13   H3    S    
H22   N1    S    
C3    O3    A    
C8    C18   S    
C21   Cl4   S    
C19   H19   S    
C13   H2    S    
C14   C15   S    
C20   C23   S    
C5    O7    A    
O1    Zn1   S    
C1    O2    A    
C12   C20   S    
C22   H27   S    
C11   H5    S    
C6    H1    S    
C17   H14   S    
N1    N2    D    
C2    C26   D    
C8    C20   S    
C3    O4    A    
C14   C26   S    
C5    C9    S    
C11   C13   S    
C10   C22   S    
O2    Zn2   S    
O6    Zn2   S    
N2    Zn1   S    
C2    H12   S    
C5    O8    A    
O5    Zn1   S    
C12   Cl1   S    
C8    H25   S    
O8    Zn2   S    
C7    C16   S    
H23   N2    S    
C18   H21   S    
O4    Zn2   S    
C6    C12   S    
C1    C26   S    
C17   H11   S    
C7    C8    S    
N1    Zn2   S    
C14   H10   S    
C15   H6    S    
C3    C25   S    
C6    Cl3   S    
C24   C25   T    
C18   H20   S    
C20   C21   S    
C18   C19   S    
C4    O6    A    
C19   H17   S    
C16   H16   S    
C4    O5    A    
C9    C23   T    
C22   H26   S    
C13   H28   S    
C19   H18   S    
C7    H24   S    
C10   C24   S    
C14   H9    S    
C21   C22   S    
C21   Cl2   S    
C11   H4    S    
C15   H7    S    
O3    Zn1   S    
C16   C17   S    
O7    Zn1   S    
C1    O1    A    
