data_str_m3_o10_o29_f0_pcu.sym.73
_audit_creation_date              2012-12-10T16:59:22-0500
_audit_creation_method            fapswitch 2.2
_symmetry_space_group_name_H-M    P1
_symmetry_Int_Tables_number       1
_space_group_crystal_system       triclinic
_cell_length_a                    7.813485
_cell_length_b                    8.542095
_cell_length_c                    27.721006
_cell_angle_alpha                 92.191272
_cell_angle_beta                  85.195385
_cell_angle_gamma                 93.512802
_cell_volume                      1839.21284626

loop_
_atom_site_label
_atom_site_type_symbol
_atom_type_description
_atom_site_fract_x
_atom_site_fract_y
_atom_site_fract_z
_atom_type_partial_charge
C1    C     C_R   0.545457 0.794499 0.498794 0.959601
C2    C     C_R   0.529726 0.640436 0.128661 -0.022680
C3    C     C_R   0.504325 0.500617 0.646442 -0.041153
C4    C     C_R   0.495684 0.499462 0.353558 -0.041153
C5    C     C_R   0.537855 0.642807 0.026502 0.047683
C6    C     C_R   0.462166 0.357488 0.973500 0.047690
C7    C     C_R   0.457614 0.357741 0.024743 0.048149
C8    C     C_R   0.542386 0.642558 0.975259 0.048151
C9    C     C_R   0.495746 0.500352 0.050881 0.072287
C10   C     C_R   0.504267 0.499944 0.949122 0.072284
C11   C     C_R   0.574047 0.781219 0.054529 -0.227397
C12   C     C_R   0.454543 0.205501 0.501206 0.959613
C13   C     C_R   0.426004 0.219069 0.945473 -0.227397
C14   C     C_R   0.569995 0.779625 0.104530 -0.137446
C15   C     C_R   0.430057 0.220661 0.895472 -0.137445
C16   C     C_R   0.501307 0.500286 0.593846 0.865864
C17   C     C_R   0.498695 0.499724 0.406154 0.865870
C18   C     C_R   0.584157 0.780557 0.948937 -0.225633
C19   C     C_R   0.415805 0.219748 0.051065 -0.225640
C20   C     C_2   0.569498 0.957977 0.498073 -0.345448
C21   C     C_2   0.430502 0.042023 0.501927 -0.345452
C22   C     C_R   0.550407 0.637273 0.822568 0.508420
C23   C     C_R   0.508040 0.499826 0.897896 -0.049129
C24   C     C_R   0.449596 0.363017 0.177433 0.508415
C25   C     C_R   0.473112 0.362650 0.820898 0.509213
C26   C     C_R   0.526922 0.637634 0.179105 0.509224
C27   C     C_R   0.664143 0.497969 0.717448 -0.099374
C28   C     C_R   0.335881 0.502309 0.282555 -0.099371
C29   C     C_R   0.661645 0.497518 0.667412 -0.174502
C30   C     C_R   0.338373 0.502666 0.332590 -0.174498
C31   C     C_R   0.349837 0.504092 0.676165 -0.190153
C32   C     C_R   0.650170 0.495976 0.323834 -0.190158
C33   C     C_R   0.352832 0.503974 0.726158 -0.097763
C34   C     C_R   0.491975 0.500468 0.102107 -0.049126
C35   C     C_R   0.647182 0.496188 0.273842 -0.097778
C36   C     C_R   0.509806 0.500936 0.746673 0.319285
C37   C     C_R   0.490215 0.499331 0.253328 0.319294
C38   C     C_R   0.549139 0.639746 0.873056 -0.023250
C39   C     C_R   0.450857 0.360550 0.126946 -0.023251
C40   C     C_R   0.587185 0.778787 0.898910 -0.142484
C41   C     C_R   0.412780 0.221517 0.101092 -0.142490
C42   C     C_R   0.470306 0.359853 0.871342 -0.022672
Cl1   Cl    Cl    0.039130 0.319840 0.446938 -0.512029
Cl2   Cl    Cl    0.960870 0.680163 0.553061 -0.512058
H1    H     H_    0.226914 0.506375 0.660891 0.178360
H2    H     H_    0.785460 0.495491 0.733576 0.138774
H3    H     H_    0.599315 0.888676 0.124235 0.196706
H4    H     H_    0.400757 0.111604 0.875768 0.196699
H5    H     H_    0.606663 0.894037 0.039298 0.141903
H6    H     H_    0.393418 0.106246 0.960704 0.141887
H7    H     H_    0.615788 0.893195 0.965559 0.140668
H8    H     H_    0.384132 0.107120 0.034444 0.140683
H9    H     H_    0.700970 0.008584 0.494370 0.214320
H10   H     H_    0.299030 0.991416 0.505630 0.214320
H11   H     H_    0.773087 0.493610 0.339108 0.178367
H12   H     H_    0.233578 0.506302 0.749033 0.139078
H13   H     H_    0.766433 0.493834 0.250967 0.139078
H14   H     H_    0.619704 0.887669 0.880547 0.192059
H15   H     H_    0.380234 0.112638 0.119456 0.192071
H16   H     H_    0.217528 0.505235 0.354716 0.192093
H17   H     H_    0.782490 0.494958 0.645286 0.192116
H18   H     H_    0.214569 0.504852 0.266428 0.138769
N1    N     N_R   0.512089 0.500143 0.797875 -0.361657
N2    N     N_R   0.487931 0.500141 0.202127 -0.361657
N3    N     N_2   0.950320 0.457960 0.486880 0.132330
N4    N     N_2   0.049680 0.542040 0.513120 0.132329
O1    O     O_R   0.389250 0.738570 0.503220 -0.602051
O2    O     O_2   0.411714 0.229667 0.201738 -0.526895
O3    O     O_2   0.562773 0.770840 0.205066 -0.525920
O4    O     O_2   0.437276 0.229439 0.794938 -0.525920
O5    O     O_R   0.610750 0.261430 0.496780 -0.602048
O6    O     O_R   0.678390 0.711630 0.494810 -0.580225
O7    O     O_R   0.321610 0.288370 0.505190 -0.580222
O8    O     O_R   0.355440 0.513440 0.575450 -0.610564
O9    O     O_R   0.644560 0.486560 0.424550 -0.610564
O10   O     O_R   0.644590 0.486500 0.567040 -0.591462
O11   O     O_R   0.355410 0.513500 0.432960 -0.591462
O12   O     O_2   0.588277 0.770622 0.798262 -0.526890
Zn1   Zn    Zn3+2 0.306940 0.517990 0.505620 1.090406
Zn2   Zn    Zn3+2 0.693060 0.482010 0.494380 1.090407

loop_
_geom_bond_atom_site_label_1
_geom_bond_atom_site_label_2
_ccdc_geom_bond_type
C27   C29   A    
Cl2   N4    S    
C24   C39   A    
C39   C41   A    
N4    Zn1   S    
C23   C42   A    
C16   O8    A    
C35   C37   A    
C5    C11   A    
C21   H10   S    
C11   C14   A    
C22   C38   A    
C33   C36   A    
C25   N1    A    
C3    C29   A    
C26   N2    A    
C18   C40   A    
C22   N1    A    
C14   H3    S    
C19   H8    S    
C30   H16   S    
C31   C33   A    
C36   N1    S    
O9    Zn2   S    
C32   H11   S    
C2    C34   A    
C33   H12   S    
C24   N2    A    
N3    Zn2   S    
C12   O7    A    
C15   H4    S    
O5    Zn2   S    
C18   H7    S    
O11   Zn1   S    
C29   H17   S    
C1    O6    A    
C40   H14   S    
C34   C39   A    
C32   C35   A    
O1    Zn1   S    
C22   O12   S    
C12   C21   S    
C8    C18   A    
C5    C9    A    
C11   H5    S    
Cl1   N3    S    
C17   O11   A    
O7    Zn1   S    
C2    C26   A    
C3    C31   A    
C41   H15   S    
C4    C32   A    
C4    C17   S    
C27   H2    S    
C12   O5    A    
C7    C19   A    
O8    Zn1   S    
C13   C15   A    
C9    C34   A    
C10   C23   A    
C37   N2    S    
C7    C9    A    
C1    C20   S    
C16   O10   A    
O10   Zn2   S    
C15   C42   A    
C20   H9    S    
C25   C42   A    
C6    C10   A    
C5    C8    A    
C6    C7    A    
C27   C36   A    
C23   C38   A    
C35   H13   S    
C28   C30   A    
O6    Zn2   S    
C6    C13   A    
C38   C40   A    
C28   C37   A    
C1    O1    A    
C2    C14   A    
C24   O2    S    
C13   H6    S    
C20   C21   D    
C8    C10   A    
N3    N4    D    
C31   H1    S    
C17   O9    A    
C26   O3    S    
C25   O4    S    
C4    C30   A    
C3    C16   S    
C19   C41   A    
C28   H18   S    
