data_str_m9_o13_o16_f0_sra.sym.35
_audit_creation_date              2012-12-11T14:43:32-0500
_audit_creation_method            fapswitch 2.2
_symmetry_space_group_name_H-M    P1
_symmetry_Int_Tables_number       1
_space_group_crystal_system       triclinic
_cell_length_a                    21.097031
_cell_length_b                    7.081596
_cell_length_c                    16.226538
_cell_angle_alpha                 89.784803
_cell_angle_beta                  92.09082
_cell_angle_gamma                 90.174479
_cell_volume                      2422.61404055

loop_
_atom_site_label
_atom_site_type_symbol
_atom_type_description
_atom_site_fract_x
_atom_site_fract_y
_atom_site_fract_z
_atom_type_partial_charge
O1    O     O_R   0.564840 0.505290 0.579830 -0.551782
O2    O     O_R   0.435160 0.005290 0.420170 -0.553340
O3    O     O_R   0.556720 0.179930 0.409350 -0.530783
O4    O     O_R   0.443280 0.679930 0.590650 -0.531045
C1    C     C_R   0.571634 0.345490 0.381386 0.703086
C2    C     C_R   0.428555 0.844258 0.619005 0.706608
O5    O     O_R   0.572280 0.175810 0.578530 -0.506438
O6    O     O_R   0.427720 0.675810 0.421470 -0.508072
O7    O     O_R   0.450830 0.001920 0.590540 -0.541219
O8    O     O_R   0.549170 0.501920 0.409460 -0.543784
C3    C     C_R   0.592170 0.345539 0.601374 0.755980
C4    C     C_R   0.408048 0.845570 0.398374 0.751078
O9    O     O_3   0.460130 0.338030 0.503750 -0.368185
O10   O     O_3   0.539870 0.838030 0.496250 -0.367835
V1    V     V_3+5 0.507400 0.064560 0.499310 1.531023
V2    V     V_3+5 0.492600 0.564560 0.500690 1.530420
C5    C     C_R   0.143759 0.900875 0.166790 -0.045420
C6    C     C_R   0.858539 0.401115 0.828886 -0.062806
C7    C     C_R   0.353615 0.863751 0.337574 -0.103326
C8    C     C_R   0.647342 0.363337 0.661285 -0.103584
C9    C     C_R   0.311744 0.042731 0.219648 -0.095634
C10   C     C_R   0.691232 0.543137 0.777644 -0.061807
C11   C     C_R   0.361349 0.992497 0.273366 -0.147783
C12   C     C_R   0.640560 0.490508 0.725934 -0.152222
C13   C     C_R   0.292662 0.781731 0.347235 -0.018349
C14   C     C_R   0.707748 0.278567 0.651615 -0.018839
C15   C     C_R   0.244046 0.810143 0.283797 0.026330
C16   C     C_R   0.757116 0.309028 0.713743 0.012221
C17   C     C_R   0.252396 0.952918 0.222533 0.156238
C18   C     C_R   0.751220 0.460493 0.770837 0.172632
C19   C     C_R   0.202264 0.000163 0.164143 0.140522
C20   C     C_R   0.804147 0.518215 0.822776 0.135767
C21   C     C_R   0.137518 0.755891 0.225110 -0.262197
C22   C     C_R   0.861341 0.243128 0.777169 -0.265775
C23   C     C_R   0.187073 0.702315 0.279502 -0.027128
C24   C     C_R   0.812051 0.193501 0.721535 -0.024443
H1    H     H_    0.094033 0.673970 0.224712 0.126033
H2    H     H_    0.902036 0.150762 0.782752 0.128249
H3    H     H_    0.321479 0.152281 0.175335 0.143321
H4    H     H_    0.681094 0.642558 0.825599 0.132190
H5    H     H_    0.405940 0.063603 0.267246 0.153892
H6    H     H_    0.595740 0.557398 0.734459 0.151663
C25   C     C_R   0.371449 0.729345 0.834257 -0.071301
C26   C     C_R   0.625873 0.275346 0.161564 -0.067647
C27   C     C_R   0.388421 0.844910 0.693677 -0.138475
C28   C     C_R   0.612010 0.352011 0.307241 -0.139351
C29   C     C_R   0.080344 0.915420 0.726569 0.170742
C30   C     C_R   0.920454 0.389829 0.273148 0.165399
C31   C     C_R   0.118367 0.902217 0.656615 0.213848
C32   C     C_R   0.882543 0.364109 0.342670 0.215483
C33   C     C_R   0.184272 0.886306 0.666845 -0.220143
C34   C     C_R   0.816384 0.360889 0.332784 -0.220896
C35   C     C_R   0.215315 0.890510 0.744996 0.051888
C36   C     C_R   0.785172 0.389611 0.255720 0.051916
C37   C     C_R   0.177014 0.888866 0.815323 -0.013868
C38   C     C_R   0.823029 0.400195 0.185097 -0.011592
C39   C     C_R   0.283185 0.874937 0.754580 0.093216
C40   C     C_R   0.717098 0.386178 0.246488 0.093369
C41   C     C_R   0.309019 0.806736 0.831416 -0.073935
C42   C     C_R   0.689521 0.344410 0.167234 -0.076671
C43   C     C_R   0.270778 0.816326 0.902220 -0.026134
C44   C     C_R   0.727292 0.370882 0.096849 -0.025092
C45   C     C_R   0.206412 0.861086 0.893094 -0.148911
C46   C     C_R   0.792655 0.400234 0.106956 -0.149483
C47   C     C_R   0.326144 0.920041 0.690475 0.098952
C48   C     C_R   0.675392 0.419322 0.312891 0.101983
C49   C     C_R   0.409887 0.745043 0.764730 -0.064632
C50   C     C_R   0.588509 0.273210 0.232453 -0.065229
C51   C     C_R   0.109815 0.909470 0.806669 -0.121601
C52   C     C_R   0.890577 0.405949 0.193551 -0.124740
H7    H     H_    0.210830 0.861373 0.612252 0.154216
H8    H     H_    0.789555 0.326762 0.386364 0.154988
H9    H     H_    0.178814 0.868186 0.947985 0.134114
H10   H     H_    0.820017 0.419016 0.052303 0.128767
O11   O     O_R   0.950790 0.256670 0.090520 -0.528159
O12   O     O_R   0.049210 0.756670 0.909480 -0.530032
O13   O     O_R   0.927720 0.590370 0.921470 -0.546286
O14   O     O_R   0.072280 0.090370 0.078530 -0.543517
C53   C     C_R   0.910481 0.420836 0.894166 0.707501
C54   C     C_R   0.090615 0.920492 0.103885 0.700998
O15   O     O_R   0.943270 0.586180 0.090640 -0.539190
O16   O     O_R   0.056730 0.086180 0.909360 -0.539974
O17   O     O_R   0.064850 0.759970 0.079840 -0.533272
O18   O     O_R   0.935150 0.259970 0.920160 -0.535915
C55   C     C_R   0.930267 0.417105 0.119506 0.702954
C56   C     C_R   0.069937 0.917870 0.880625 0.695148
O19   O     O_3   0.039850 0.428050 0.996240 -0.367237
O20   O     O_3   0.960150 0.928050 0.003760 -0.370203
V3    V     V_3+5 0.992610 0.701540 0.000700 1.431012
V4    V     V_3+5 0.007390 0.201540 0.999300 1.436796
C57   C     C_3   0.213162 0.149948 0.098653 -0.727982
H11   H     H_    0.217619 0.290745 0.128247 0.235276
H12   H     H_    0.256993 0.119497 0.065642 0.198975
H13   H     H_    0.175992 0.157668 0.049337 0.208436
C58   C     C_3   0.803887 0.702166 0.870555 -0.686835
H14   H     H_    0.763982 0.796966 0.853738 0.213810
H15   H     H_    0.803725 0.672999 0.937798 0.203476
H16   H     H_    0.846431 0.786630 0.855923 0.206816
C59   C     C_3   0.310125 0.066062 0.624504 -0.731192
H17   H     H_    0.348249 0.174297 0.623337 0.231672
H18   H     H_    0.305638 0.998290 0.562972 0.196084
H19   H     H_    0.266442 0.145883 0.637103 0.211061
C60   C     C_3   0.694092 0.547557 0.384348 -0.740966
H20   H     H_    0.657940 0.659759 0.390265 0.231491
H21   H     H_    0.697423 0.465899 0.442779 0.195466
H22   H     H_    0.739194 0.623847 0.374746 0.211816
C61   C     C_3   0.008813 0.927377 0.714913 -0.813259
H23   H     H_    0.983418 0.927706 0.773333 0.188745
H24   H     H_    0.995800 0.059019 0.681056 0.205268
H25   H     H_    0.990825 0.803051 0.679626 0.210796
C62   C     C_3   0.992141 0.394390 0.284508 -0.803912
H26   H     H_    0.017347 0.415710 0.226571 0.193122
H27   H     H_    0.006437 0.512272 0.326182 0.200932
H28   H     H_    0.009150 0.258468 0.311379 0.212502
C63   C     C_3   0.091372 0.901185 0.568981 -0.796954
H29   H     H_    0.039354 0.920215 0.563742 0.218122
H30   H     H_    0.113200 0.017564 0.533620 0.209682
H31   H     H_    0.102875 0.764999 0.539340 0.203474
C64   C     C_3   0.909856 0.336106 0.429313 -0.799979
H32   H     H_    0.962272 0.340631 0.434267 0.218610
H33   H     H_    0.891817 0.448301 0.469894 0.207148
H34   H     H_    0.894431 0.196837 0.453252 0.205007
C65   C     C_2   0.179324 0.516962 0.321051 0.343062
H35   H     H_    0.132722 0.471702 0.339517 0.043483
O21   O     O_2   0.223845 0.408079 0.330033 -0.517780
C66   C     C_2   0.817103 0.003812 0.683634 0.330787
H36   H     H_    0.863256 0.949765 0.668167 0.047055
O22   O     O_2   0.770746 0.901310 0.674536 -0.519639
C67   C     C_2   0.275114 0.703475 0.428880 0.398106
H37   H     H_    0.226752 0.717777 0.448572 0.025246
O23   O     O_2   0.313217 0.622013 0.474652 -0.523196
C68   C     C_2   0.724314 0.193267 0.571275 0.397344
H38   H     H_    0.772849 0.201732 0.551518 0.026870
O24   O     O_2   0.685345 0.111863 0.526794 -0.522443
C69   C     C_2   0.474338 0.662233 0.765937 0.483710
H39   H     H_    0.513134 0.746066 0.743314 -0.007615
O25   O     O_2   0.483716 0.499539 0.788347 -0.519746
C70   C     C_2   0.523379 0.193785 0.228975 0.476170
H40   H     H_    0.485671 0.270203 0.257748 -0.004611
O26   O     O_2   0.512137 0.040750 0.197116 -0.518742
C71   C     C_2   0.296947 0.798389 0.987996 0.311061
H41   H     H_    0.343675 0.853899 0.004433 0.098728
O27   O     O_2   0.266354 0.721758 0.041213 -0.526505
C72   C     C_2   0.699894 0.387414 0.011745 0.312273
H42   H     H_    0.654583 0.456584 0.000359 0.098831
O28   O     O_2   0.727557 0.322006 0.953646 -0.533534
C73   C     C_2   0.394355 0.613282 0.905865 0.482932
H43   H     H_    0.363652 0.506027 0.931108 0.050521
O29   O     O_2   0.446556 0.640917 0.938715 -0.481814
C74   C     C_2   0.600237 0.186771 0.084274 0.486912
H44   H     H_    0.628955 0.086827 0.051591 0.050595
O30   O     O_2   0.547966 0.229427 0.055274 -0.480038

loop_
_geom_bond_atom_site_label_1
_geom_bond_atom_site_label_2
_ccdc_geom_bond_type
C66   H36   S    
C2    C27   S    
C15   C17   A    
C12   H6    S    
C35   C37   A    
C50   C70   S    
C58   H14   S    
O1    C3    A    
C73   H43   S    
O2    C4    A    
C2    O7    A    
C58   H16   S    
O3    V1    S    
C69   H39   S    
C29   C31   A    
O14   V4    S    
O5    C3    A    
O13   V3    S    
C33   H7    S    
C10   C12   A    
C73   O29   D    
C28   C48   A    
C71   O27   D    
C53   O18   A    
O14   C54   A    
C39   C41   A    
C40   C42   A    
C63   H29   S    
C42   C44   A    
C31   C33   A    
C43   C45   A    
C29   C51   A    
C44   C46   A    
O11   V4    S    
C21   C23   A    
O19   V4    S    
C40   C48   A    
C8    C12   A    
C68   H38   S    
C63   H30   S    
C37   C45   A    
C59   H19   S    
C27   C49   A    
C32   C34   A    
C61   H23   S    
C38   C46   A    
C60   H22   S    
C25   C41   A    
O12   V3    S    
O15   V3    S    
O5    V1    S    
C13   C67   S    
O6    V2    S    
C61   H24   S    
C5    C21   A    
C54   O17   A    
C34   C36   A    
C64   H33   S    
O17   V3    S    
C36   C38   A    
C3    C8    S    
C41   C43   A    
C32   C64   S    
C65   H35   S    
C29   C61   S    
C25   C73   S    
C47   C59   S    
C72   O28   D    
C30   C52   A    
C57   H11   S    
C35   C39   A    
C6    C53   S    
C45   H9    S    
C15   C23   A    
O16   C56   A    
C9    C17   A    
C5    C54   S    
C21   H1    S    
C33   C35   A    
O4    V2    S    
C7    C11   A    
C25   C49   A    
C28   C50   A    
C49   C69   S    
C34   H8    S    
C57   H12   S    
C59   H17   S    
C9    H3    S    
O6    C4    A    
C63   H31   S    
C10   H4    S    
C30   C62   S    
O10   V1    S    
O13   C53   A    
C62   H27   S    
O1    V2    S    
O2    V1    S    
C6    C22   A    
C37   C51   A    
C70   O26   D    
C43   C71   S    
C59   H18   S    
O20   V4    S    
C38   C52   A    
C9    C11   A    
C27   C47   A    
C5    C19   A    
C60   H21   S    
C74   O30   D    
C26   C50   A    
O4    C2    A    
C6    C20   A    
O12   C56   A    
C14   C68   S    
O11   C55   A    
C67   H37   S    
C36   C40   A    
C64   H34   S    
C69   O25   D    
C66   O22   D    
C10   C18   A    
C62   H26   S    
C31   C63   S    
C22   H2    S    
C48   C60   S    
C24   C66   S    
C19   C57   S    
C44   C72   S    
C72   H42   S    
O3    C1    A    
C11   H5    S    
C64   H32   S    
C58   H15   S    
C13   C15   A    
C1    C28   S    
C14   C16   A    
O16   V4    S    
C23   C65   S    
O7    V1    S    
C1    O8    A    
C17   C19   A    
O8    V2    S    
C71   H41   S    
C57   H13   S    
C18   C20   A    
C8    C14   A    
C26   C42   A    
C4    C7    S    
C30   C32   A    
C61   H25   S    
C16   C18   A    
C62   H28   S    
C22   C24   A    
C7    C13   A    
C26   C74   S    
C65   O21   D    
C70   H40   S    
O18   V4    S    
C20   C58   S    
O20   V3    S    
C16   C24   A    
C68   O24   D    
O9    V2    S    
C60   H20   S    
O19   V3    S    
C46   H10   S    
C74   H44   S    
C67   O23   D    
C52   C55   S    
O15   C55   A    
C51   C56   S    
C39   C47   A    
