data_str_m3_o14_o22_f0_pcu.sym.1
_audit_creation_date              2012-12-10T17:47:42-0500
_audit_creation_method            fapswitch 2.2
_symmetry_space_group_name_H-M    P1
_symmetry_Int_Tables_number       1
_space_group_crystal_system       triclinic
_cell_length_a                    10.627465
_cell_length_b                    10.627765
_cell_length_c                    9.925686
_cell_angle_alpha                 89.911861
_cell_angle_beta                  90.011278
_cell_angle_gamma                 91.672636
_cell_volume                      1120.58951181

loop_
_atom_site_label
_atom_site_type_symbol
_atom_type_description
_atom_site_fract_x
_atom_site_fract_y
_atom_site_fract_z
_atom_type_partial_charge
C1    C     C_R   0.503424 0.260757 0.500189 0.851621
C2    C     C_R   0.611114 0.068979 0.567447 0.105624
C3    C     C_R   0.511982 0.128653 0.500370 -0.091395
C4    C     C_R   0.257831 0.499290 0.500266 0.814036
C5    C     C_R   0.418430 0.061948 0.430385 -0.219630
C6    C     C_R   0.418598 0.933420 0.430091 -0.208585
C7    C     C_R   0.512486 0.871954 0.499507 -0.103323
C8    C     C_R   0.334617 0.335448 0.140113 -0.162679
C9    C     C_R   0.252744 0.254696 0.070127 -0.203308
C10   C     C_R   0.252747 0.254637 0.930652 -0.197580
C11   C     C_R   0.334693 0.335274 0.860355 -0.159853
C12   C     C_3   0.878715 0.499358 0.501156 0.184611
C13   C     C_R   0.418510 0.418890 0.927849 0.170795
C14   C     C_R   0.418502 0.418961 0.072355 0.173732
C15   C     C_R   0.578179 0.577386 0.071332 -0.117805
C16   C     C_R   0.503759 0.739398 0.499886 0.870281
C17   C     C_R   0.578151 0.577356 0.928288 -0.117692
C18   C     C_R   0.742187 0.499835 0.500251 0.804043
C19   C     C_3   0.071220 0.493893 0.648301 -0.388461
C20   C     C_3   0.928422 0.494838 0.648301 -0.394090
C21   C     C_3   0.075986 0.620610 0.432530 -0.394632
C22   C     C_3   0.068789 0.382428 0.423759 -0.425339
C23   C     C_3   0.931545 0.620570 0.432012 -0.408342
C24   C     C_3   0.121342 0.499030 0.501191 0.194475
C25   C     C_3   0.924373 0.382354 0.424169 -0.388851
C26   C     C_R   0.710796 0.136836 0.631554 -0.194254
C27   C     C_R   0.808631 0.073925 0.693424 -0.142499
C28   C     C_R   0.809309 0.943044 0.692077 -0.145470
C29   C     C_R   0.712061 0.874699 0.629049 -0.203764
C30   C     C_R   0.611583 0.937099 0.566572 0.102877
H1    H     H_    0.108392 0.576215 0.706923 0.182665
H2    H     H_    0.343826 0.881469 0.378145 0.147835
H3    H     H_    0.642111 0.640663 0.124855 0.144150
H4    H     H_    0.102363 0.406879 0.699595 0.169481
H5    H     H_    0.329391 0.329626 0.246939 0.196265
H6    H     H_    0.189035 0.191670 0.124664 0.141087
H7    H     H_    0.188983 0.191601 0.876379 0.139914
H8    H     H_    0.329546 0.329309 0.753506 0.200199
H9    H     H_    0.642049 0.640624 0.874492 0.142513
H10   H     H_    0.890990 0.408846 0.700702 0.173114
H11   H     H_    0.897106 0.578269 0.705841 0.171087
H12   H     H_    0.889565 0.382836 0.318372 0.184605
H13   H     H_    0.113542 0.705018 0.487303 0.153416
H14   H     H_    0.898878 0.705363 0.485829 0.155609
H15   H     H_    0.102790 0.383836 0.317720 0.179871
H16   H     H_    0.101832 0.294437 0.471496 0.147869
H17   H     H_    0.887087 0.294550 0.472606 0.157660
H18   H     H_    0.111087 0.626811 0.326974 0.180566
H19   H     H_    0.897321 0.626115 0.326202 0.177873
H20   H     H_    0.343624 0.109654 0.378475 0.136298
H21   H     H_    0.715434 0.238446 0.632840 0.147529
H22   H     H_    0.884682 0.126976 0.741456 0.126036
H23   H     H_    0.885894 0.894283 0.739019 0.126932
H24   H     H_    0.717703 0.773331 0.628127 0.136136
N1    N     N_R   0.498810 0.498800 0.142780 -0.121617
N2    N     N_R   0.498760 0.498720 0.857170 -0.121170
O1    O     O_R   0.500000 0.316780 0.614690 -0.637174
O2    O     O_R   0.499990 0.316750 0.385360 -0.626994
O3    O     O_R   0.314800 0.499990 0.614670 -0.642774
O4    O     O_R   0.314790 0.499970 0.385330 -0.642818
O5    O     O_R   0.500010 0.683250 0.614640 -0.612855
O6    O     O_R   0.500000 0.683220 0.385310 -0.610451
O7    O     O_R   0.685210 0.500030 0.614670 -0.638243
O8    O     O_R   0.685200 0.500010 0.385330 -0.620389
Zn1   Zn    Zn3+2 0.500010 0.500020 0.653130 0.922130
Zn2   Zn    Zn3+2 0.499990 0.499980 0.346870 0.929101

loop_
_geom_bond_atom_site_label_1
_geom_bond_atom_site_label_2
_ccdc_geom_bond_type
C25   H12   S    
C9    H6    S    
C6    H2    S    
C28   H23   S    
O7    Zn1   S    
C6    C7    A    
O5    Zn1   S    
C11   H8    S    
C9    C10   A    
C25   H17   S    
C19   C20   S    
C12   C23   S    
C12   C25   S    
C2    C30   A    
C21   H18   S    
C19   H1    S    
C13   N2    A    
C14   N1    A    
C21   C24   S    
O4    Zn2   S    
C2    C26   A    
C7    C30   A    
C21   H13   S    
C13   C14   A    
O3    Zn1   S    
N1    Zn2   S    
C11   C13   A    
C17   N2    A    
C4    O4    A    
C26   C27   A    
C29   C30   A    
C16   O6    A    
C12   C20   S    
C10   H7    S    
C4    C24   S    
C4    O3    A    
C7    C16   S    
C22   H16   S    
C15   H3    S    
C20   H11   S    
C2    C3    A    
C10   C11   A    
C21   C23   S    
C15   N1    A    
C5    C6    A    
C20   H10   S    
C22   C24   S    
C18   O7    A    
C23   H19   S    
C16   O5    A    
O6    Zn2   S    
N2    Zn1   S    
C18   O8    A    
C1    O2    A    
C5    H20   S    
C22   H15   S    
C8    H5    S    
C27   H22   S    
C22   C25   S    
C17   H9    S    
C29   H24   S    
C12   C18   S    
C27   C28   A    
C15   C17   A    
C1    O1    A    
C28   C29   A    
C8    C14   A    
C3    C5    A    
C26   H21   S    
C19   C24   S    
O2    Zn2   S    
C23   H14   S    
O1    Zn1   S    
C8    C9    A    
C1    C3    S    
C19   H4    S    
O8    Zn2   S    
