data_str_m9_o3_o18_f0_sra.sym.27
_audit_creation_date              2012-12-11T16:44:16-0500
_audit_creation_method            fapswitch 2.2
_symmetry_space_group_name_H-M    P1
_symmetry_Int_Tables_number       1
_space_group_crystal_system       triclinic
_cell_length_a                    27.42245
_cell_length_b                    7.177352
_cell_length_c                    22.630987
_cell_angle_alpha                 90.512898
_cell_angle_beta                  101.448389
_cell_angle_gamma                 90.919665
_cell_volume                      4364.72461853

loop_
_atom_site_label
_atom_site_type_symbol
_atom_type_description
_atom_site_fract_x
_atom_site_fract_y
_atom_site_fract_z
_atom_type_partial_charge
O1    O     O_R   0.707300 0.594030 0.176840 -0.531007
O2    O     O_R   0.292700 0.405970 0.823160 -0.531188
O3    O     O_R   0.792700 0.094030 0.323160 -0.534338
O4    O     O_R   0.207300 0.905970 0.676840 -0.533372
O5    O     O_R   0.697330 0.262360 0.295660 -0.542142
O6    O     O_R   0.302670 0.737640 0.704340 -0.539442
O7    O     O_R   0.802670 0.762360 0.204340 -0.541132
O8    O     O_R   0.197330 0.237640 0.795660 -0.541480
C1    C     C_R   0.685912 0.432313 0.313248 0.687846
C2    C     C_R   0.314415 0.567761 0.687106 0.691001
C3    C     C_R   0.814260 0.933175 0.187022 0.688385
C4    C     C_R   0.185490 0.066485 0.812860 0.683724
O9    O     O_R   0.701410 0.264250 0.175600 -0.537068
O10   O     O_R   0.298590 0.735750 0.824400 -0.539612
O11   O     O_R   0.798590 0.764250 0.324400 -0.536949
O12   O     O_R   0.201410 0.235750 0.675600 -0.535210
O13   O     O_R   0.796800 0.094950 0.202240 -0.531282
O14   O     O_R   0.203200 0.905050 0.797760 -0.532672
O15   O     O_R   0.703200 0.594950 0.297760 -0.530833
O16   O     O_R   0.296800 0.405050 0.702240 -0.530823
C5    C     C_R   0.689482 0.431020 0.153382 0.708156
C6    C     C_R   0.310519 0.569555 0.847118 0.698707
C7    C     C_R   0.810240 0.934734 0.346766 0.702797
C8    C     C_R   0.189395 0.065408 0.653616 0.707283
O17   O     O_3   0.781290 0.427390 0.258880 -0.373177
O18   O     O_3   0.218710 0.572610 0.741120 -0.372895
O19   O     O_3   0.718710 0.927390 0.241120 -0.371206
O20   O     O_3   0.281290 0.072610 0.758880 -0.371793
V1    V     V_3+5 0.744190 0.152150 0.248350 1.401232
V2    V     V_3+5 0.255810 0.847850 0.751650 1.393057
V3    V     V_3+5 0.755810 0.652150 0.251650 1.395762
V4    V     V_3+5 0.244190 0.347850 0.748350 1.393717
C9    C     C_R   0.153229 0.053071 0.595608 -0.037871
C10   C     C_R   0.844831 0.954233 0.405869 -0.045720
C11   C     C_R   0.346644 0.578535 0.906065 -0.056848
C12   C     C_R   0.652839 0.432538 0.095614 -0.038773
C13   C     C_R   0.139361 0.067060 0.486885 -0.168908
C14   C     C_R   0.857689 0.077518 0.507720 -0.177949
C15   C     C_R   0.373827 0.760584 0.997839 -0.181203
C16   C     C_R   0.636291 0.364221 0.988495 -0.166169
C17   C     C_R   0.171105 0.079899 0.542802 -0.220801
C18   C     C_R   0.826404 0.035462 0.452995 -0.210209
C19   C     C_R   0.338382 0.715736 0.947016 -0.196180
C20   C     C_R   0.669591 0.388689 0.042996 -0.222123
C21   C     C_R   0.101974 0.011323 0.592257 0.104425
C22   C     C_R   0.896125 0.912641 0.414227 0.097336
C23   C     C_R   0.391687 0.477743 0.918835 0.088782
C24   C     C_R   0.601233 0.457928 0.093047 0.110665
C25   C     C_R   0.067743 0.026093 0.535348 0.072183
C26   C     C_R   0.929939 0.985615 0.466629 0.070359
C27   C     C_R   0.432040 0.545179 0.965828 0.060218
C28   C     C_R   0.567764 0.462168 0.035304 0.074256
C29   C     C_R   0.087679 0.042519 0.482031 0.062145
C30   C     C_R   0.909538 0.058581 0.515065 0.061409
C31   C     C_R   0.421467 0.684296 0.006777 0.054486
C32   C     C_R   0.585302 0.399320 0.983651 0.062768
C33   C     C_R   0.014644 0.030238 0.529169 0.041385
C34   C     C_R   0.982955 0.997572 0.471914 0.042122
C35   C     C_R   0.482883 0.488000 0.972400 0.034779
C36   C     C_R   0.518052 0.530546 0.026482 0.041811
C37   C     C_R   0.004403 0.009076 0.420608 -0.235498
C38   C     C_R   0.992781 0.096321 0.576220 -0.232978
C39   C     C_R   0.505582 0.666399 0.065525 -0.239731
C40   C     C_R   0.501385 0.416180 0.923392 -0.237750
C41   C     C_R   0.055476 0.036394 0.424844 -0.016008
C42   C     C_R   0.941453 0.116217 0.569370 -0.015900
C43   C     C_R   0.458969 0.747787 0.055398 -0.024618
C44   C     C_R   0.551645 0.376003 0.927924 -0.015900
H1    H     H_    0.787097 0.064522 0.447552 0.122381
H2    H     H_    0.210421 0.103968 0.544719 0.123278
H3    H     H_    0.708683 0.365621 0.044506 0.120872
H4    H     H_    0.304003 0.791625 0.939308 0.119751
H5    H     H_    0.155824 0.079686 0.447418 0.138020
H6    H     H_    0.840876 0.132345 0.543469 0.137407
H7    H     H_    0.364077 0.863188 0.028612 0.138183
H8    H     H_    0.651176 0.320013 0.949914 0.138318
H9    H     H_    0.981084 0.016325 0.376222 0.154642
H10   H     H_    0.015789 0.152438 0.617054 0.155586
H11   H     H_    0.533893 0.725520 0.101199 0.158397
H12   H     H_    0.478061 0.407854 0.878972 0.153161
C45   C     C_R   0.849998 0.090689 0.103777 0.165942
C46   C     C_R   0.144809 0.896669 0.890603 0.156951
C47   C     C_R   0.654355 0.580394 0.401068 0.162178
C48   C     C_R   0.348104 0.419355 0.600838 0.167935
C49   C     C_R   0.887054 0.101607 0.069020 -0.141009
C50   C     C_R   0.108165 0.890680 0.926001 -0.140917
C51   C     C_R   0.617902 0.590489 0.436804 -0.140849
C52   C     C_R   0.385294 0.409752 0.566172 -0.138019
H13   H     H_    0.885651 0.210658 0.035933 0.110373
H14   H     H_    0.106992 0.774067 0.955778 0.107907
H15   H     H_    0.622051 0.693824 0.472731 0.110028
H16   H     H_    0.381914 0.305752 0.530528 0.110751
C53   C     C_R   0.925233 0.971649 0.075196 0.049696
C54   C     C_R   0.073593 0.033055 0.924476 0.051640
C55   C     C_R   0.576651 0.467746 0.427553 0.048183
C56   C     C_R   0.426232 0.533937 0.576014 0.048405
C57   C     C_R   0.925756 0.826725 0.116602 -0.145192
C58   C     C_R   0.076864 0.186971 0.887423 -0.148403
C59   C     C_R   0.572814 0.329949 0.382207 -0.147762
C60   C     C_R   0.428911 0.672914 0.620811 -0.144515
H17   H     H_    0.954834 0.724274 0.122249 0.114119
H18   H     H_    0.050599 0.299050 0.884889 0.113371
H19   H     H_    0.541386 0.233417 0.373734 0.112882
H20   H     H_    0.460021 0.770838 0.629683 0.114183
C61   C     C_R   0.889427 0.814787 0.152147 -0.207093
C62   C     C_R   0.113428 0.196556 0.852111 -0.204910
C63   C     C_R   0.608745 0.318078 0.346100 -0.204330
C64   C     C_R   0.392162 0.684309 0.655833 -0.204965
H21   H     H_    0.891507 0.703250 0.184435 0.133252
H22   H     H_    0.114310 0.316646 0.823675 0.134494
H23   H     H_    0.604097 0.212449 0.310835 0.130294
H24   H     H_    0.395904 0.791056 0.690663 0.130274
C65   C     C_R   0.851484 0.946901 0.147115 -0.059334
C66   C     C_R   0.147667 0.052121 0.852325 -0.061561
C67   C     C_R   0.649441 0.443907 0.354083 -0.056654
C68   C     C_R   0.351794 0.556764 0.647324 -0.058747
C69   C     C_R   0.978100 0.829115 0.008530 -0.155147
C70   C     C_R   0.020168 0.177142 0.990966 -0.154886
C71   C     C_R   0.516779 0.324986 0.486629 -0.153237
C72   C     C_R   0.486945 0.677156 0.518067 -0.151927
H25   H     H_    0.961692 0.693618 0.013957 0.106445
H26   H     H_    0.036643 0.312709 0.985911 0.104319
H27   H     H_    0.528308 0.187214 0.475915 0.104133
H28   H     H_    0.475350 0.814925 0.528673 0.104205
C73   C     C_R   0.012881 0.844958 0.971144 -0.158390
C74   C     C_R   0.985002 0.161426 0.027949 -0.157533
C75   C     C_R   0.481128 0.341335 0.522912 -0.155259
C76   C     C_R   0.522648 0.660794 0.481824 -0.157295
H29   H     H_    0.022273 0.720518 0.948740 0.103366
H30   H     H_    0.974919 0.285609 0.049945 0.105783
H31   H     H_    0.466139 0.215353 0.539004 0.104700
H32   H     H_    0.537651 0.786704 0.465701 0.104206
C77   C     C_R   0.034723 0.018957 0.962164 0.095227
C78   C     C_R   0.963673 0.987121 0.037288 0.094633
C79   C     C_R   0.465528 0.517625 0.538953 0.095433
C80   C     C_R   0.538047 0.484465 0.465547 0.094481
C81   C     C_R   0.073354 0.063052 0.367830 0.097010
C82   C     C_R   0.069338 0.916469 0.325513 -0.135034
C83   C     C_R   0.084240 0.943852 0.270567 -0.116498
C84   C     C_R   0.102872 0.117779 0.257402 -0.088953
C85   C     C_R   0.106593 0.264694 0.299140 -0.123492
C86   C     C_R   0.091756 0.237867 0.354151 -0.141766
H33   H     H_    0.054631 0.781512 0.335090 0.109929
H34   H     H_    0.081163 0.830461 0.238104 0.107460
H35   H     H_    0.114255 0.138883 0.214778 0.106722
H36   H     H_    0.120738 0.399615 0.288749 0.109196
H37   H     H_    0.094273 0.353168 0.385895 0.114598
C87   C     C_R   0.923004 0.207010 0.619503 0.093870
C88   C     C_R   0.927564 0.118122 0.675296 -0.137153
C89   C     C_R   0.912061 0.207339 0.723397 -0.118029
C90   C     C_R   0.892297 0.385981 0.716196 -0.096346
C91   C     C_R   0.888054 0.475861 0.660900 -0.122436
C92   C     C_R   0.903463 0.387066 0.612677 -0.136094
H38   H     H_    0.943149 0.980248 0.681461 0.112419
H39   H     H_    0.915556 0.138316 0.766325 0.111931
H40   H     H_    0.880447 0.455019 0.753524 0.104640
H41   H     H_    0.873056 0.614661 0.655490 0.112551
H42   H     H_    0.900507 0.458689 0.570210 0.120025
C93   C     C_R   0.452146 0.906352 0.095365 0.098292
C94   C     C_R   0.458076 0.880842 0.157858 -0.136657
C95   C     C_R   0.454223 0.032114 0.195943 -0.112016
C96   C     C_R   0.444552 0.209608 0.171977 -0.104943
C97   C     C_R   0.438860 0.236223 0.109921 -0.122429
C98   C     C_R   0.443087 0.085798 0.071707 -0.125597
H43   H     H_    0.465838 0.744075 0.176980 0.105629
H44   H     H_    0.458859 0.011822 0.244059 0.107648
H45   H     H_    0.441613 0.326628 0.201492 0.105850
H46   H     H_    0.431404 0.373608 0.091525 0.128152
H47   H     H_    0.439508 0.109025 0.023831 0.120373
C99   C     C_R   0.567472 0.309744 0.872712 0.095637
C100  C     C_R   0.554630 0.128515 0.850552 -0.127673
C101  C     C_R   0.568540 0.066951 0.797579 -0.125593
C102  C     C_R   0.594980 0.186335 0.766315 -0.090632
C103  C     C_R   0.607547 0.367446 0.787970 -0.117895
C104  C     C_R   0.593770 0.429444 0.840980 -0.147455
H48   H     H_    0.533946 0.035312 0.874311 0.114534
H49   H     H_    0.558723 0.926917 0.780695 0.109243
H50   H     H_    0.605629 0.138652 0.725247 0.104430
H51   H     H_    0.627861 0.459925 0.763613 0.109108
H52   H     H_    0.603409 0.570332 0.857234 0.112898
C105  C     C_3   0.911868 0.774071 0.371047 -0.807050
H53   H     H_    0.910523 0.838465 0.326322 0.192631
H54   H     H_    0.949297 0.717692 0.388469 0.215912
H55   H     H_    0.886402 0.650629 0.365348 0.225928
C106  C     C_3   0.086891 0.927874 0.647438 -0.817694
H56   H     H_    0.087262 0.037223 0.682564 0.194093
H57   H     H_    0.050073 0.856006 0.636745 0.219559
H58   H     H_    0.113316 0.818021 0.666391 0.221770
C107  C     C_3   0.582683 0.450192 0.151841 -0.819193
H59   H     H_    0.592888 0.581274 0.178129 0.202504
H60   H     H_    0.542009 0.423670 0.144859 0.225484
H61   H     H_    0.599827 0.331921 0.179280 0.204275
C108  C     C_3   0.392549 0.290324 0.887979 -0.783582
H62   H     H_    0.394879 0.308906 0.839953 0.202673
H63   H     H_    0.423252 0.202271 0.910982 0.205290
H64   H     H_    0.358053 0.209843 0.890201 0.225110
C109  C     C_3   0.808533 0.229233 0.091478 -0.770553
H65   H     H_    0.772083 0.154498 0.085136 0.198002
H66   H     H_    0.812235 0.331285 0.129312 0.224191
H67   H     H_    0.809087 0.309365 0.049836 0.188536
C110  C     C_3   0.180502 0.736778 0.896441 -0.748423
H68   H     H_    0.219282 0.791312 0.906416 0.193207
H69   H     H_    0.176217 0.642077 0.933712 0.187929
H70   H     H_    0.173610 0.651546 0.854345 0.223535
C111  C     C_3   0.698588 0.712819 0.415550 -0.768528
H71   H     H_    0.733714 0.634640 0.419799 0.200352
H72   H     H_    0.696506 0.818770 0.379763 0.220145
H73   H     H_    0.699877 0.788798 0.458829 0.190299
C112  C     C_3   0.304239 0.286105 0.585523 -0.778444
H74   H     H_    0.269049 0.364266 0.580284 0.199086
H75   H     H_    0.303796 0.209705 0.542506 0.190854
H76   H     H_    0.305815 0.180687 0.621395 0.222759

loop_
_geom_bond_atom_site_label_1
_geom_bond_atom_site_label_2
_ccdc_geom_bond_type
C101  H49   S    
O17   V3    S    
C59   H19   S    
C100  C101  A    
C52   C56   A    
O1    C5    A    
C19   H4    S    
C51   H15   S    
O19   V1    S    
C9    C21   A    
C110  H68   S    
O12   C8    A    
O3    C7    A    
C97   C98   A    
C10   C18   A    
C60   H20   S    
C64   C68   A    
C81   C86   A    
C11   C23   A    
C54   C77   S    
C95   C96   A    
C33   C34   A    
C25   C33   A    
C33   C38   A    
C5    C12   S    
C39   H11   S    
C102  C103  A    
O7    C3    A    
C6    C11   S    
C35   C40   A    
C26   C30   A    
C62   C66   A    
C36   C39   A    
C40   C44   A    
C22   C105  S    
C61   C65   A    
C75   C79   A    
C14   C18   A    
C82   H33   S    
C76   C80   A    
C45   C109  S    
O4    C8    A    
C55   C59   A    
C111  H73   S    
C99   C100  A    
C54   C58   A    
C73   C77   A    
O1    V3    S    
C112  H76   S    
O13   V1    S    
C20   H3    S    
C107  H60   S    
C70   H26   S    
C32   C44   A    
C92   H42   S    
C109  H66   S    
C69   H25   S    
C103  C104  A    
C13   H5    S    
C50   C54   A    
C62   H22   S    
C40   H12   S    
C49   C53   A    
C1    O15   A    
C15   C31   A    
C52   H16   S    
C107  H61   S    
C2    O16   A    
C16   C32   A    
C51   C55   A    
O2    C6    A    
C90   C91   A    
C10   C22   A    
C15   H7    S    
C57   C61   A    
C11   C19   A    
C16   C20   A    
C42   C87   S    
C95   H44   S    
C45   C49   A    
C13   C29   A    
C108  H64   S    
C34   C37   A    
O11   C7    A    
O15   V3    S    
C35   C36   A    
C48   C68   A    
C110  H69   S    
C98   H47   S    
C107  H59   S    
C44   C99   S    
O10   V2    S    
C69   C78   A    
C76   H32   S    
C100  H48   S    
C23   C108  S    
C56   C79   S    
O5    V1    S    
C99   C104  A    
C105  H54   S    
C39   C43   A    
C60   C64   A    
O7    V3    S    
C38   C42   A    
C26   C34   A    
C47   C67   A    
C84   C85   A    
C46   C66   A    
C53   C78   S    
C50   H14   S    
C37   H9    S    
C49   H13   S    
O18   V4    S    
C106  H58   S    
C23   C27   A    
C108  H63   S    
C105  H53   S    
C18   H1    S    
O4    V2    S    
C64   H24   S    
C72   H28   S    
C1    C67   S    
C84   H35   S    
C109  H67   S    
C88   H38   S    
O5    C1    A    
C73   H29   S    
C83   H34   S    
C31   C43   A    
C93   C94   A    
C14   C30   A    
C21   C25   A    
C93   C98   A    
O8    C4    A    
C7    C10   S    
C112  H74   S    
O9    C5    A    
C90   H40   S    
C87   C88   A    
O2    V4    S    
C63   C67   A    
C24   C107  S    
C70   C77   A    
C85   H36   S    
C4    C66   S    
O14   V2    S    
C111  H71   S    
O6    V2    S    
C89   H39   S    
C110  H70   S    
C12   C20   A    
C27   C35   A    
C87   C92   A    
C4    O14   A    
C53   C57   A    
O3    V1    S    
C29   C41   A    
C101  C102  A    
C96   C97   A    
O16   V4    S    
C105  H55   S    
O9    V1    S    
C61   H21   S    
C91   H41   S    
C3    O13   A    
C48   C112  S    
C63   H23   S    
C86   H37   S    
C38   H10   S    
C48   C52   A    
C47   C51   A    
O6    C2    A    
C46   C110  S    
C15   C19   A    
C83   C84   A    
C72   C76   A    
O11   V3    S    
C104  H52   S    
C30   C42   A    
C71   H27   S    
O12   V4    S    
C59   C63   A    
C81   C82   A    
C22   C26   A    
C8    C9    S    
C58   C62   A    
C72   C79   A    
C9    C17   A    
C94   C95   A    
O10   C6    A    
C94   H43   S    
C97   H46   S    
C41   C81   S    
C47   C111  S    
C58   H18   S    
C88   C89   A    
C71   C80   A    
C46   C50   A    
C21   C106  S    
C106  H56   S    
O8    V4    S    
C102  H50   S    
C25   C29   A    
C56   C60   A    
O20   V2    S    
C55   C80   S    
C112  H75   S    
C14   H6    S    
C12   C24   A    
C27   C31   A    
C37   C41   A    
C13   C17   A    
C109  H65   S    
C3    C65   S    
C2    C68   S    
C75   H31   S    
C106  H57   S    
C82   C83   A    
C96   H45   S    
C16   H8    S    
C24   C28   A    
C91   C92   A    
C74   C78   A    
C28   C36   A    
C108  H62   S    
C45   C65   A    
C74   H30   S    
C89   C90   A    
C43   C93   S    
C70   C74   A    
C85   C86   A    
C111  H72   S    
C69   C73   A    
C103  H51   S    
C57   H17   S    
C28   C32   A    
C17   H2    S    
C71   C75   A    
