data_str_m3_o10_o18_f0_pcu.sym.55
_audit_creation_date              2012-12-10T16:52:39-0500
_audit_creation_method            fapswitch 2.2
_symmetry_space_group_name_H-M    P1
_symmetry_Int_Tables_number       1
_space_group_crystal_system       triclinic
_cell_length_a                    7.895115
_cell_length_b                    8.490645
_cell_length_c                    13.758087
_cell_angle_alpha                 94.204915
_cell_angle_beta                  93.193069
_cell_angle_gamma                 93.892624
_cell_volume                      915.955679838

loop_
_atom_site_label
_atom_site_type_symbol
_atom_type_description
_atom_site_fract_x
_atom_site_fract_y
_atom_site_fract_z
_atom_type_partial_charge
C1    C     C_R   0.048164 0.795221 0.509806 0.983515
C2    C     C_R   0.936680 0.486809 0.318079 0.889074
C3    C     C_R   0.092501 0.518927 0.787273 -0.045492
C4    C     C_R   0.901308 0.456795 0.213637 -0.063734
C5    C     C_R   0.038266 0.627934 0.948302 -0.190802
C6    C     C_R   0.923704 0.292096 0.065155 -0.184480
C7    C     C_R   0.988104 0.599802 0.849649 -0.174021
C8    C     C_R   0.988728 0.347325 0.158554 -0.180114
C9    C     C_R   0.237622 0.454969 0.824344 -0.267796
C10   C     C_R   0.755621 0.516022 0.174170 -0.276353
C11   C     C_R   0.291209 0.481623 0.922758 0.093551
C12   C     C_R   0.959664 0.207931 0.514917 0.873902
C13   C     C_R   0.677563 0.449375 0.085934 0.097445
C14   C     C_R   0.192386 0.574908 0.984369 0.172693
C15   C     C_R   0.766714 0.339673 0.029315 0.170206
C16   C     C_R   0.446992 0.428447 0.959238 0.065025
C17   C     C_R   0.512496 0.486861 0.053861 0.064218
C18   C     C_2   0.264262 0.026197 0.549054 0.544778
C19   C     C_2   0.794302 0.002198 0.600228 0.490671
C20   C     C_2   0.485721 0.379555 0.386423 0.702018
C21   C     C_2   0.517405 0.608899 0.617401 0.757143
C22   C     C_R   0.408693 0.576551 0.114417 -0.228735
C23   C     C_R   0.539373 0.319311 0.904246 -0.231311
C24   C     C_R   0.250619 0.617761 0.080324 -0.215548
C25   C     C_R   0.696215 0.275759 0.939089 -0.220615
C26   C     C_2   0.082646 0.961067 0.537847 -0.241359
C27   C     C_2   0.949194 0.052024 0.549785 -0.331426
C28   C     C_R   0.062877 0.510980 0.681979 0.858417
H1    H     H_    0.102688 0.300444 0.188897 0.160905
H2    H     H_    0.491038 0.260043 0.835357 0.147297
H3    H     H_    0.302282 0.122964 0.603638 0.039275
H4    H     H_    0.675884 0.056167 0.585639 0.128866
H5    H     H_    0.455224 0.429432 0.317882 -0.025125
H6    H     H_    0.558667 0.554850 0.682885 -0.039506
H7    H     H_    0.873433 0.648164 0.821453 0.180506
H8    H     H_    0.175416 0.686978 0.128753 0.154975
H9    H     H_    0.762038 0.190652 0.895387 0.161810
H10   H     H_    0.701689 0.609563 0.216787 0.147561
H11   H     H_    0.313439 0.394145 0.773072 0.135922
H12   H     H_    0.960281 0.696190 0.995529 0.146390
H13   H     H_    0.992012 0.207327 0.022799 0.143561
H14   H     H_    0.443557 0.614002 0.189715 0.152147
N1    N     N_2   0.440860 0.456490 0.474790 -0.183966
N2    N     N_2   0.559140 0.543510 0.525210 -0.170174
O1    O     O_R   0.891570 0.738930 0.506190 -0.594533
O2    O     O_2   0.801011 0.908036 0.663099 -0.580900
O3    O     O_2   0.547143 0.251588 0.386027 -0.564851
O4    O     O_2   0.445986 0.731641 0.624598 -0.567012
O5    O     O_R   0.108430 0.261070 0.493810 -0.629843
O6    O     O_R   0.174650 0.711050 0.490030 -0.555391
O7    O     O_R   0.825350 0.288950 0.509970 -0.590163
O8    O     O_R   0.909850 0.521900 0.644940 -0.640741
O9    O     O_R   0.090150 0.478100 0.355060 -0.640447
O10   O     O_R   0.192930 0.494020 0.628780 -0.643660
O11   O     O_R   0.807070 0.505980 0.371220 -0.619636
O12   O     O_2   0.370552 0.975837 0.496008 -0.526573
Zn1   Zn    Zn3+2 0.810990 0.518620 0.510790 0.989532
Zn2   Zn    Zn3+2 0.189010 0.481380 0.489210 0.972907

loop_
_geom_bond_atom_site_label_1
_geom_bond_atom_site_label_2
_ccdc_geom_bond_type
C2    C4    S    
O9    Zn2   S    
C10   C13   A    
C3    C9    A    
C13   C17   A    
C21   N2    S    
C9    C11   A    
C1    O6    A    
C17   C22   A    
C18   C26   S    
C18   O12   D    
N2    Zn1   S    
C10   H10   S    
C21   O4    D    
O1    Zn1   S    
C20   N1    S    
O11   Zn1   S    
C12   O5    A    
C5    C14   A    
C19   O2    D    
C24   H8    S    
C23   C25   A    
C28   O8    A    
C1    O1    A    
C26   C27   D    
C22   H14   S    
O7    Zn1   S    
C8    H1    S    
C3    C28   S    
C16   C23   A    
C3    C7    A    
C2    O11   A    
C13   C15   A    
N1    N2    D    
O10   Zn2   S    
C1    C26   S    
C11   C14   A    
C22   C24   A    
C15   C25   A    
C20   O3    D    
O8    Zn1   S    
C19   H4    S    
C12   C27   S    
C4    C10   A    
O6    Zn2   S    
C23   H2    S    
C9    H11   S    
C12   O7    A    
C19   C27   S    
C20   H5    S    
C11   C16   A    
C5    H12   S    
C14   C24   A    
C4    C8    A    
C5    C7    A    
C28   O10   A    
C6    C8    A    
C18   H3    S    
N1    Zn2   S    
C25   H9    S    
C6    C15   A    
C7    H7    S    
C21   H6    S    
O5    Zn2   S    
C16   C17   A    
C6    H13   S    
C2    O9    A    
