data_str_m2_o10_o16_f0_pcu.sym.15
_audit_creation_date              2012-10-26T19:58:14-0400
_audit_creation_method            fapswitch 2.2
_symmetry_space_group_name_H-M    P1
_symmetry_Int_Tables_number       1
_space_group_crystal_system       triclinic
_cell_length_a                    7.431336
_cell_length_b                    8.693757
_cell_length_c                    13.366932
_cell_angle_alpha                 93.992968
_cell_angle_beta                  77.268173
_cell_angle_gamma                 103.143677
_cell_volume                      820.113003747

loop_
_atom_site_label
_atom_site_type_symbol
_atom_type_description
_atom_site_fract_x
_atom_site_fract_y
_atom_site_fract_z
_atom_type_partial_charge
C1    C     C_R   0.545305 0.800195 0.503047 0.546498
C2    C     C_R   0.336693 0.497385 0.807419 0.004279
C3    C     C_2   0.570832 0.968060 0.504558 -0.152615
C4    C     C_R   0.399301 0.498052 0.694667 0.534819
C5    C     C_2   0.429147 0.031933 0.495490 -0.153535
C6    C     C_R   0.454682 0.199807 0.496981 0.550107
C7    C     C_R   0.601806 0.509528 0.305700 0.540431
C8    C     C_R   0.873461 0.696427 0.057162 0.224917
C9    C     C_R   0.664732 0.534056 0.194974 -0.044931
C10   C     C_R   0.150505 0.422010 0.850799 -0.116310
C11   C     C_R   0.094700 0.399731 0.955957 -0.119387
C12   C     C_R   0.417702 0.511766 0.976379 0.060657
C13   C     C_R   0.226389 0.442420 0.018235 -0.052253
C14   C     C_R   0.465519 0.557154 0.872466 0.022409
C15   C     C_R   0.560576 0.545391 0.035651 0.024020
C16   C     C_R   0.735203 0.651582 0.997086 0.045592
C17   C     C_R   0.768945 0.712347 0.898927 -0.109548
C18   C     C_R   0.637758 0.664790 0.837348 -0.142415
C19   C     C_R   0.538560 0.472298 0.130008 0.206217
C20   C     C_R   0.833547 0.641320 0.157467 -0.173907
Cu1   Cu    Cu3+1 0.321300 0.483160 0.488710 0.966513
Cu2   Cu    Cu3+1 0.678700 0.516840 0.511290 0.949355
H1    H     H_    0.931435 0.686279 0.207331 0.130310
H2    H     H_    0.048179 0.378690 0.803259 0.138303
H3    H     H_    0.173317 0.427237 0.099662 0.179906
H4    H     H_    0.949151 0.346156 0.989279 0.129666
H5    H     H_    0.292586 0.960547 0.486916 0.133885
H6    H     H_    0.989188 0.382250 0.420609 0.245747
H7    H     H_    0.898657 0.795979 0.868376 0.176759
H8    H     H_    0.670149 0.719463 0.763459 0.141969
H9    H     H_    0.707390 0.039440 0.513139 0.134782
H10   H     H_    0.010755 0.617702 0.579437 0.237323
H11   H     H_    0.124301 0.815052 0.069145 0.331133
H12   H     H_    0.434929 0.277322 0.206589 0.332274
N1    N     N_2   0.947230 0.542220 0.528320 -0.258913
N2    N     N_2   0.052770 0.457780 0.471680 -0.252445
O1    O     O_R   0.383920 0.714220 0.492660 -0.504981
O2    O     O_3   0.401484 0.335606 0.154663 -0.714766
O3    O     O_R   0.685730 0.742660 0.511730 -0.503458
O4    O     O_R   0.275440 0.478800 0.636790 -0.506013
O5    O     O_R   0.577250 0.507240 0.655860 -0.501784
O6    O     O_R   0.314270 0.257340 0.488270 -0.497014
O7    O     O_R   0.616080 0.285780 0.507340 -0.501517
O8    O     O_R   0.422750 0.492760 0.344140 -0.473323
O9    O     O_R   0.724560 0.521200 0.363210 -0.506864
O10   O     O_3   0.042768 0.798641 0.018035 -0.701895

loop_
_geom_bond_atom_site_label_1
_geom_bond_atom_site_label_2
_ccdc_geom_bond_type
C15   C16   A    
C2    C4    S    
C20   H1    S    
H11   O10   S    
C19   O2    S    
Cu1   O8    S    
C17   H7    S    
C14   C18   A    
C9    C20   A    
N1    N2    D    
C12   C15   A    
C1    O1    A    
C3    H9    S    
C17   C18   A    
C8    C16   A    
Cu1   N2    S    
H12   O2    S    
C7    O8    A    
C15   C19   A    
Cu2   N1    S    
C11   C13   A    
C13   H3    S    
C8    C20   A    
Cu1   O4    S    
C18   H8    S    
Cu2   O3    S    
C7    O9    A    
Cu1   Cu2   S    
C12   C14   A    
C6    O7    A    
C6    O6    A    
C5    C6    S    
C2    C14   A    
C8    O10   S    
Cu2   O5    S    
C4    O5    A    
C1    O3    A    
Cu1   O6    S    
C2    C10   A    
H10   N1    S    
C3    C5    D    
Cu2   O9    S    
Cu1   O1    S    
C12   C13   A    
H6    N2    S    
C10   C11   A    
C7    C9    S    
C11   H4    S    
C10   H2    S    
C5    H5    S    
C9    C19   A    
Cu2   O7    S    
C4    O4    A    
C16   C17   A    
C1    C3    S    
