data_str_m2_o10_o28_f0_pcu.sym.211
_audit_creation_date              2012-12-10T16:50:14-0500
_audit_creation_method            fapswitch 2.2
_symmetry_space_group_name_H-M    P1
_symmetry_Int_Tables_number       1
_space_group_crystal_system       triclinic
_cell_length_a                    23.483478
_cell_length_b                    8.711752
_cell_length_c                    7.520484
_cell_angle_alpha                 102.794051
_cell_angle_beta                  95.067498
_cell_angle_gamma                 93.842242
_cell_volume                      1488.54722914

loop_
_atom_site_label
_atom_site_type_symbol
_atom_type_description
_atom_site_fract_x
_atom_site_fract_y
_atom_site_fract_z
_atom_type_partial_charge
C1    C     C_R   0.497941 0.199955 0.453464 0.857075
C2    C     C_R   0.502026 0.800043 0.546543 0.854159
C3    C     C_R   0.242867 0.505862 0.663278 0.528383
C4    C     C_R   0.756239 0.449138 0.344840 0.535444
C5    C     C_R   0.302837 0.508640 0.664349 -0.306883
C6    C     C_R   0.696546 0.444857 0.342069 -0.268716
C7    C     C_R   0.328178 0.489492 0.499377 -0.095594
C8    C     C_R   0.671526 0.510932 0.500694 -0.097065
C9    C     C_R   0.292982 0.460800 0.332224 -0.224696
C10   C     C_R   0.706790 0.584265 0.661795 -0.212251
C11   C     C_R   0.233585 0.453266 0.330019 -0.180118
C12   C     C_R   0.766227 0.589262 0.665198 -0.172669
C13   C     C_R   0.208486 0.475966 0.494441 0.281847
C14   C     C_R   0.791369 0.518854 0.508959 0.237494
C15   C     C_2   0.496138 0.031863 0.427788 -0.363426
C16   C     C_2   0.503774 0.968135 0.572250 -0.359626
C17   C     C_R   0.391005 0.496913 0.500267 0.801523
C18   C     C_R   0.608893 0.503118 0.499726 0.804792
C19   C     C_R   0.887642 0.651137 0.561324 0.541547
C20   C     C_R   0.112701 0.343705 0.444428 0.591838
C21   C     C_R   0.874540 0.370628 0.481734 0.620693
C22   C     C_R   0.126201 0.624166 0.535373 0.588721
C23   C     C_R   0.932981 0.360712 0.455011 -0.103921
C24   C     C_R   0.067585 0.634016 0.560369 -0.087101
C25   C     C_R   0.970451 0.500736 0.510813 -0.028573
C26   C     C_R   0.030082 0.493924 0.502918 -0.022380
C27   C     C_R   0.948050 0.647472 0.575024 -0.073132
C28   C     C_R   0.052322 0.347224 0.436049 -0.081400
C29   C     C_R   0.954358 0.216667 0.371572 -0.091560
C30   C     C_R   0.045920 0.778158 0.642688 -0.088460
C31   C     C_R   0.013992 0.210118 0.362099 -0.035863
C32   C     C_R   0.986165 0.784800 0.649788 -0.040203
Cu1   Cu    Cu3+1 0.506340 0.517380 0.684380 1.024048
Cu2   Cu    Cu3+1 0.493660 0.482620 0.315620 1.020880
H1    H     H_    0.329474 0.525329 0.793289 0.188416
H2    H     H_    0.669940 0.387256 0.216824 0.185923
H3    H     H_    0.311260 0.444014 0.202742 0.183403
H4    H     H_    0.688439 0.637824 0.785361 0.165166
H5    H     H_    0.206907 0.432362 0.200504 0.190886
H6    H     H_    0.792913 0.645654 0.790452 0.169887
H7    H     H_    0.488172 0.960109 0.288689 0.164680
H8    H     H_    0.511708 0.039891 0.711370 0.166922
N1    N     N_R   0.852632 0.513801 0.518343 -0.468340
N2    N     N_R   0.147555 0.480872 0.490781 -0.453636
N3    N     N_2   0.484110 0.456420 0.038520 0.155164
N4    N     N_2   0.515890 0.543580 0.961480 0.154943
O1    O     O_R   0.504120 0.286130 0.619770 -0.555437
O2    O     O_R   0.495880 0.713870 0.380230 -0.558140
O3    O     O_R   0.493410 0.256770 0.308360 -0.625856
O4    O     O_R   0.506590 0.743230 0.691640 -0.626602
O5    O     O_R   0.423230 0.514630 0.655730 -0.539674
O6    O     O_R   0.576770 0.485370 0.344270 -0.537856
O7    O     O_R   0.412530 0.485280 0.344320 -0.596214
O8    O     O_R   0.587470 0.514720 0.655680 -0.588694
O9    O     O_2   0.863781 0.789910 0.585878 -0.478752
O10   O     O_2   0.136825 0.205356 0.409975 -0.476443
O11   O     O_2   0.839734 0.239167 0.474495 -0.475744
O12   O     O_2   0.161831 0.755819 0.551722 -0.520449
C33   C     C_2   0.914134 0.079419 0.270897 0.998541
O13   O     O_2   0.877548 0.097056 0.152537 -0.515970
O14   O     O_R   0.917713 0.931449 0.311866 -0.684324
H9    H     H_    0.888251 0.848119 0.232923 0.338072
C34   C     C_2   0.085889 0.916043 0.742621 1.005903
O15   O     O_2   0.121041 0.900771 0.866222 -0.559075
O16   O     O_R   0.084191 0.061338 0.693616 -0.673145
H10   H     H_    0.113590 0.145289 0.771897 0.357400
C35   C     C_2   0.034785 0.068293 0.247471 0.976703
O17   O     O_2   0.055655 0.079673 0.107548 -0.593980
O18   O     O_R   0.031632 0.924193 0.299971 -0.685998
H11   H     H_    0.047581 0.837304 0.209887 0.338582
C36   C     C_2   0.964757 0.927314 0.761726 0.982425
O19   O     O_2   0.940636 0.915659 0.896012 -0.595045
O20   O     O_R   0.971038 0.072604 0.712888 -0.688290
H12   H     H_    0.954284 0.159740 0.800315 0.339873
O21   O     O_3   0.216417 0.520581 0.823270 -0.592721
C37   C     C_3   0.236032 0.665464 0.946512 -0.255815
H13   H     H_    0.237527 0.766247 0.877541 0.205548
H14   H     H_    0.278650 0.657949 0.019217 0.143781
H15   H     H_    0.205569 0.690608 0.051784 0.222462
O22   O     O_3   0.779802 0.374523 0.190309 -0.536135
C38   C     C_3   0.794702 0.488261 0.091541 -0.266458
H16   H     H_    0.828921 0.577892 0.171014 0.156278
H17   H     H_    0.811894 0.427667 0.964280 0.213602
H18   H     H_    0.756508 0.546885 0.051109 0.149033
O23   O     O_3   0.434740 0.394112 0.935468 -0.486691
C39   C     C_3   0.422093 0.242080 0.963699 -0.132574
H19   H     H_    0.401908 0.247480 0.092263 0.165714
H20   H     H_    0.460572 0.174005 0.961388 0.134351
H21   H     H_    0.390394 0.176270 0.849660 0.132931
O24   O     O_3   0.565209 0.606224 0.064616 -0.479902
C40   C     C_3   0.577524 0.758586 0.036914 -0.121110
H22   H     H_    0.538915 0.826167 0.039975 0.131244
H23   H     H_    0.597425 0.753845 0.907999 0.161129
H24   H     H_    0.609299 0.824460 0.150685 0.135304

loop_
_geom_bond_atom_site_label_1
_geom_bond_atom_site_label_2
_ccdc_geom_bond_type
C34   O16   S    
C16   H8    S    
O20   H12   S    
C37   H15   S    
C20   O10   S    
C17   O5    A    
C38   H16   S    
C18   O6    A    
N3    N4    D    
C31   C35   S    
C23   C29   A    
C24   C26   A    
C4    O22   S    
C39   H20   S    
C15   C16   D    
C2    O4    A    
C38   H17   S    
C21   N1    A    
C22   N2    A    
C29   C33   S    
C7    C17   S    
C1    C15   S    
C2    C16   S    
C3    C13   A    
C33   O13   D    
C30   C34   S    
Cu1   N4    S    
O18   H11   S    
C20   N2    A    
C19   N1    A    
C32   C36   S    
C33   O14   S    
C35   O17   D    
C37   H13   S    
C15   H7    S    
C4    C6    A    
C40   H22   S    
C36   O20   S    
C39   H19   S    
C1    O1    A    
C6    C8    A    
C20   C28   A    
C2    O2    A    
C25   C26   A    
O23   C39   S    
C8    C18   S    
C35   O18   S    
C12   H6    S    
N3    O23   S    
O21   C37   S    
C21   O11   S    
C40   H23   S    
C9    H3    S    
Cu1   Cu2   S    
Cu2   N3    S    
C11   H5    S    
C9    C11   A    
C10   C12   A    
C12   C14   A    
C21   C23   A    
C25   C27   A    
Cu1   O1    S    
C22   C24   A    
Cu2   O2    S    
C17   O7    A    
C38   H18   S    
C19   C27   A    
C3    O21   S    
C5    C7    A    
C19   O9    S    
Cu1   O8    S    
C7    C9    A    
Cu2   O3    S    
C27   C32   A    
Cu2   O6    S    
C28   C31   A    
C37   H14   S    
O22   C38   S    
C3    C5    A    
C39   H21   S    
C22   O12   S    
N4    O24   S    
Cu1   O5    S    
C26   C28   A    
C10   H4    S    
Cu1   O4    S    
C36   O19   D    
C29   C31   A    
C40   H24   S    
C30   C32   A    
C11   C13   A    
O24   C40   S    
C5    H1    S    
C6    H2    S    
C23   C25   A    
C4    C14   A    
O14   H9    S    
C24   C30   A    
C18   O8    A    
C34   O15   D    
Cu2   O7    S    
C8    C10   A    
O16   H10   S    
C1    O3    A    
C13   N2    S    
C14   N1    S    
