data_str_m9_o4_o16_f0_sra.sym.111
_audit_creation_date              2012-12-11T17:00:15-0500
_audit_creation_method            fapswitch 2.2
_symmetry_space_group_name_H-M    P1
_symmetry_Int_Tables_number       1
_space_group_crystal_system       triclinic
_cell_length_a                    6.945427
_cell_length_b                    13.636491
_cell_length_c                    20.179459
_cell_angle_alpha                 102.777859
_cell_angle_beta                  90.697557
_cell_angle_gamma                 89.694223
_cell_volume                      1863.74524809

loop_
_atom_site_label
_atom_site_type_symbol
_atom_type_description
_atom_site_fract_x
_atom_site_fract_y
_atom_site_fract_z
_atom_type_partial_charge
O1    O     O_R   0.506770 0.599700 0.449550 -0.539044
O2    O     O_R   0.179980 0.595740 0.587960 -0.542238
O3    O     O_R   0.004580 0.400300 0.550450 -0.538752
C1    C     C_R   0.348650 0.616425 0.615250 0.706719
O4    O     O_R   0.177380 0.611700 0.452380 -0.536970
O5    O     O_R   0.001970 0.416370 0.413900 -0.533345
C2    C     C_R   0.344371 0.640026 0.436758 0.738712
O6    O     O_R   0.509390 0.583630 0.586100 -0.544838
O7    O     O_3   0.337530 0.435890 0.487530 -0.373294
V1    V     V_3+5 0.064660 0.511890 0.502310 1.474237
O8    O     O_R   0.671950 0.404260 0.412040 -0.550608
C3    C     C_R   0.840662 0.384147 0.384321 0.693244
O9    O     O_R   0.674540 0.388300 0.547620 -0.541974
C4    C     C_R   0.844915 0.361197 0.563817 0.686184
V2    V     V_3+5 0.564030 0.488110 0.497690 1.443758
O10   O     O_3   0.841030 0.564110 0.512470 -0.370482
C5    C     C_R   0.979483 0.119683 0.613936 -0.119163
H1    H     H_    0.061049 0.005638 0.701000 0.154380
H2    H     H_    0.038224 0.046543 0.590928 0.166290
C6    C     C_R   0.861645 0.282206 0.602193 -0.131560
C7    C     C_R   0.783875 0.312604 0.928947 -0.048130
C8    C     C_R   0.750737 0.385328 0.891406 -0.130788
C9    C     C_R   0.780278 0.363827 0.821563 -0.157776
C10   C     C_R   0.849015 0.268522 0.786949 0.095877
C11   C     C_R   0.893131 0.195866 0.825982 0.035844
C12   C     C_R   0.874842 0.242715 0.714948 0.078867
C13   C     C_R   0.951137 0.146797 0.684290 0.045459
C14   C     C_R   0.000911 0.078620 0.723994 -0.095417
C15   C     C_R   0.972548 0.102619 0.793599 -0.140723
C16   C     C_R   0.828813 0.308932 0.672189 -0.256296
C17   C     C_R   0.936358 0.186179 0.572415 0.355397
C18   C     C_R   0.854109 0.217262 0.896590 -0.137560
H3    H     H_    0.772842 0.383408 0.691800 0.114690
H4    H     H_    0.748827 0.424039 0.796433 0.124856
H5    H     H_    0.698825 0.459168 0.916233 0.160754
H6    H     H_    0.013550 0.046852 0.821791 0.158766
C19   C     C_R   0.745175 0.166160 0.234753 0.044473
C20   C     C_R   0.868144 0.183099 0.184022 -0.070229
C21   C     C_R   0.001241 0.262173 0.202980 -0.137123
H7    H     H_    0.104031 0.275819 0.166042 0.159211
C22   C     C_R   0.995644 0.327972 0.267902 -0.033560
C23   C     C_R   0.854650 0.315572 0.316131 -0.171085
C24   C     C_R   0.739604 0.229782 0.298531 0.032490
C25   C     C_3   0.530846 0.211308 0.306873 0.189518
C26   C     C_3   0.536816 0.140663 0.236541 0.172550
H8    H     H_    0.437554 0.278939 0.310541 0.125642
H9    H     H_    0.512343 0.059970 0.236287 0.109512
C27   C     C_R   0.486880 0.757735 0.704453 -0.059862
C28   C     C_R   0.354168 0.680647 0.684323 -0.068029
C29   C     C_R   0.219191 0.668109 0.734025 -0.204194
H10   H     H_    0.114724 0.607828 0.721579 0.116605
C30   C     C_R   0.221602 0.731198 0.800614 -0.029897
C31   C     C_R   0.355084 0.811953 0.817923 -0.124950
C32   C     C_R   0.485005 0.820293 0.767461 -0.009718
C33   C     C_3   0.645872 0.883087 0.751182 0.603935
C34   C     C_3   0.650936 0.810515 0.680039 -0.279228
H11   H     H_    0.782181 0.762710 0.670043 0.118812
C35   C     C_R   0.202388 0.880473 0.386510 -0.160133
H12   H     H_    0.120417 0.947055 0.408774 0.157348
C36   C     C_R   0.340762 0.722350 0.400215 -0.093326
C37   C     C_R   0.434320 0.687436 0.074679 -0.040276
C38   C     C_R   0.467420 0.616919 0.113927 -0.147204
C39   C     C_R   0.441920 0.642146 0.183948 -0.133166
C40   C     C_R   0.376255 0.738880 0.217075 0.076914
C41   C     C_R   0.330841 0.808975 0.176347 -0.015779
C42   C     C_R   0.348180 0.766751 0.288910 0.033287
C43   C     C_R   0.257435 0.860281 0.317767 0.030109
C44   C     C_R   0.214595 0.929103 0.276312 0.350965
C45   C     C_R   0.251193 0.902644 0.207095 -0.229375
C46   C     C_R   0.401299 0.702779 0.332747 -0.164685
C47   C     C_R   0.238397 0.811351 0.426806 -0.042676
C48   C     C_R   0.368164 0.784401 0.105479 -0.096698
H13   H     H_    0.480882 0.634167 0.315041 0.129467
H14   H     H_    0.470294 0.582963 0.210312 0.142208
H15   H     H_    0.516162 0.541878 0.090300 0.154892
H16   H     H_    0.214663 0.957391 0.177517 0.139384
O11   O     O_R   0.203450 0.916320 0.913910 -0.534198
O12   O     O_R   0.535520 0.888300 0.047620 -0.542422
O13   O     O_R   0.710860 0.083650 0.086100 -0.536265
C49   C     C_R   0.368453 0.862880 0.065583 0.676540
O14   O     O_R   0.532860 0.904250 0.912040 -0.527530
O15   O     O_R   0.708190 0.099710 0.949550 -0.538199
C50   C     C_R   0.363752 0.881907 0.885273 0.711499
O16   O     O_R   0.206120 0.900260 0.050460 -0.542210
O17   O     O_3   0.375280 0.064080 0.012470 -0.379232
V3    V     V_3+5 0.648180 0.988110 0.997690 1.505059
O18   O     O_R   0.038220 0.111740 0.952370 -0.545962
C51   C     C_R   0.868308 0.137910 0.935335 0.710062
O19   O     O_R   0.040880 0.095790 0.087940 -0.555626
C52   C     C_R   0.872772 0.116538 0.115340 0.711794
V4    V     V_3+5 0.148800 0.011950 0.002300 1.462709
O20   O     O_3   0.871820 0.935920 0.987530 -0.355329
O21   O     O_3   0.971936 0.154528 0.503725 -0.639911
H17   H     H_    0.919055 0.203941 0.479011 0.279775
C53   C     C_1   0.128462 0.410997 0.281301 0.328453
N1    N     N_1   0.235679 0.477315 0.291795 -0.399544
O22   O     O_3   0.501718 0.158908 0.358265 -0.641678
H18   H     H_    0.499379 0.210522 0.401461 0.299869
O23   O     O_3   0.428536 0.178520 0.188703 -0.643328
H19   H     H_    0.380932 0.119249 0.154863 0.302459
C54   C     C_1   0.093285 0.708055 0.850778 0.307908
N2    N     N_1   0.990451 0.689461 0.890981 -0.329821
O24   O     O_3   0.813082 0.880743 0.790764 -0.650876
H20   H     H_    0.839203 0.809596 0.791798 0.274016
O25   O     O_3   0.586748 0.981493 0.750495 -0.633501
H21   H     H_    0.566858 0.016107 0.798630 0.289659
C55   C     C_1   0.596286 0.856790 0.623200 0.433080
N3    N     N_1   0.554997 0.893555 0.578524 -0.338895
C56   C     C_1   0.162070 0.831331 0.494881 0.341096
N4    N     N_1   0.100605 0.846497 0.549267 -0.373301
O26   O     O_3   0.134431 0.022839 0.300654 -0.634289
H22   H     H_    0.183302 0.049788 0.347289 0.327668
C57   C     C_1   0.468617 0.658912 0.002410 0.304859
N5    N     N_1   0.495610 0.636622 0.944535 -0.362107
C58   C     C_1   0.745998 0.337376 0.001047 0.281200
N6    N     N_1   0.716050 0.356802 0.058778 -0.364686

loop_
_geom_bond_atom_site_label_1
_geom_bond_atom_site_label_2
_ccdc_geom_bond_type
O18   C51   A    
C54   N2    T    
O18   V4    S    
C22   C23   A    
C53   N1    T    
C49   O16   A    
O22   H18   S    
O17   V4    S    
V1    O10   S    
C21   C22   A    
C6    C16   A    
C31   C32   A    
C30   C31   A    
C27   C32   A    
C8    H5    S    
C15   H6    S    
C12   C13   A    
O21   H17   S    
C33   O25   S    
C14   C15   A    
C19   C20   A    
C10   C12   A    
O5    C3    A    
C20   C21   A    
O12   C49   A    
C35   C47   A    
O11   C50   A    
V2    O10   S    
C18   C51   S    
C33   O24   S    
C34   H11   S    
C45   H16   S    
O13   C52   A    
C3    C23   S    
O24   H20   S    
O8    V2    S    
O26   H22   S    
C44   C45   A    
C29   C30   A    
C55   N3    T    
O1    V2    S    
O16   V4    S    
O19   V4    S    
O7    V1    S    
O14   V3    S    
O15   C51   A    
C1    O6    A    
O12   V3    S    
C11   C18   A    
C42   C43   A    
O9    C4    A    
O14   C50   A    
C25   H8    S    
C26   H9    S    
C11   C15   A    
C7    C18   A    
C30   C54   S    
C43   C44   A    
C5    C13   A    
C4    C6    S    
H1    C14   S    
C10   C11   A    
C26   O23   S    
V4    O20   S    
O4    C2    A    
C36   C47   A    
C35   H12   S    
O17   V3    S    
C44   O26   S    
C40   C42   A    
C19   C24   A    
O2    C1    A    
C24   C25   S    
C34   C55   S    
C38   C39   A    
C25   O22   S    
O23   H19   S    
C36   C46   A    
C9    C10   A    
C9    H4    S    
C46   H13   S    
C29   H10   S    
O3    C4    A    
C37   C48   A    
C27   C28   A    
C12   C16   A    
O6    V2    S    
O9    V2    S    
C37   C57   S    
C5    C17   A    
C38   H15   S    
C23   C24   A    
C19   C26   S    
O2    V1    S    
C2    C36   S    
C21   H7    S    
C25   C26   S    
C57   N5    T    
C27   C34   S    
C32   C33   S    
O11   V4    S    
C16   H3    S    
O1    C2    A    
O5    V1    S    
O8    C3    A    
C39   H14   S    
C41   C48   A    
O25   H21   S    
C20   C52   S    
C7    C58   S    
C1    C28   S    
C31   C50   S    
C40   C41   A    
O7    V2    S    
O4    V1    S    
C48   C49   S    
O3    V1    S    
C17   O21   S    
C56   N4    T    
O15   V3    S    
C22   C53   S    
C41   C45   A    
C47   C56   S    
C5    H2    S    
C37   C38   A    
C33   C34   S    
C39   C40   A    
C35   C43   A    
C42   C46   A    
C28   C29   A    
C13   C14   A    
C8    C9    A    
V3    O20   S    
O19   C52   A    
C7    C8    A    
O13   V3    S    
C58   N6    T    
C6    C17   A    
