data_str_m2_o4_o10_f0_pcu.sym.237
_audit_creation_date              2013-03-05T16:30:35-0500
_audit_creation_method            fapswitch 2.2
_symmetry_space_group_name_H-M    P1
_symmetry_Int_Tables_number       1
_space_group_crystal_system       triclinic
_cell_length_a                    8.7241
_cell_length_b                    10.889602
_cell_length_c                    9.572564
_cell_angle_alpha                 91.156482
_cell_angle_beta                  98.284847
_cell_angle_gamma                 90.502743
_cell_volume                      899.675770004

loop_
_atom_site_label
_atom_site_type_symbol
_atom_site_description
_atom_site_fract_x
_atom_site_fract_y
_atom_site_fract_z
_atom_type_partial_charge
O1    O     O_R   0.500000 0.319640 0.618810 -0.589224
O2    O     O_R   0.500020 0.319680 0.381230 -0.506093
C1    C     C_R   0.502107 0.262452 0.498425 0.840713
O3    O     O_R   0.274830 0.499980 0.591380 -0.599448
O4    O     O_R   0.274850 0.500020 0.353800 -0.541753
C2    C     C_R   0.203826 0.499499 0.463614 0.894531
Cu1   Cu    Cu3+1 0.499990 0.499980 0.640670 0.982644
Cu2   Cu    Cu3+1 0.500010 0.500020 0.359330 1.050266
O5    O     O_R   0.499980 0.680320 0.618770 -0.580904
O6    O     O_R   0.500000 0.680360 0.381190 -0.608739
O7    O     O_R   0.725150 0.499980 0.646200 -0.577710
O8    O     O_R   0.725170 0.500020 0.408620 -0.577783
C3    C     C_R   0.500755 0.737466 0.500972 0.854908
C4    C     C_R   0.796183 0.500099 0.536412 0.900788
C5    C     C_2   0.037633 0.498209 0.443909 -0.310171
H1    H     H_    0.977052 0.494854 0.336457 0.199969
C6    C     C_2   0.962404 0.500589 0.556230 -0.333531
H2    H     H_    0.023025 0.503331 0.663772 0.185185
C7    C     C_R   0.478504 0.066995 0.616168 -0.007918
C8    C     C_R   0.497058 0.128925 0.493276 -0.180562
C9    C     C_R   0.501699 0.058980 0.366833 0.362877
C10   C     C_R   0.494877 0.930946 0.370799 -0.235545
H3    H     H_    0.500181 0.879147 0.273874 0.185532
C11   C     C_R   0.495742 0.870541 0.499228 -0.090051
C12   C     C_R   0.485509 0.940952 0.620627 0.026772
C13   C     C_3   0.577401 0.945430 0.766478 0.164186
C14   C     C_3   0.562870 0.084367 0.762410 -0.370637
H4    H     H_    0.516152 0.902692 0.847609 0.116912
C15   C     C_R   0.630969 0.530562 0.091603 0.227965
N1    N     N_R   0.500980 0.500930 0.148050 -0.251458
C16   C     C_R   0.376360 0.454570 0.055053 0.418888
C17   C     C_R   0.376806 0.456532 0.907046 -0.114566
H5    H     H_    0.277243 0.421424 0.836771 0.179331
N2    N     N_R   0.500990 0.500890 0.852140 -0.228213
C18   C     C_R   0.631355 0.529440 0.944530 0.238058
C19   C     C_3   0.719114 0.647508 0.952628 -0.376671
C20   C     C_3   0.718262 0.649261 0.111070 -0.458539
H6    H     H_    0.835543 0.639156 0.172186 0.217584
H7    H     H_    0.648950 0.725250 0.148071 0.212919
H8    H     H_    0.836545 0.636603 0.922137 0.237200
H9    H     H_    0.648324 0.720645 0.898365 0.216304
N3    N     N_R   0.527150 0.113645 0.236855 0.152894
O9    O     O_R   0.656498 0.172426 0.230875 -0.325262
O10   O     O_R   0.442799 0.078199 0.119437 -0.347726
N4    N     N_R   0.740149 0.909203 0.774731 0.129504
O11   O     O_R   0.793182 0.855477 0.669154 -0.369762
O12   O     O_R   0.833797 0.930250 0.891482 -0.313619
H10   H     H_    0.486163 0.121370 0.835988 0.223073
H11   H     H_    0.674544 0.135209 0.765156 0.225998
N5    N     N_R   0.243483 0.402247 0.103713 0.137528
O13   O     O_R   0.256104 0.299390 0.170727 -0.286837
O14   O     O_R   0.106049 0.439833 0.052235 -0.399805

loop_
_geom_bond_atom_site_label_1
_geom_bond_atom_site_label_2
_geom_bond_distance
_ccdc_geom_bond_type
C14   H10   1.111480 S    
O4    Cu2   1.957392 S    
N5    O14   1.301694 A    
C15   N1    1.363575 A    
C7    C14   1.492382 S    
C15   C18   1.408168 A    
C13   H4    1.111341 S    
C18   C19   1.485542 S    
N1    C16   1.386599 A    
Cu2   O8    1.952964 S    
Cu2   N1    2.023951 S    
C17   H5    1.081000 S    
C6    H2    1.087169 S    
C13   C14   1.520185 S    
C1    C8    1.453959 S    
C20   H7    1.111085 S    
O1    Cu1   1.970745 S    
N4    O11   1.301299 A    
C11   C12   1.393374 A    
Cu1   O7    1.957392 S    
C4    C6    1.435076 S    
C19   H9    1.103812 S    
C20   H6    1.110554 S    
N3    O10   1.301161 A    
O3    Cu1   1.952964 S    
Cu2   O6    1.970745 S    
C19   C20   1.517525 S    
Cu1   N2    2.022895 S    
O8    C4    1.289111 A    
O2    C1    1.292204 A    
Cu1   O5    1.979192 S    
N4    O12   1.300885 A    
O4    C2    1.294947 A    
C7    C12   1.375705 A    
O7    C4    1.294703 A    
C10   C11   1.405064 A    
C2    C5    1.434805 S    
Cu1   Cu2   2.693179 S    
N3    O9    1.301469 A    
C16   N5    1.428339 S    
C5    H1    1.086344 S    
C14   H11   1.113083 S    
C19   H8    1.111649 S    
C8    C9    1.422764 A    
O3    C2    1.288770 A    
N2    C18   1.365702 A    
C15   C20   1.489151 S    
C5    C6    1.337909 D    
O5    C3    1.299727 A    
C10   H3    1.082987 S    
C9    N3    1.434899 S    
C13   N4    1.468527 S    
N5    O13   1.299621 A    
C12   C13   1.506102 S    
C9    C10   1.396509 A    
C16   C17   1.417971 A    
O2    Cu2   1.979191 S    
C7    C8    1.396382 A    
C3    C11   1.450542 S    
O1    C1    1.301352 A    
O6    C3    1.292462 A    
C17   N2    1.359586 A    
