data_str_m2_o1_o3_f0_pcu.sym.26
_audit_creation_date              2012-10-26T20:44:03-0400
_audit_creation_method            fapswitch 2.2
_symmetry_space_group_name_H-M    P1
_symmetry_Int_Tables_number       1
_space_group_crystal_system       triclinic
_cell_length_a                    10.813556
_cell_length_b                    9.63073
_cell_length_c                    19.310289
_cell_angle_alpha                 89.890846
_cell_angle_beta                  92.522052
_cell_angle_gamma                 89.987592
_cell_volume                      2009.0688854

loop_
_atom_site_label
_atom_site_type_symbol
_atom_type_description
_atom_site_fract_x
_atom_site_fract_y
_atom_site_fract_z
_atom_type_partial_charge
C1    C     C_R   0.871587 0.499777 0.499837 0.028011
C2    C     C_R   0.737566 0.499950 0.499756 0.539775
C3    C     C_R   0.499028 0.499647 0.367946 0.619132
C4    C     C_R   0.501402 0.499544 0.632025 0.614210
C5    C     C_R   0.063928 0.373716 0.500399 -0.162472
C6    C     C_R   0.936209 0.625685 0.500929 -0.138249
C7    C     C_R   0.936078 0.373730 0.499335 -0.162436
C8    C     C_R   0.063988 0.625638 0.502669 -0.138983
C9    C     C_R   0.389393 0.503975 0.741102 0.229445
C10   C     C_R   0.387497 0.486076 0.253319 0.202431
C11   C     C_R   0.613390 0.480328 0.260244 0.229113
C12   C     C_R   0.128490 0.499763 0.501305 0.022480
C13   C     C_R   0.613066 0.467704 0.745533 0.212296
C14   C     C_R   0.387920 0.486611 0.813201 0.259779
C15   C     C_R   0.388152 0.451407 0.182043 0.263793
C16   C     C_R   0.614856 0.460583 0.188288 0.264093
C17   C     C_R   0.610443 0.437177 0.817190 0.268049
C18   C     C_R   0.499112 0.454590 0.851289 0.046935
C19   C     C_R   0.501676 0.448534 0.149047 0.047615
C20   C     C_R   0.447280 0.074137 0.445279 0.337124
C21   C     C_R   0.554478 0.925718 0.554085 0.349132
C22   C     C_R   0.552857 0.073872 0.554634 0.341033
C23   C     C_R   0.509272 0.576672 0.964410 0.243577
C24   C     C_R   0.444632 0.925985 0.446262 0.352530
C25   C     C_R   0.501803 0.495085 0.707640 -0.023759
C26   C     C_R   0.500020 0.494751 0.292316 -0.022225
C27   C     C_3   0.282011 0.175283 0.384925 -0.053900
C28   C     C_3   0.731538 0.838977 0.607464 -0.079070
C29   C     C_3   0.722584 0.169136 0.612695 -0.050974
C30   C     C_3   0.261110 0.846547 0.398226 -0.084120
C31   C     C_3   0.216219 0.420886 0.684426 -0.103795
C32   C     C_3   0.223169 0.632450 0.261180 -0.115862
C33   C     C_3   0.773700 0.368750 0.316716 -0.100055
C34   C     C_R   0.482588 0.323279 0.035615 0.221277
C35   C     C_3   0.795746 0.582437 0.733888 -0.122556
C36   C     C_3   0.230552 0.388924 0.873471 -0.127249
C37   C     C_3   0.207780 0.324127 0.169994 -0.096967
C38   C     C_3   0.755835 0.335042 0.127769 -0.132022
C39   C     C_3   0.769319 0.278595 0.830017 -0.100994
C40   C     C_3   0.408966 0.779644 0.936927 -0.098606
C41   C     C_3   0.345291 0.144231 0.048721 -0.091054
C42   C     C_3   0.657863 0.746818 0.065835 -0.075249
C43   C     C_3   0.597226 0.116717 0.946842 -0.104121
C44   C     C_R   0.519530 0.573807 0.037523 0.240164
C45   C     C_R   0.496252 0.323235 0.962942 0.218113
C46   C     C_R   0.500968 0.447931 0.072623 0.035445
C47   C     C_R   0.501630 0.450926 0.927652 0.039793
C48   C     C_R   0.262457 0.499961 0.500549 0.535296
Cu1   Cu    Cu3+1 0.500000 0.640660 0.500000 1.058245
Cu2   Cu    Cu3+1 0.500000 0.359340 0.500000 1.001011
H1    H     H_    0.111687 0.275111 0.500757 0.112596
H2    H     H_    0.772203 0.884749 0.560506 0.059063
H3    H     H_    0.737991 0.282469 0.615873 0.197672
H4    H     H_    0.768579 0.129364 0.566172 0.051171
H5    H     H_    0.769488 0.124131 0.659732 0.102535
H6    H     H_    0.234152 0.735963 0.396703 0.163798
H7    H     H_    0.211961 0.896588 0.353270 0.090609
H8    H     H_    0.226610 0.892481 0.446763 0.061248
H9    H     H_    0.187799 0.360787 0.730206 0.119124
H10   H     H_    0.270600 0.353746 0.650197 0.127628
H11   H     H_    0.130442 0.452062 0.654808 0.140430
H12   H     H_    0.888577 0.724312 0.500269 0.114164
H13   H     H_    0.141521 0.655375 0.291996 0.120938
H14   H     H_    0.188236 0.623503 0.206508 0.171823
H15   H     H_    0.288706 0.721323 0.266374 0.152213
H16   H     H_    0.709384 0.306605 0.347741 0.136962
H17   H     H_    0.859587 0.385240 0.349158 0.139047
H18   H     H_    0.799566 0.309295 0.270348 0.123433
H19   H     H_    0.841345 0.562605 0.785539 0.176037
H20   H     H_    0.741011 0.680320 0.735294 0.133546
H21   H     H_    0.870579 0.597637 0.697119 0.118687
H22   H     H_    0.267585 0.291619 0.850852 0.120419
H23   H     H_    0.888213 0.275177 0.497557 0.110103
H24   H     H_    0.128755 0.388247 0.863376 0.131286
H25   H     H_    0.247674 0.388097 0.930509 0.127992
H26   H     H_    0.146205 0.364204 0.209764 0.165496
H27   H     H_    0.265333 0.236793 0.191521 0.128564
H28   H     H_    0.145835 0.281475 0.127997 0.097992
H29   H     H_    0.705609 0.245576 0.150283 0.120872
H30   H     H_    0.856310 0.315056 0.136760 0.121803
H31   H     H_    0.737260 0.338826 0.070855 0.126024
H32   H     H_    0.833959 0.302568 0.788639 0.154681
H33   H     H_    0.698465 0.202076 0.810872 0.137498
H34   H     H_    0.111715 0.724160 0.505149 0.116335
H35   H     H_    0.825367 0.228134 0.872435 0.099589
H36   H     H_    0.412235 0.830715 0.988390 0.149358
H37   H     H_    0.322791 0.717045 0.930182 0.163482
H38   H     H_    0.404476 0.862966 0.897157 0.150835
H39   H     H_    0.356701 0.075957 0.003378 0.141073
H40   H     H_    0.273514 0.224041 0.035453 0.118592
H41   H     H_    0.310151 0.078212 0.090658 0.122831
H42   H     H_    0.659136 0.809974 0.017789 0.138897
H43   H     H_    0.729591 0.663901 0.064588 0.158242
H44   H     H_    0.683859 0.816401 0.109806 0.141687
H45   H     H_    0.270806 0.289280 0.380530 0.188777
H46   H     H_    0.573120 0.050082 0.991089 0.158158
H47   H     H_    0.682267 0.177404 0.961035 0.113488
H48   H     H_    0.619421 0.046210 0.903779 0.135214
H49   H     H_    0.233371 0.138523 0.431191 0.059731
H50   H     H_    0.234844 0.131312 0.337806 0.099314
H51   H     H_    0.753108 0.726877 0.608731 0.157225
H52   H     H_    0.778959 0.884632 0.654069 0.097418
N1    N     N_R   0.500000 0.852070 0.500000 -0.277292
N2    N     N_R   0.500000 0.147930 0.500000 -0.282141
O1    O     O_R   0.319640 0.618740 0.500000 -0.505271
O2    O     O_3   0.602408 0.856593 0.611898 -0.510217
O3    O     O_3   0.594336 0.141691 0.614223 -0.516470
O4    O     O_3   0.390237 0.856542 0.390447 -0.514509
O5    O     O_3   0.282153 0.541933 0.704049 -0.530041
O6    O     O_3   0.277821 0.507766 0.286137 -0.599886
O7    O     O_3   0.723333 0.499599 0.298505 -0.534804
O8    O     O_3   0.722934 0.468116 0.711254 -0.604039
O9    O     O_3   0.278450 0.512621 0.845626 -0.549258
O10   O     O_3   0.279283 0.432189 0.142198 -0.569333
O11   O     O_3   0.727954 0.465111 0.157158 -0.547466
O12   O     O_R   0.680360 0.381260 0.500000 -0.528164
O13   O     O_3   0.716867 0.401426 0.856102 -0.569146
O14   O     O_3   0.516705 0.700133 0.927803 -0.572577
O15   O     O_3   0.459812 0.202296 0.072053 -0.573505
O16   O     O_3   0.538004 0.694242 0.075847 -0.565548
O17   O     O_3   0.495936 0.201255 0.924787 -0.586464
O18   O     O_R   0.680360 0.618740 0.500000 -0.512298
O19   O     O_R   0.319640 0.381260 0.500000 -0.530743
O20   O     O_R   0.500020 0.618830 0.400190 -0.431762
O21   O     O_R   0.499980 0.381170 0.599810 -0.464322
O22   O     O_R   0.499980 0.618830 0.599810 -0.431359
O23   O     O_R   0.500020 0.381170 0.400190 -0.470912
O24   O     O_3   0.409181 0.141517 0.384746 -0.523356

loop_
_geom_bond_atom_site_label_1
_geom_bond_atom_site_label_2
_ccdc_geom_bond_type
C27   H45   S    
C41   H39   S    
Cu2   N2    S    
C42   H43   S    
C31   H11   S    
C40   O14   S    
C43   H48   S    
C42   H44   S    
C12   C48   S    
C18   C47   S    
C23   O14   S    
C4    C25   S    
C19   C46   S    
C9    C25   A    
C7    H23   S    
C15   C19   A    
Cu1   O22   S    
C34   C46   A    
C27   H49   S    
C32   O6    S    
C4    O21   A    
C40   H37   S    
C20   O24   S    
C13   O8    S    
C10   C15   A    
C3    O23   A    
C38   H29   S    
C44   O16   S    
C40   H36   S    
C22   O3    S    
C30   H7    S    
C22   N2    A    
C1    C2    S    
C11   C16   A    
C31   H9    S    
C14   C18   A    
C2    O12   A    
C28   H51   S    
C20   C24   A    
C35   H20   S    
C28   O2    S    
C24   O4    S    
C43   O17   S    
Cu2   O12   S    
C21   O2    S    
C17   O13   S    
C10   C26   A    
C45   C47   A    
C41   H40   S    
C35   H21   S    
C1    C7    A    
C21   C22   A    
C13   C25   A    
C48   O19   A    
C36   O9    S    
C44   C46   A    
C33   H16   S    
C17   C18   A    
C2    O18   A    
C9    O5    S    
C27   H50   S    
C23   C47   A    
C11   O7    S    
C1    C6    A    
C32   H14   S    
C5    C12   A    
C5    C7    A    
Cu1   O1    S    
C37   O10   S    
C29   H5    S    
C11   C26   A    
C45   O17   S    
C39   O13   S    
Cu1   O20   S    
C30   H6    S    
C23   C44   A    
C29   H3    S    
C31   H10   S    
C9    C14   A    
C36   H25   S    
C27   O24   S    
C48   O1    A    
C8    C12   A    
C43   H46   S    
C31   O5    S    
C15   O10   S    
Cu2   O21   S    
C41   O15   S    
C34   C45   A    
C33   O7    S    
C41   H41   S    
C37   H26   S    
C38   H31   S    
C39   H35   S    
C16   O11   S    
C3    O20   A    
C33   H17   S    
C34   O15   S    
C37   H27   S    
C36   H24   S    
C30   O4    S    
C8    H34   S    
C3    C26   S    
C29   O3    S    
Cu2   O19   S    
C43   H47   S    
C39   H32   S    
Cu1   N1    S    
C6    C8    A    
C20   N2    A    
C13   C17   A    
C32   H13   S    
C14   O9    S    
C37   H28   S    
C4    O22   A    
C6    H12   S    
C24   N1    A    
C40   H38   S    
C39   H33   S    
C38   O11   S    
C28   H2    S    
C42   O16   S    
C38   H30   S    
C16   C19   A    
Cu1   O18   S    
C30   H8    S    
C10   O6    S    
C42   H42   S    
C21   N1    A    
C28   H52   S    
C35   H19   S    
Cu1   Cu2   S    
C29   H4    S    
C5    H1    S    
Cu2   O23   S    
C35   O8    S    
C36   H22   S    
C33   H18   S    
C32   H15   S    
