data_str_m12_o9_o22_f0_bcu.sym.157
_audit_creation_date              2012-12-11T17:45:23-0500
_audit_creation_method            fapswitch 2.2
_symmetry_space_group_name_H-M    P1
_symmetry_Int_Tables_number       1
_space_group_crystal_system       triclinic
_cell_length_a                    14.989773
_cell_length_b                    14.876296
_cell_length_c                    15.094987
_cell_angle_alpha                 110.219141
_cell_angle_beta                  109.163285
_cell_angle_gamma                 109.033973
_cell_volume                      2590.86022118

loop_
_atom_site_label
_atom_site_type_symbol
_atom_type_description
_atom_site_fract_x
_atom_site_fract_y
_atom_site_fract_z
_atom_type_partial_charge
C1    C     C_R   0.905001 0.192289 0.989098 -0.142306
C2    C     C_R   0.295037 0.872377 0.296960 0.068532
C3    C     C_R   0.325484 0.499812 0.047710 0.000905
C4    C     C_R   0.042955 0.495715 0.320901 0.105116
C5    C     C_R   0.703123 0.409715 0.009156 -0.225121
C6    C     C_R   0.088670 0.591081 0.788653 -0.138711
C7    C     C_R   0.779880 0.247443 0.686643 -0.140693
C8    C     C_R   0.930545 0.746007 0.024288 -0.111944
C9    C     C_R   0.025915 0.750656 0.937082 -0.127666
C10   C     C_R   0.685064 0.239905 0.774859 -0.110717
C11   C     C_R   0.796840 0.592492 0.104363 0.408953
C12   C     C_R   0.294419 0.806362 0.205239 -0.121134
C13   C     C_R   0.003718 0.407773 0.701227 -0.175140
C14   C     C_R   0.705432 0.501483 0.077862 -0.082395
C15   C     C_R   0.059330 0.498476 0.696717 0.102119
C16   C     C_R   0.675956 0.209597 0.672135 0.067968
C17   C     C_R   0.946846 0.775008 0.950165 0.031884
C18   C     C_R   0.681814 0.263141 0.194574 -0.125609
C19   C     C_R   0.784514 0.343589 0.285043 -0.128668
C20   C     C_R   0.868096 0.317911 0.312943 0.156653
C21   C     C_R   0.846836 0.210394 0.250414 -0.208473
C22   C     C_R   0.744833 0.131411 0.158218 -0.116295
C23   C     C_R   0.223416 0.407451 0.972312 -0.147830
C24   C     C_R   0.662471 0.157854 0.130414 -0.100418
C25   C     C_R   0.986860 0.404357 0.505231 -0.257901
C26   C     C_R   0.074881 0.491611 0.605518 0.037910
C27   C     C_R   0.164168 0.572577 0.613221 -0.152229
C28   C     C_R   0.157771 0.566430 0.515587 0.446060
C29   C     C_R   0.060667 0.486175 0.416550 -0.024894
C30   C     C_R   0.976144 0.401929 0.411151 -0.053587
C31   C     C_R   0.284780 0.775837 0.746396 -0.156291
C32   C     C_R   0.362464 0.863943 0.851951 -0.127229
C33   C     C_R   0.411271 0.843789 0.933617 -0.094356
C34   C     C_R   0.059199 0.590476 0.314367 -0.023242
C35   C     C_R   0.384466 0.735898 0.909246 -0.118454
C36   C     C_R   0.310707 0.647874 0.802873 -0.141183
C37   C     C_R   0.257362 0.666702 0.721063 0.113790
C38   C     C_R   0.092446 0.990412 0.402066 -0.072851
C39   C     C_R   0.193267 0.030830 0.407300 -0.187125
C40   C     C_R   0.279193 0.029103 0.479605 0.105869
C41   C     C_R   0.264486 0.990789 0.549612 -0.190188
C42   C     C_R   0.162455 0.947258 0.541460 -0.139111
C43   C     C_R   0.076404 0.946599 0.467367 -0.024050
C44   C     C_R   0.478421 0.134746 0.565405 -0.251841
C45   C     C_R   0.313959 0.592321 0.065163 -0.130843
C46   C     C_R   0.575686 0.146491 0.566980 0.100692
C47   C     C_R   0.572936 0.090585 0.467863 0.081229
C48   C     C_R   0.474427 0.025755 0.372511 -0.218540
C49   C     C_R   0.378468 0.989261 0.377084 0.063898
C50   C     C_R   0.378876 0.052822 0.472101 0.044925
C51   C     C_R   0.724939 0.121189 0.426444 -0.277143
C52   C     C_R   0.805504 0.097441 0.418153 -0.117094
C53   C     C_R   0.815937 0.014255 0.435414 -0.148751
C54   C     C_R   0.747151 0.955620 0.462932 -0.306936
C55   C     C_R   0.669774 0.982960 0.477971 0.565651
C56   C     C_R   0.978285 0.406658 0.217416 -0.149286
C57   C     C_R   0.659670 0.067244 0.460527 0.018572
C58   C     C_3   0.534015 0.481473 0.965213 -0.409535
C59   C     C_3   0.429986 0.481295 0.956812 -0.393992
C60   C     C_3   0.541703 0.407915 0.093853 -0.391979
C61   C     C_3   0.632566 0.611204 0.168678 -0.354002
C62   C     C_3   0.606314 0.500760 0.077963 0.388074
C63   C     C_3   0.427691 0.499647 0.063305 0.403020
C64   C     C_3   0.435021 0.406384 0.083948 -0.402969
C65   C     C_3   0.528140 0.610888 0.160657 -0.449673
C66   C     C_R   0.049902 0.063126 0.675329 -0.131249
C67   C     C_R   0.206265 0.805178 0.298059 -0.087664
C68   C     C_R   0.977865 0.003098 0.699675 -0.172244
C69   C     C_R   0.018734 0.999651 0.795648 0.113940
C70   C     C_R   0.131481 0.045562 0.859913 -0.153374
C71   C     C_R   0.202790 0.100539 0.832043 -0.153907
C72   C     C_R   0.162197 0.112369 0.741790 -0.104938
C73   C     C_R   0.936295 0.859237 0.835259 -0.235476
C74   C     C_R   0.899908 0.830817 0.901293 0.066560
C75   C     C_R   0.836848 0.874321 0.932021 0.023702
C76   C     C_R   0.827926 0.955478 0.910715 -0.222091
C77   C     C_R   0.898249 0.009864 0.881920 0.060542
C78   C     C_R   0.999791 0.197783 0.903265 -0.141789
C79   C     C_R   0.945315 0.954353 0.833123 0.021617
C80   C     C_R   0.693354 0.778480 0.966550 -0.153381
C81   C     C_R   0.652479 0.778478 0.037322 -0.150017
C82   C     C_R   0.715713 0.860175 0.147279 -0.065984
C83   C     C_R   0.821713 0.940158 0.187451 -0.056498
C84   C     C_R   0.863287 0.940740 0.117553 -0.178637
C85   C     C_R   0.798944 0.860188 0.006617 0.101172
C86   C     C_R   0.935264 0.128900 0.924847 0.067976
H1    H     H_    0.844548 0.163141 0.011287 0.101133
H2    H     H_    0.140246 0.676186 0.815881 0.118348
H3    H     H_    0.805535 0.247254 0.628386 0.119510
H4    H     H_    0.873165 0.747941 0.051332 0.161253
H5    H     H_    0.060911 0.763538 0.887746 0.095435
H6    H     H_    0.620503 0.224239 0.794458 0.089605
H7    H     H_    0.981521 0.323405 0.649974 0.108981
H8    H     H_    0.583490 0.096800 0.059307 0.095063
H9    H     H_    0.616658 0.281617 0.174126 0.101375
H10   H     H_    0.798747 0.425283 0.333716 0.113970
H11   H     H_    0.340852 0.832550 0.168689 0.083332
H12   H     H_    0.910347 0.189211 0.271336 0.110947
H13   H     H_    0.729348 0.049819 0.107891 0.132578
H14   H     H_    0.918024 0.343554 0.499918 0.141117
H15   H     H_    0.243614 0.792404 0.685348 0.131902
H16   H     H_    0.382429 0.947545 0.871113 0.103712
H17   H     H_    0.468483 0.911379 0.016217 0.100447
H18   H     H_    0.418311 0.720308 0.973597 0.092421
H19   H     H_    0.289934 0.564593 0.785798 0.112393
H20   H     H_    0.997034 0.911428 0.460100 0.138108
H21   H     H_    0.203561 0.322228 0.934797 0.110626
H22   H     H_    0.025931 0.989733 0.344844 0.126975
H23   H     H_    0.203234 0.059405 0.352397 0.117582
H24   H     H_    0.329639 0.987696 0.604917 0.133945
H25   H     H_    0.149751 0.912910 0.591703 0.133462
H26   H     H_    0.479039 0.181629 0.638957 0.119772
H27   H     H_    0.476184 0.985015 0.298969 0.116914
H28   H     H_    0.715852 0.184098 0.410245 0.149866
H29   H     H_    0.859621 0.143015 0.397750 0.124753
H30   H     H_    0.876413 0.993942 0.425936 0.124756
H31   H     H_    0.753997 0.888824 0.472200 0.123222
H32   H     H_    0.104655 0.675018 0.380468 0.133550
H33   H     H_    0.511992 0.400857 0.899139 0.159252
H34   H     H_    0.578865 0.546317 0.951287 0.157702
H35   H     H_    0.423861 0.546379 0.939347 0.146902
H36   H     H_    0.358984 0.400881 0.886439 0.154099
H37   H     H_    0.521336 0.325757 0.032414 0.142934
H38   H     H_    0.365061 0.324591 0.016253 0.150706
H39   H     H_    0.684816 0.626784 0.250403 0.189707
H40   H     H_    0.675998 0.679633 0.159158 0.211338
H41   H     H_    0.528517 0.681341 0.150425 0.148175
H42   H     H_    0.375678 0.678210 0.115003 0.096113
H43   H     H_    0.527552 0.624616 0.237721 0.172583
H44   H     H_    0.592214 0.423610 0.176004 0.154210
H45   H     H_    0.432509 0.417511 0.159704 0.160036
H46   H     H_    0.217671 0.158596 0.722574 0.116126
H47   H     H_    0.019091 0.073458 0.606264 0.114886
H48   H     H_    0.891352 0.967898 0.649950 0.121582
H49   H     H_    0.164068 0.041540 0.933114 0.114081
H50   H     H_    0.289555 0.136120 0.881773 0.105833
H51   H     H_    0.973161 0.818653 0.798394 0.126678
H52   H     H_    0.780562 0.988445 0.936251 0.125808
H53   H     H_    0.956160 0.322013 0.191806 0.125606
H54   H     H_    0.642241 0.717019 0.880777 0.118681
H55   H     H_    0.571766 0.715309 0.006907 0.110245
H56   H     H_    0.682768 0.860935 0.201277 0.117119
H57   H     H_    0.871014 0.003910 0.271833 0.087036
H58   H     H_    0.944232 0.005875 0.148928 0.112918
H59   H     H_    0.173341 0.827447 0.349838 0.142810
H60   H     H_    0.026837 0.178730 0.846046 0.131233
H61   H     H_    0.646867 0.324323 0.977179 0.119435
N1    N     N_R   0.947080 0.293830 0.002870 -0.040325
N2    N     N_R   0.054040 0.556820 0.847890 -0.043352
N3    N     N_R   0.848290 0.293830 0.791110 -0.041741
N4    N     N_R   0.995680 0.706170 0.053910 -0.034240
N5    N     N_R   0.052920 0.706170 0.997130 -0.047452
N6    N     N_R   0.791050 0.293830 0.847890 -0.040278
N7    N     N_R   0.846330 0.556820 0.053910 -0.072404
N8    N     N_R   0.997640 0.443180 0.791110 -0.040597
N9    N     N_R   0.208950 0.706170 0.152110 -0.044638
N10   N     N_R   0.153670 0.443180 0.946090 -0.036621
N11   N     N_R   0.002360 0.556820 0.208890 -0.043965
N12   N     N_R   0.210070 0.556820 0.002870 -0.037263
N13   N     N_R   0.945960 0.443180 0.152110 -0.045006
N14   N     N_R   0.151710 0.706170 0.208890 -0.044392
N15   N     N_R   0.004320 0.293830 0.946090 -0.041274
N16   N     N_R   0.789930 0.443180 0.997130 -0.056384
Ni1   Ni    Ni4+2 0.869690 0.369690 0.000000 0.219183
Ni2   Ni    Ni4+2 0.130310 0.630310 0.000000 0.209678
Ni3   Ni    Ni4+2 0.000970 0.369690 0.869780 0.213114
Ni4   Ni    Ni4+2 0.999030 0.630310 0.130220 0.275269
Cl1   Cl    Cl    0.873301 0.720626 0.225961 -0.797947
O1    O     O_3   0.242581 0.637895 0.513520 -0.773762
H62   H     H_    0.311561 0.670222 0.580718 0.325806
O2    O     O_3   0.601856 0.927391 0.507054 -0.763022
H63   H     H_    0.619734 0.871462 0.516186 0.309041

loop_
_geom_bond_atom_site_label_1
_geom_bond_atom_site_label_2
_ccdc_geom_bond_type
C34   H32   S    
C66   C68   A    
O2    H63   S    
C63   C65   S    
C9    N5    A    
C59   H35   S    
C5    H61   S    
C73   C74   A    
C54   C55   A    
C3    C23   A    
C35   C36   A    
C45   N12   A    
C82   H56   S    
C2    C12   A    
C9    H5    S    
N5    Ni2   S    
C20   C30   S    
C53   C54   A    
C26   C27   A    
C80   C85   A    
C38   H22   S    
C18   C24   A    
C31   H15   S    
C28   C29   A    
C38   C39   A    
C11   C14   A    
N4    Ni4   S    
N3    Ni3   S    
C84   H58   S    
N8    Ni3   S    
C14   C62   S    
C1    C86   A    
C6    H2    S    
C60   C62   S    
C18   C19   A    
O1    H62   S    
C1    H1    S    
C13   N8    A    
C11   N7    A    
C6    C15   A    
N15   Ni3   S    
C6    N2    A    
C75   C85   S    
C66   C72   A    
C47   C48   A    
C68   C69   A    
N3    N6    A    
C67   H59   S    
N4    N5    A    
C61   H40   S    
C51   C57   A    
C5    C14   A    
C31   C32   A    
C4    C29   S    
C53   H30   S    
C78   C86   A    
C59   H36   S    
C81   H55   S    
C41   C42   A    
C10   H6    S    
N10   N12   A    
C21   C22   A    
C4    C56   A    
N11   N13   A    
C18   H9    S    
C61   C62   S    
C12   N9    A    
C10   N6    A    
C55   O2    S    
C44   C46   A    
N11   Ni4   S    
C72   H46   S    
C7    N3    A    
C77   C79   A    
C31   C37   A    
C4    C34   A    
C51   H28   S    
C74   C75   A    
N6    Ni1   S    
C51   C52   A    
N1    Ni1   S    
N7    N16   A    
C8    N4    A    
N2    Ni2   S    
C76   C77   A    
C2    C67   A    
C16   C46   S    
C39   C40   A    
C56   H53   S    
C15   C26   S    
C58   C59   S    
C80   H54   S    
C3    C45   A    
C81   C82   A    
N12   Ni2   S    
C61   H39   S    
C13   H7    S    
C43   H20   S    
C60   H37   S    
C75   C76   A    
C29   C30   A    
C2    C49   S    
C24   H8    S    
C47   C57   S    
C66   H47   S    
C67   N14   A    
C25   H14   S    
C83   C84   A    
C64   H45   S    
C23   H21   S    
C58   H34   S    
C73   C79   A    
N13   Ni1   S    
C17   C74   S    
C84   C85   A    
C12   H11   S    
N14   Ni4   S    
C58   C62   S    
C44   H26   S    
C9    C17   A    
C48   C49   A    
C77   C86   S    
C35   H18   S    
C76   H52   S    
C41   H24   S    
C55   C57   A    
C70   H49   S    
C22   C24   A    
N7    Ni4   S    
C69   C79   S    
C8    H4    S    
C42   C43   A    
C60   H44   S    
C5    N16   A    
C71   H50   S    
C70   C71   A    
C52   C53   A    
C52   H29   S    
C44   C50   A    
C25   C30   A    
C46   C47   A    
C36   C37   A    
C22   H13   S    
C34   N11   A    
C36   H19   S    
C33   H17   S    
C65   H41   S    
C42   H25   S    
C7    C16   A    
C80   C81   A    
N10   Ni3   S    
N9    N14   A    
C65   H43   S    
C78   N15   A    
C3    C63   S    
C64   H38   S    
C59   C63   S    
C8    C17   A    
C60   C64   S    
N1    N15   A    
C32   C33   A    
C19   C20   A    
C13   C15   A    
C25   C26   A    
C38   C43   A    
C56   N13   A    
C10   C16   A    
C83   H57   S    
C21   H12   S    
C11   Cl1   S    
C73   H51   S    
N9    Ni2   S    
C27   C37   S    
C40   C50   S    
C23   N10   A    
C68   H48   S    
C58   H33   S    
C33   C35   A    
C32   H16   S    
N2    N8    A    
C69   C70   A    
N16   Ni1   S    
C78   H60   S    
C63   C64   S    
C61   C65   S    
C28   O1    S    
C39   H23   S    
C71   C72   A    
C20   C21   A    
C49   C50   A    
C54   H31   S    
C27   C28   A    
C1    N1    A    
C40   C41   A    
C45   H42   S    
C82   C83   A    
C19   H10   S    
C48   H27   S    
C7    H3    S    
