data_str_m3_o10_o17_f0_pcu.sym.137
_audit_creation_date              2012-12-10T16:52:03-0500
_audit_creation_method            fapswitch 2.2
_symmetry_space_group_name_H-M    P1
_symmetry_Int_Tables_number       1
_space_group_crystal_system       triclinic
_cell_length_a                    7.826772
_cell_length_b                    8.585225
_cell_length_c                    14.943255
_cell_angle_alpha                 91.437941
_cell_angle_beta                  86.684929
_cell_angle_gamma                 92.695232
_cell_volume                      1001.06482066

loop_
_atom_site_label
_atom_site_type_symbol
_atom_type_description
_atom_site_fract_x
_atom_site_fract_y
_atom_site_fract_z
_atom_type_partial_charge
C1    C     C_R   0.544088 0.793873 0.498797 0.935598
C2    C     C_R   0.653522 0.541989 0.810788 -0.246195
C3    C     C_R   0.494482 0.507288 0.231423 -0.043630
C4    C     C_R   0.505517 0.492714 0.768578 -0.043630
C5    C     C_R   0.643731 0.556699 0.182187 -0.215307
C6    C     C_R   0.356265 0.443305 0.817813 -0.215300
C7    C     C_R   0.647100 0.554316 0.089656 0.108207
C8    C     C_R   0.352895 0.445689 0.910345 0.108204
C9    C     C_R   0.498535 0.502466 0.046554 0.066483
C10   C     C_R   0.501460 0.497538 0.953446 0.066482
C11   C     C_R   0.347285 0.454917 0.096594 0.115549
C12   C     C_R   0.455912 0.206127 0.501205 0.935619
C13   C     C_R   0.652711 0.545086 0.903407 0.115552
C14   C     C_R   0.796659 0.601469 0.039738 -0.211721
C15   C     C_R   0.203334 0.398539 0.960263 -0.211721
C16   C     C_2   0.688287 0.004987 0.582494 0.412739
C17   C     C_2   0.311715 0.995011 0.417509 0.412755
C18   C     C_2   0.010085 0.437527 0.385624 0.663149
C19   C     C_2   0.989921 0.562458 0.614377 0.663148
C20   C     C_R   0.799461 0.596871 0.946683 -0.205227
C21   C     C_R   0.200534 0.403134 0.053317 -0.205225
C22   C     C_2   0.561328 0.955346 0.514909 -0.215221
C23   C     C_2   0.438671 0.044654 0.485096 -0.215230
C24   C     C_R   0.502487 0.498144 0.672933 0.921746
C25   C     C_R   0.497513 0.501857 0.327067 0.921758
C26   C     C_R   0.346477 0.458013 0.189212 -0.246185
H1    H     H_    0.232896 0.417686 0.228055 0.174760
H2    H     H_    0.190985 0.052238 0.417268 0.113163
H3    H     H_    0.058971 0.537336 0.347336 0.027612
H4    H     H_    0.941021 0.462650 0.652659 0.027641
H5    H     H_    0.767103 0.582314 0.771945 0.174763
H6    H     H_    0.757608 0.596093 0.215921 0.156884
H7    H     H_    0.242388 0.403913 0.784079 0.156887
H8    H     H_    0.911083 0.641441 0.072625 0.162040
H9    H     H_    0.088909 0.358568 0.927376 0.162039
H10   H     H_    0.915862 0.633681 0.908637 0.167783
H11   H     H_    0.084133 0.366322 0.091364 0.167780
H12   H     H_    0.809001 0.947738 0.582745 0.113153
N1    N     N_2   0.950330 0.457950 0.475660 -0.180657
N2    N     N_2   0.049670 0.542050 0.524340 -0.180651
O1    O     O_R   0.389250 0.738570 0.505970 -0.572145
O2    O     O_2   0.344812 0.897867 0.358681 -0.564457
O3    O     O_2   0.994470 0.309663 0.348799 -0.627042
O4    O     O_2   0.005561 0.690302 0.651212 -0.627058
O5    O     O_R   0.610750 0.261430 0.494030 -0.572130
O6    O     O_R   0.678390 0.711620 0.490370 -0.659160
O7    O     O_R   0.321610 0.288380 0.509630 -0.659160
O8    O     O_R   0.355420 0.513510 0.639950 -0.634242
O9    O     O_R   0.644580 0.486490 0.360050 -0.634256
O10   O     O_R   0.644560 0.486560 0.624350 -0.642968
O11   O     O_R   0.355440 0.513440 0.375650 -0.642965
O12   O     O_2   0.655214 0.102155 0.641311 -0.564462
Zn1   Zn    Zn3+2 0.306940 0.517990 0.510420 0.992229
Zn2   Zn    Zn3+2 0.693060 0.482010 0.489580 0.992225

loop_
_geom_bond_atom_site_label_1
_geom_bond_atom_site_label_2
_ccdc_geom_bond_type
C14   H8    S    
C2    C4    A    
C18   N1    S    
C25   O11   A    
C9    C10   A    
C11   C26   A    
C6    H7    S    
C15   C21   A    
O7    Zn1   S    
C5    H6    S    
O6    Zn2   S    
C3    C5    A    
C1    C22   S    
C18   H3    S    
C17   C23   S    
C18   O3    D    
C9    C11   A    
C12   C23   S    
O1    Zn1   S    
C26   H1    S    
O10   Zn2   S    
C12   O7    A    
C1    O1    A    
O5    Zn2   S    
N2    Zn1   S    
C8    C15   A    
C5    C7    A    
C3    C26   A    
C24   O10   A    
O8    Zn1   S    
C4    C24   S    
C25   O9    A    
C1    O6    A    
N1    Zn2   S    
C16   H12   S    
C19   N2    S    
O9    Zn2   S    
C20   H10   S    
C14   C20   A    
C3    C25   S    
C21   H11   S    
C19   O4    D    
C8    C10   A    
C4    C6    A    
C15   H9    S    
N1    N2    D    
C7    C9    A    
C2    C13   A    
C17   O2    D    
C2    H5    S    
C6    C8    A    
C13   C20   A    
C17   H2    S    
C22   C23   D    
C19   H4    S    
C11   C21   A    
C7    C14   A    
C16   O12   D    
C16   C22   S    
C12   O5    A    
O11   Zn1   S    
C10   C13   A    
C24   O8    A    
