data_str_m12_o9_o11_f0_bcu.sym.58
_audit_creation_date              2012-12-11T17:39:37-0500
_audit_creation_method            fapswitch 2.2
_symmetry_space_group_name_H-M    P1
_symmetry_Int_Tables_number       1
_space_group_crystal_system       triclinic
_cell_length_a                    14.850507
_cell_length_b                    15.077226
_cell_length_c                    14.845661
_cell_angle_alpha                 109.228843
_cell_angle_beta                  108.807885
_cell_angle_gamma                 110.24813
_cell_volume                      2562.56121213

loop_
_atom_site_label
_atom_site_type_symbol
_atom_type_description
_atom_site_fract_x
_atom_site_fract_y
_atom_site_fract_z
_atom_type_partial_charge
Br1   Br    Br    0.399554 0.090361 0.019998 -0.709096
C1    C     C_R   0.905404 0.978836 0.718252 -0.123713
C2    C     C_R   0.906309 0.699602 0.500325 -0.149355
C3    C     C_R   0.740349 0.777488 0.185646 -0.131635
C4    C     C_R   0.091394 0.314526 0.561894 -0.134595
C5    C     C_R   0.256732 0.941733 0.529894 -0.115478
C6    C     C_R   0.705720 0.674623 0.175712 0.128184
C7    C     C_R   0.286586 0.961412 0.454844 0.053591
C8    C     C_R   0.996375 0.695144 0.556808 0.063357
C9    C     C_R   0.997922 0.051060 0.188065 0.054851
C10   C     C_R   0.487332 0.576643 0.372126 -0.108239
C11   C     C_R   0.471642 0.656974 0.354437 -0.140837
C12   C     C_R   0.997567 0.322042 0.547010 0.041524
C13   C     C_R   0.458111 0.730572 0.428901 0.106612
C14   C     C_R   0.458776 0.720755 0.520166 -0.167563
C15   C     C_R   0.473153 0.639384 0.536596 -0.096470
C16   C     C_R   0.303080 0.206307 0.797304 -0.140744
C17   C     C_R   0.487672 0.567580 0.462839 -0.107149
C18   C     C_R   0.362218 0.837534 0.424779 -0.234449
C19   C     C_R   0.345863 0.918234 0.407086 0.065473
C20   C     C_R   0.393150 0.959057 0.349943 0.030721
C21   C     C_R   0.464980 0.929955 0.327095 -0.225987
C22   C     C_R   0.506129 0.878224 0.376659 0.041503
C23   C     C_R   0.367318 0.297778 0.797978 0.136046
C24   C     C_R   0.443211 0.816918 0.410681 0.035998
C25   C     C_R   0.309736 0.022165 0.228356 -0.148425
C26   C     C_R   0.303748 0.106259 0.211665 -0.072448
C27   C     C_R   0.378502 0.214981 0.294454 -0.095472
C28   C     C_R   0.693094 0.986640 0.396878 -0.143507
C29   C     C_R   0.460210 0.239694 0.393482 -0.129974
C30   C     C_R   0.465777 0.155856 0.411043 -0.164006
C31   C     C_R   0.388788 0.046750 0.329441 0.090185
C32   C     C_R   0.786466 0.171599 0.190699 -0.132399
C33   C     C_R   0.861248 0.269611 0.289266 -0.108998
C34   C     C_R   0.625166 0.917857 0.419150 0.070987
C35   C     C_R   0.826230 0.310233 0.362368 0.104148
C36   C     C_R   0.715064 0.253847 0.334231 -0.192084
C37   C     C_R   0.641270 0.154552 0.236848 -0.052202
C38   C     C_R   0.676798 0.113424 0.164980 -0.076930
C39   C     C_R   0.906618 0.502720 0.478675 -0.241437
C40   C     C_R   0.303659 0.298142 0.706904 -0.126836
C41   C     C_R   0.988867 0.603228 0.570278 0.054951
C42   C     C_R   0.066726 0.611967 0.662600 0.036127
C43   C     C_R   0.066886 0.517417 0.655376 -0.256274
C44   C     C_R   0.988766 0.417165 0.559014 0.071867
C45   C     C_R   0.738287 0.686098 0.278636 -0.145631
C46   C     C_R   0.906512 0.409894 0.470371 0.019957
C47   C     C_R   0.261619 0.760095 0.802786 -0.238489
C48   C     C_R   0.336871 0.869564 0.882704 -0.181329
C49   C     C_R   0.299371 0.937801 0.924812 0.386225
C50   C     C_R   0.187245 0.895364 0.891723 -0.194070
C51   C     C_R   0.111821 0.786231 0.811845 -0.188743
C52   C     C_R   0.692208 0.897790 0.489276 -0.151675
C53   C     C_R   0.148039 0.718796 0.763743 0.135287
C54   C     C_2   0.541386 0.462982 0.877686 -0.132248
C55   C     C_2   0.484735 0.369754 0.873927 -0.182818
C56   C     C_R   0.252908 0.032214 0.437197 -0.135339
C57   C     C_2   0.633593 0.558784 0.981706 -0.111425
C58   C     C_2   0.638054 0.570432 0.076446 -0.199377
C59   C     C_R   0.370341 0.370302 0.088695 -0.101499
C60   C     C_R   0.284845 0.284250 0.079940 -0.177484
C61   C     C_R   0.178451 0.269762 0.040368 0.106229
C62   C     C_R   0.159050 0.343024 0.009702 -0.120593
C63   C     C_R   0.244958 0.429777 0.019726 -0.094907
C64   C     C_R   0.907950 0.218431 0.481751 -0.108909
C65   C     C_R   0.350566 0.443452 0.059252 -0.110164
C66   C     C_R   0.085801 0.162376 0.114622 -0.252671
C67   C     C_R   0.089902 0.787920 0.588895 -0.123847
C68   C     C_R   0.992003 0.077506 0.099475 0.057901
C69   C     C_R   0.892080 0.020441 0.998437 0.007239
C70   C     C_R   0.890852 0.046212 0.917130 -0.218800
C71   C     C_R   0.989879 0.104229 0.922029 0.052453
C72   C     C_R   0.085319 0.176047 0.025232 0.023139
C73   C     C_R   0.797519 0.820214 0.922191 -0.123734
C74   C     C_R   0.700094 0.719369 0.861350 -0.149701
C75   C     C_R   0.599257 0.714096 0.841437 -0.103947
C76   C     C_R   0.088811 0.068697 0.811621 -0.126009
C77   C     C_R   0.595202 0.809762 0.879106 -0.102651
C78   C     C_R   0.908515 0.997583 0.197975 -0.132092
C79   C     C_R   0.691806 0.910820 0.935804 -0.197312
C80   C     C_R   0.794040 0.916799 0.959535 0.112519
C81   C     C_R   0.995786 0.059058 0.820883 0.050030
C82   C     C_R   0.090948 0.089089 0.285798 -0.147401
H1    H     H_    0.819460 0.949239 0.693153 0.100486
H2    H     H_    0.499625 0.521576 0.315763 0.111122
H3    H     H_    0.471135 0.662500 0.283377 0.115273
H4    H     H_    0.176034 0.380339 0.607204 0.098621
H5    H     H_    0.449727 0.776814 0.579476 0.110770
H6    H     H_    0.473416 0.632240 0.606788 0.109363
H7    H     H_    0.315746 0.793959 0.454235 0.123448
H8    H     H_    0.502223 0.965279 0.286791 0.122679
H9    H     H_    0.251120 0.938327 0.164235 0.122918
H10   H     H_    0.240173 0.086422 0.134844 0.120898
H11   H     H_    0.373256 0.280473 0.282817 0.101968
H12   H     H_    0.256067 0.063019 0.382592 0.130682
H13   H     H_    0.518435 0.323735 0.457024 0.104872
H14   H     H_    0.528502 0.175563 0.488607 0.121377
H15   H     H_    0.619333 0.036485 0.089606 0.112227
H16   H     H_    0.332409 0.173890 0.847873 0.146148
H17   H     H_    0.814257 0.140426 0.135240 0.114602
H18   H     H_    0.946636 0.312681 0.309764 0.115164
H19   H     H_    0.687028 0.284382 0.389944 0.126474
H20   H     H_    0.556901 0.109022 0.217876 0.158489
H21   H     H_    0.847540 0.496814 0.407534 0.138095
H22   H     H_    0.128256 0.521843 0.723440 0.131465
H23   H     H_    0.174551 0.814991 0.642419 0.114150
H24   H     H_    0.291181 0.709834 0.766337 0.124835
H25   H     H_    0.423722 0.902541 0.908501 0.133339
H26   H     H_    0.157955 0.947799 0.924494 0.139351
H27   H     H_    0.668427 0.008537 0.334622 0.096115
H28   H     H_    0.024591 0.755866 0.782962 0.127409
H29   H     H_    0.509314 0.476584 0.809997 0.113878
H30   H     H_    0.520526 0.353073 0.938170 0.148403
H31   H     H_    0.687374 0.627394 0.980161 0.137835
H32   H     H_    0.585353 0.504242 0.082088 0.127004
H33   H     H_    0.416743 0.510439 0.066540 0.110356
H34   H     H_    0.824786 0.976930 0.150928 0.106179
H35   H     H_    0.451752 0.379824 0.117758 0.123062
H36   H     H_    0.300322 0.226100 0.098586 0.152191
H37   H     H_    0.077357 0.332945 0.978108 0.110090
H38   H     H_    0.229512 0.486110 0.996362 0.108893
H39   H     H_    0.332608 0.348814 0.673717 0.081809
H40   H     H_    0.159608 0.215685 0.194018 0.126257
H41   H     H_    0.813853 0.000880 0.841110 0.129505
H42   H     H_    0.874804 0.823182 0.934965 0.110020
H43   H     H_    0.702719 0.645155 0.829258 0.109799
H44   H     H_    0.523918 0.635987 0.794941 0.089215
H45   H     H_    0.174445 0.148984 0.314459 0.102983
H46   H     H_    0.516714 0.805380 0.861041 0.100521
H47   H     H_    0.686537 0.984000 0.957758 0.114655
H48   H     H_    0.666827 0.839940 0.516088 0.118193
H49   H     H_    0.822922 0.194034 0.457904 0.114260
H50   H     H_    0.173736 0.120623 0.875137 0.136308
H51   H     H_    0.722097 0.622226 0.299606 0.097581
H52   H     H_    0.821395 0.647095 0.475625 0.095669
H53   H     H_    0.724741 0.796953 0.120398 0.113366
H54   H     H_    0.270318 0.891092 0.563423 0.092875
H55   H     H_    0.499401 0.505049 0.476093 0.095168
N1    N     N_R   0.941940 0.944580 0.650780 -0.042687
N2    N     N_R   0.204460 0.150250 0.707090 -0.044197
N3    N     N_R   0.794270 0.003240 0.446420 -0.041041
N4    N     N_R   0.204920 0.207570 0.650770 -0.043040
N5    N     N_R   0.793810 0.945920 0.502740 -0.041204
N6    N     N_R   0.943620 0.152590 0.446420 -0.041560
N7    N     N_R   0.055110 0.000900 0.707100 -0.040063
N8    N     N_R   0.795080 0.792430 0.349230 -0.039625
N9    N     N_R   0.206190 0.054080 0.497260 -0.044120
N10   N     N_R   0.056380 0.847410 0.553580 -0.041314
N11   N     N_R   0.944890 0.999100 0.292900 -0.039218
N12   N     N_R   0.058060 0.055420 0.349220 -0.040513
N13   N     N_R   0.943200 0.791100 0.497260 -0.037246
N14   N     N_R   0.795540 0.849750 0.292910 -0.043598
N15   N     N_R   0.205730 0.996760 0.553580 -0.040454
N16   N     N_R   0.056800 0.208900 0.502740 -0.041329
Ni1   Ni    Ni4+2 0.869690 0.869690 0.500000 0.212931
Ni2   Ni    Ni4+2 0.130310 0.130310 0.500000 0.209519
Ni3   Ni    Ni4+2 0.129250 0.998840 0.629170 0.228848
Ni4   Ni    Ni4+2 0.870750 0.001160 0.370830 0.213563

loop_
_geom_bond_atom_site_label_1
_geom_bond_atom_site_label_2
_ccdc_geom_bond_type
C39   C46   A    
C54   C55   D    
C10   C17   A    
C25   C31   A    
C54   H29   S    
C34   C52   A    
C1    H1    S    
C18   C19   A    
N10   N13   A    
C82   H45   S    
C74   C75   A    
C12   C64   A    
C43   H22   S    
C47   C53   A    
C25   C26   A    
C36   C37   A    
C65   H33   S    
C7    C19   S    
C1    N1    A    
C35   C36   A    
C77   H46   S    
C75   C77   A    
N3    N5    A    
C37   C38   A    
C7    C56   A    
C77   C79   A    
C47   H24   S    
C60   H36   S    
C25   H9    S    
C63   H38   S    
C9    C82   A    
C35   C46   S    
C27   H11   S    
C17   H55   S    
C69   C80   S    
C29   H13   S    
N8    Ni1   S    
C21   H8    S    
C61   C72   S    
C59   H35   S    
C69   C70   A    
C66   C72   A    
N13   Ni1   S    
Br1   C49   S    
N16   Ni2   S    
C67   N10   A    
C3    H53   S    
C82   N12   A    
C39   C41   A    
C59   C65   A    
C15   H6    S    
C50   H26   S    
N12   Ni2   S    
C20   C21   A    
N15   Ni3   S    
C23   C40   A    
C68   C69   A    
C76   H50   S    
C67   H23   S    
C3    C6    A    
N9    N15   A    
C6    C58   S    
C51   C53   A    
C49   C50   A    
C48   H25   S    
C44   C46   A    
C3    N14   A    
C20   C31   S    
N14   Ni4   S    
C33   H18   S    
C79   H47   S    
C73   C74   A    
C50   C51   A    
C16   C23   A    
C6    C45   A    
C70   H41   S    
C64   N6    A    
C71   C72   A    
C38   H15   S    
C5    C7    A    
C51   H28   S    
C57   C58   D    
C59   C60   A    
C66   C68   A    
C63   C65   A    
C40   H39   S    
C42   C43   A    
C37   H20   S    
C2    C8    A    
N2    Ni3   S    
C45   H51   S    
N7    Ni3   S    
C28   H27   S    
C42   C53   S    
N5    Ni1   S    
C30   C31   A    
C2    H52   S    
N1    Ni1   S    
C29   C30   A    
C55   H30   S    
C28   N3    A    
C61   C62   A    
C32   C33   A    
C8    C41   S    
C32   C38   A    
N9    Ni2   S    
C16   H16   S    
N8    N14   A    
C15   C17   A    
C47   C48   A    
C11   C13   A    
C22   C34   S    
C56   N9    A    
C1    C81   A    
C41   C42   A    
C73   C80   A    
N6    Ni4   S    
C76   N7    A    
C64   H49   S    
C43   C44   A    
N11   Ni4   S    
C28   C34   A    
N1    N7    A    
C13   C14   A    
C4    C12   A    
C52   H48   S    
N2    N4    A    
C79   C80   A    
C66   H40   S    
C9    C78   A    
C11   H3    S    
C23   C55   S    
C45   N8    A    
C2    N13   A    
C78   N11   A    
C32   H17   S    
N4    Ni2   S    
C74   H43   S    
C5    H54   S    
C27   C29   A    
C39   H21   S    
C8    C67   A    
C40   N4    A    
C18   H7    S    
N11   N12   A    
C12   C44   S    
C62   H37   S    
C36   H19   S    
C76   C81   A    
C10   H2    S    
C14   C15   A    
C78   H34   S    
C16   N2    A    
C33   C35   A    
N10   Ni3   S    
C30   H14   S    
C13   C24   S    
N6    N16   A    
C60   C61   A    
C18   C24   A    
C73   H42   S    
C5    N15   A    
C26   H10   S    
C62   C63   A    
C4    H4    S    
C9    C68   S    
N3    Ni4   S    
C70   C71   A    
C22   C24   A    
C19   C20   A    
C58   H32   S    
C48   C49   A    
C56   H12   S    
C54   C57   S    
C26   C27   A    
C57   H31   S    
C75   H44   S    
C21   C22   A    
C52   N5    A    
C71   C81   S    
C4    N16   A    
C10   C11   A    
C14   H5    S    
