data_str_m3_o13_o15_f0_pcu.sym.153
_audit_creation_date              2012-12-10T17:28:32-0500
_audit_creation_method            fapswitch 2.2
_symmetry_space_group_name_H-M    P1
_symmetry_Int_Tables_number       1
_space_group_crystal_system       triclinic
_cell_length_a                    10.339693
_cell_length_b                    11.960341
_cell_length_c                    12.887282
_cell_angle_alpha                 93.203049
_cell_angle_beta                  90.030487
_cell_angle_gamma                 85.184752
_cell_volume                      1585.60215082

loop_
_atom_site_label
_atom_site_type_symbol
_atom_type_description
_atom_site_fract_x
_atom_site_fract_y
_atom_site_fract_z
_atom_type_partial_charge
C1    C     C_R   0.498172 0.521952 0.700564 0.918337
C2    C     C_R   0.513817 0.560714 0.132393 -0.276420
C3    C     C_R   0.495923 0.446880 0.974256 0.180384
C4    C     C_R   0.508555 0.552708 0.025746 0.184801
C5    C     C_R   0.371169 0.957712 0.409971 -0.342436
C6    C     C_R   0.629117 0.042260 0.589768 -0.353737
C7    C     C_R   0.385011 0.840759 0.417668 0.063049
C8    C     C_R   0.615260 0.159216 0.582084 0.042922
C9    C     C_R   0.558060 0.856345 0.537137 0.017038
C10   C     C_R   0.441829 0.143662 0.462962 -0.000995
C11   C     C_R   0.547533 0.974395 0.532158 0.081566
C12   C     C_R   0.502529 0.478016 0.299445 0.911377
C13   C     C_R   0.452552 0.025597 0.467765 0.073626
C14   C     C_R   0.740565 0.496570 0.481521 0.923954
C15   C     C_R   0.259210 0.503401 0.518081 0.925558
C16   C     C_R   0.926940 0.283693 0.443541 0.443736
C17   C     C_R   0.073176 0.716968 0.551895 0.472033
C18   C     C_R   0.986987 0.190708 0.490673 -0.318780
C19   C     C_R   0.012869 0.809117 0.503716 -0.312909
C20   C     C_R   0.076927 0.203367 0.570701 0.131873
C21   C     C_R   0.922057 0.795471 0.424665 0.161153
C22   C     C_R   0.117234 0.311477 0.597669 0.227798
C23   C     C_R   0.504764 0.464894 0.188205 -0.035936
C24   C     C_R   0.881853 0.687177 0.399071 0.224070
C25   C     C_R   0.063987 0.404950 0.542802 -0.038354
C26   C     C_R   0.935456 0.594622 0.454854 -0.045720
C27   C     C_R   0.955665 0.392909 0.479288 -0.106359
C28   C     C_R   0.043965 0.607148 0.518158 -0.113063
C29   C     C_R   0.120092 0.508658 0.542852 -0.068638
C30   C     C_R   0.879321 0.491277 0.455583 -0.092485
C31   C     C_3   0.867000 0.899784 0.374217 -0.886061
C32   C     C_3   0.130414 0.098472 0.621261 -0.799857
C33   C     C_3   0.207838 0.327458 0.688725 -0.822510
C34   C     C_R   0.498039 0.534889 0.811822 -0.056585
C35   C     C_3   0.790770 0.669900 0.308532 -0.815987
C36   C     C_R   0.514710 0.649062 0.969955 -0.204115
C37   C     C_R   0.489888 0.350500 0.030022 -0.203280
C38   C     C_R   0.509445 0.640159 0.862570 -0.178716
C39   C     C_R   0.494413 0.359486 0.137418 -0.113655
C40   C     C_R   0.489857 0.438970 0.867653 -0.267174
H1    H     H_    0.296977 0.994677 0.359964 0.161433
H2    H     H_    0.480732 0.269002 0.990785 0.148641
H3    H     H_    0.369578 0.184507 0.413722 0.134499
H4    H     H_    0.630232 0.815506 0.586449 0.129767
H5    H     H_    0.679034 0.211386 0.625748 0.138787
H6    H     H_    0.321387 0.788574 0.373855 0.130747
H7    H     H_    0.821302 0.959746 0.434846 0.231530
H8    H     H_    0.946555 0.939518 0.336339 0.263876
H9    H     H_    0.792194 0.884435 0.314904 0.250702
H10   H     H_    0.177466 0.038410 0.561326 0.245755
H11   H     H_    0.203725 0.113306 0.681917 0.252376
H12   H     H_    0.703435 0.005282 0.639656 0.166875
H13   H     H_    0.049689 0.058896 0.657682 0.258706
H14   H     H_    0.722286 0.120933 0.347157 0.350001
H15   H     H_    0.224591 0.657027 0.802470 0.385189
H16   H     H_    0.165520 0.295904 0.759505 0.235045
H17   H     H_    0.303705 0.281029 0.671916 0.243752
H18   H     H_    0.223305 0.416664 0.707371 0.260337
H19   H     H_    0.832198 0.701298 0.237322 0.235423
H20   H     H_    0.776077 0.580357 0.290484 0.254882
H21   H     H_    0.694694 0.715850 0.325537 0.241999
H22   H     H_    0.964402 0.107237 0.464152 0.177235
H23   H     H_    0.035698 0.892901 0.528866 0.187146
H24   H     H_    0.523509 0.642197 0.171688 0.161537
H25   H     H_    0.479668 0.357537 0.828414 0.163324
H26   H     H_    0.487861 0.284903 0.180473 0.180942
H27   H     H_    0.515619 0.714767 0.819485 0.185455
H28   H     H_    0.524061 0.730536 0.009176 0.150099
N1    N     N_R   0.523130 0.207800 0.519340 -0.083039
N2    N     N_R   0.476870 0.792200 0.480660 -0.088230
O1    O     O_R   0.506170 0.421700 0.658830 -0.652477
O2    O     O_2   0.924564 0.174671 0.257206 -0.315846
O3    O     O_3   0.701698 0.203347 0.350439 -0.538944
O4    O     O_2   0.283939 0.794492 0.642578 -0.302916
O5    O     O_2   0.077784 0.830799 0.735075 -0.316134
O6    O     O_3   0.191927 0.629616 0.734244 -0.604456
O7    O     O_R   0.493830 0.578300 0.341170 -0.659172
O8    O     O_R   0.491330 0.609310 0.646410 -0.575077
O9    O     O_R   0.508670 0.390690 0.353590 -0.562796
O10   O     O_R   0.690650 0.406190 0.506220 -0.588503
O11   O     O_R   0.309350 0.593810 0.493780 -0.592488
O12   O     O_R   0.675800 0.593810 0.493800 -0.629936
O13   O     O_R   0.324200 0.406190 0.506200 -0.631041
O14   O     O_2   0.814285 0.363228 0.268935 -0.309751
S1    S     S_3+6 0.842167 0.257858 0.325996 0.017706
S2    S     S_3+6 0.159562 0.745596 0.667913 0.005745
Zn1   Zn    Zn3+2 0.509910 0.374730 0.508290 0.986156
Zn2   Zn    Zn3+2 0.490090 0.625270 0.491710 0.985634

loop_
_geom_bond_atom_site_label_1
_geom_bond_atom_site_label_2
_ccdc_geom_bond_type
O13   Zn1   S    
C4    C36   A    
C33   H18   S    
N2    Zn2   S    
C7    N2    A    
O9    Zn1   S    
O2    S1    D    
C15   O11   A    
C21   C31   S    
C12   C23   S    
C8    N1    A    
C1    O1    A    
C34   C40   A    
C28   C29   A    
C19   C21   A    
C14   C30   S    
O10   Zn1   S    
C23   C39   A    
C12   O9    A    
C35   H19   S    
C37   H2    S    
C8    H5    S    
O7    Zn2   S    
C19   H23   S    
C22   C25   A    
C14   O10   A    
C5    C13   A    
N1    Zn1   S    
C33   H16   S    
C31   H7    S    
C27   C30   A    
C1    O8    A    
C31   H9    S    
C2    H24   S    
C1    C34   S    
C15   C29   S    
C25   C29   A    
C24   C35   S    
C17   S2    S    
C7    H6    S    
C9    N2    A    
C6    C11   A    
C5    C7    A    
C18   H22   S    
C15   O13   A    
O4    S2    D    
C35   H20   S    
C2    C4    A    
C32   H11   S    
H14   O3    S    
O5    S2    D    
O3    S1    S    
C12   O7    A    
C35   H21   S    
O14   S1    D    
C9    C11   A    
C32   H10   S    
O1    Zn1   S    
H15   O6    S    
C20   C22   A    
C3    C40   A    
C26   C30   A    
C31   H8    S    
C16   S1    S    
C39   H26   S    
C14   O12   A    
C3    C4    A    
O6    S2    S    
C32   H13   S    
C20   C32   S    
O8    Zn2   S    
C22   C33   S    
C5    H1    S    
C9    H4    S    
C33   H17   S    
C10   H3    S    
C34   C38   A    
C17   C28   A    
C24   C26   A    
C10   C13   A    
C6    C8    A    
C36   H28   S    
C25   C27   A    
C26   C28   A    
C40   H25   S    
C36   C38   A    
C37   C39   A    
C11   C13   A    
C16   C27   A    
O12   Zn2   S    
C17   C19   A    
C18   C20   A    
O11   Zn2   S    
C10   N1    A    
C38   H27   S    
C3    C37   A    
C16   C18   A    
C21   C24   A    
C2    C23   A    
C6    H12   S    
