data_str_m2_o5_o28_f0_pcu.sym.2
_audit_creation_date              2013-03-05T16:35:51-0500
_audit_creation_method            fapswitch 2.2
_symmetry_space_group_name_H-M    P1
_symmetry_Int_Tables_number       1
_space_group_crystal_system       triclinic
_cell_length_a                    23.623141
_cell_length_b                    9.089076
_cell_length_c                    7.770765
_cell_angle_alpha                 89.915955
_cell_angle_beta                  89.998292
_cell_angle_gamma                 89.997041
_cell_volume                      1668.47876786

loop_
_atom_site_label
_atom_site_type_symbol
_atom_site_description
_atom_site_fract_x
_atom_site_fract_y
_atom_site_fract_z
_atom_type_partial_charge
O1    O     O_R   0.500000 0.288390 0.642760 -0.576443
O2    O     O_R   0.500000 0.711610 0.357240 -0.573014
O3    O     O_R   0.500000 0.711610 0.642760 -0.576640
O4    O     O_R   0.500000 0.288390 0.357240 -0.573340
H1    H     H_    0.948372 0.129561 0.537284 0.185496
H2    H     H_    0.051315 0.870857 0.475507 0.185364
H3    H     H_    0.948438 0.870533 0.465019 0.185351
H4    H     H_    0.051248 0.129083 0.526714 0.185301
C1    C     C_R   0.499955 0.219974 0.500079 0.901011
C2    C     C_R   0.499921 0.780026 0.499920 0.901056
O5    O     O_R   0.417880 0.500000 0.642820 -0.550553
O6    O     O_R   0.582120 0.500000 0.357180 -0.533254
O7    O     O_R   0.582120 0.500000 0.642820 -0.550356
O8    O     O_R   0.417880 0.500000 0.357180 -0.532979
C3    C     C_R   0.208660 0.499857 0.500548 0.177049
C4    C     C_R   0.791185 0.500110 0.500660 0.178269
C5    C     C_R   0.390684 0.499928 0.499992 0.922453
C6    C     C_R   0.609309 0.500078 0.499989 0.924356
Cu1   Cu    Cu3+1 0.500000 0.500000 0.669080 1.134119
Cu2   Cu    Cu3+1 0.500000 0.500000 0.330920 1.146121
H5    H     H_    0.215187 0.647200 0.285736 0.210919
H6    H     H_    0.785021 0.344616 0.294782 0.209045
H7    H     H_    0.215432 0.352277 0.715126 0.219668
H8    H     H_    0.784756 0.655863 0.706254 0.218029
C7    C     C_R   0.297626 0.590584 0.383066 0.361118
C8    C     C_R   0.702345 0.406588 0.386389 0.360592
C9    C     C_R   0.297696 0.408942 0.616951 0.351096
C10   C     C_R   0.702260 0.593896 0.613668 0.351484
C11   C     C_R   0.328154 0.499812 0.499984 -0.295544
C12   C     C_R   0.671826 0.500197 0.499987 -0.294735
C13   C     C_R   0.880802 0.630672 0.482760 0.564167
C14   C     C_R   0.118771 0.368455 0.500804 0.562657
C15   C     C_R   0.880777 0.369504 0.519308 0.562936
C16   C     C_R   0.118797 0.631372 0.501084 0.561634
N1    N     N_R   0.852182 0.500101 0.500955 -0.448996
N2    N     N_R   0.147530 0.499892 0.500844 -0.447427
C17   C     C_R   0.940127 0.366534 0.515281 -0.022501
C18   C     C_R   0.059461 0.633801 0.494674 -0.021979
C19   C     C_R   0.940151 0.633568 0.486968 -0.023203
C20   C     C_R   0.059436 0.366124 0.507478 -0.022689
C21   C     C_R   0.969920 0.500030 0.501136 -0.015301
C22   C     C_R   0.029662 0.499986 0.501111 -0.015238
C23   C     C_R   0.970280 0.233637 0.525738 -0.150606
C24   C     C_R   0.029342 0.766646 0.482631 -0.149961
C25   C     C_R   0.970327 0.766424 0.476558 -0.150490
C26   C     C_R   0.029294 0.233328 0.519617 -0.149869
C27   C     C_1   0.499920 0.065361 0.500108 -0.049213
C28   C     C_1   0.499906 0.934639 0.499888 -0.048984
C29   C     C_R   0.238526 0.583836 0.380032 -0.134391
C30   C     C_R   0.761476 0.411753 0.384748 -0.133468
C31   C     C_R   0.238640 0.415747 0.620655 -0.126773
C32   C     C_R   0.761349 0.588616 0.616105 -0.125684
N3    N     N_1   0.500000 0.500000 0.076820 0.003658
N4    N     N_1   0.500000 0.500000 0.923180 -0.001628
O9    O     O_2   0.851974 0.757277 0.458898 -0.484583
O10   O     O_2   0.147374 0.240137 0.492094 -0.484495
O11   O     O_2   0.851919 0.242939 0.543077 -0.487656
O12   O     O_2   0.147433 0.759640 0.509673 -0.487749
S1    S     S_3+6 0.330865 0.721378 0.246244 0.050983
O13   O     O_2   0.287970 0.827567 0.175253 -0.249400
O14   O     O_2   0.374491 0.805751 0.346398 -0.307925
O15   O     O_3   0.362364 0.633960 0.081576 -0.473192
H9    H     H_    0.382992 0.711770 0.017918 0.371503
S2    S     S_3+6 0.668939 0.275406 0.251002 0.051061
O16   O     O_2   0.711602 0.167885 0.181843 -0.248264
O17   O     O_2   0.624938 0.192623 0.351716 -0.308284
O18   O     O_3   0.637945 0.362531 0.084870 -0.474666
H10   H     H_    0.616896 0.284931 0.022416 0.371559
S3    S     S_3+6 0.330787 0.277107 0.752437 0.057619
O19   O     O_2   0.374591 0.193602 0.652008 -0.302693
O20   O     O_2   0.358663 0.353735 0.901163 -0.230188
O21   O     O_3   0.282624 0.157492 0.829265 -0.482739
H11   H     H_    0.304494 0.088530 0.902371 0.405372
S4    S     S_3+6 0.668976 0.726276 0.747456 0.057718
O22   O     O_2   0.624906 0.808266 0.646159 -0.302904
O23   O     O_2   0.641398 0.650154 0.897372 -0.231090
O24   O     O_3   0.716878 0.847270 0.822401 -0.482976
H12   H     H_    0.694876 0.916377 0.894718 0.405298

loop_
_geom_bond_atom_site_label_1
_geom_bond_atom_site_label_2
_geom_bond_distance
_ccdc_geom_bond_type
H8    C32   1.082300 S    
C9    C11   1.422603 A    
C5    C11   1.477146 S    
C21   C22   1.411289 A    
Cu1   Cu2   2.627763 S    
C10   S4    1.774908 S    
H5    C29   1.082274 S    
C19   C21   1.406880 A    
O24   H12   0.990686 S    
C20   C26   1.404458 A    
O5    Cu1   1.950644 S    
S4    O23   1.502628 D    
O7    C6    1.282335 A    
H3    C25   1.081908 S    
C4    C30   1.396784 A    
C18   C22   1.406141 A    
C8    C30   1.397713 A    
C4    N1    1.440936 S    
S3    O20   1.502282 D    
C8    S2    1.776244 S    
S4    O24   1.682588 S    
O3    Cu1   1.933885 S    
C6    C12   1.476855 S    
C3    C31   1.398202 A    
C9    S3    1.775272 S    
C19   C25   1.404516 A    
C14   C20   1.402790 A    
H1    C23   1.081911 S    
S1    O13   1.503676 D    
H2    C24   1.081450 S    
O8    C5    1.282298 A    
C9    C31   1.396767 A    
H4    C26   1.081447 S    
C7    C11   1.422672 A    
O1    Cu1   1.934483 S    
S1    O14   1.502593 D    
S4    O22   1.502344 D    
O7    Cu1   1.950629 S    
O2    Cu2   1.934482 S    
O18   H10   0.990612 S    
S2    O18   1.681306 S    
O8    Cu2   1.950632 S    
O1    C1    1.272012 A    
O21   H11   0.990687 S    
N3    N4    1.193901 T    
C15   C17   1.402650 A    
S2    O17   1.502455 D    
C17   C23   1.404510 A    
S3    O21   1.682589 S    
C18   C24   1.404448 A    
O15   H9    0.990618 S    
H7    C31   1.082146 S    
C27   C28   1.188147 T    
O6    Cu2   1.950641 S    
Cu1   N4    1.974551 S    
C8    C12   1.423024 A    
C2    C28   1.405292 S    
C13   N1    1.372997 A    
O2    C2    1.272003 A    
C14   N2    1.374332 A    
C3    N2    1.444101 S    
C24   C25   1.394912 A    
O5    C5    1.282435 A    
S1    O15   1.680841 S    
C15   O11   1.349680 S    
C16   C18   1.402779 A    
C4    C32   1.396667 A    
Cu2   N3    1.974551 S    
C1    C27   1.405291 S    
H6    C30   1.082444 S    
S2    O16   1.503662 D    
C10   C12   1.422972 A    
O3    C2    1.271497 A    
C10   C32   1.396823 A    
C20   C22   1.406137 A    
C15   N1    1.372975 A    
C13   C19   1.402644 A    
C16   N2    1.374312 A    
C3    C29   1.398331 A    
C17   C21   1.406886 A    
S3    O19   1.502483 D    
C23   C26   1.394918 A    
C7    C29   1.397681 A    
O4    Cu2   1.933886 S    
O6    C6    1.282220 A    
C16   O12   1.349650 S    
C7    S1    1.776665 S    
C13   O9    1.349678 S    
O4    C1    1.271487 A    
C14   O10   1.349648 S    
