data_str_m2_o10_o29_f0_pcu.sym.155
_audit_creation_date              2012-12-10T16:51:14-0500
_audit_creation_method            fapswitch 2.2
_symmetry_space_group_name_H-M    P1
_symmetry_Int_Tables_number       1
_space_group_crystal_system       triclinic
_cell_length_a                    27.770864
_cell_length_b                    8.715647
_cell_length_c                    7.519054
_cell_angle_alpha                 103.168373
_cell_angle_beta                  95.227302
_cell_angle_gamma                 93.619872
_cell_volume                      1758.07770583

loop_
_atom_site_label
_atom_site_type_symbol
_atom_type_description
_atom_site_fract_x
_atom_site_fract_y
_atom_site_fract_z
_atom_type_partial_charge
C1    C     C_R   0.497546 0.200273 0.454118 0.865065
C2    C     C_R   0.502504 0.799711 0.545923 0.883694
C3    C     C_R   0.101523 0.494058 0.486687 -0.042765
C4    C     C_R   0.897715 0.512580 0.483503 -0.038392
C5    C     C_R   0.128526 0.436971 0.622090 -0.023437
C6    C     C_R   0.870628 0.568590 0.347383 -0.027171
C7    C     C_R   0.104775 0.383333 0.754812 -0.145503
C8    C     C_R   0.894288 0.620392 0.213267 -0.140882
C9    C     C_R   0.125858 0.547414 0.352814 -0.030094
C10   C     C_R   0.873525 0.461612 0.619197 -0.028490
C11   C     C_R   0.354679 0.494948 0.500827 -0.132425
C12   C     C_R   0.645359 0.508791 0.498585 -0.057521
C13   C     C_R   0.975426 0.449327 0.621763 0.038330
C14   C     C_R   0.023765 0.556129 0.347452 0.038838
C15   C     C_R   0.972635 0.560605 0.346538 0.038324
C16   C     C_R   0.026508 0.444079 0.622117 0.038908
C17   C     C_R   0.948821 0.507395 0.483863 0.074716
C18   C     C_R   0.050365 0.498094 0.485397 0.072633
C19   C     C_R   0.949710 0.398527 0.755281 -0.214725
C20   C     C_R   0.049555 0.608080 0.214809 -0.220002
C21   C     C_R   0.899884 0.404539 0.753490 -0.145424
C22   C     C_R   0.099485 0.603988 0.218089 -0.148352
C23   C     C_R   0.407756 0.500303 0.500796 0.836443
C24   C     C_R   0.592312 0.502608 0.499669 0.891985
C25   C     C_R   0.054891 0.386291 0.754938 -0.219527
C26   C     C_R   0.944176 0.617226 0.212904 -0.217905
C27   C     C_2   0.488810 0.033707 0.436220 -0.163133
C28   C     C_2   0.511305 0.966253 0.563988 -0.166748
C29   C     C_R   0.178980 0.434710 0.621396 0.550738
C30   C     C_R   0.820215 0.572088 0.349184 0.615667
C31   C     C_R   0.176349 0.543067 0.357020 0.532701
C32   C     C_R   0.823192 0.468914 0.617388 0.582098
C33   C     C_R   0.282407 0.613213 0.604511 -0.142868
C34   C     C_R   0.716997 0.396108 0.380523 -0.223731
C35   C     C_R   0.332835 0.620515 0.611234 -0.040328
C36   C     C_R   0.666960 0.383315 0.387011 -0.062905
C37   C     C_R   0.325252 0.363330 0.386584 -0.108307
C38   C     C_R   0.674792 0.646046 0.600157 -0.127142
C39   C     C_R   0.274077 0.356971 0.386537 0.009550
C40   C     C_R   0.725674 0.655178 0.593748 -0.029974
C41   C     C_R   0.253285 0.485422 0.492453 0.251954
C42   C     C_R   0.746264 0.527661 0.483725 0.348980
Cu1   Cu    Cu3+1 0.505380 0.517380 0.684380 1.052557
Cu2   Cu    Cu3+1 0.494620 0.482620 0.315620 1.024635
H1    H     H_    0.734118 0.300015 0.298467 0.144291
H2    H     H_    0.265061 0.709284 0.685537 0.158628
N1    N     N_R   0.201654 0.486973 0.489787 -0.480029
N2    N     N_R   0.797791 0.524197 0.484133 -0.442778
N3    N     N_2   0.486510 0.456430 0.038510 -0.218508
N4    N     N_2   0.513490 0.543570 0.961490 -0.217813
O1    O     O_R   0.503500 0.286120 0.619780 -0.593864
O2    O     O_R   0.496500 0.713880 0.380220 -0.597495
O3    O     O_R   0.494410 0.256780 0.308360 -0.549467
O4    O     O_R   0.505590 0.743220 0.691640 -0.532179
O5    O     O_R   0.434810 0.514700 0.655690 -0.603555
O6    O     O_R   0.565190 0.485300 0.344310 -0.619724
O7    O     O_R   0.425720 0.485350 0.344280 -0.582502
O8    O     O_R   0.574280 0.514650 0.655720 -0.525715
O9    O     O_2   0.205225 0.380679 0.750771 -0.502380
O10   O     O_2   0.793814 0.623853 0.218322 -0.508605
O11   O     O_2   0.799716 0.421162 0.747486 -0.515919
O12   O     O_2   0.200047 0.594232 0.229606 -0.493093
C43   C     C_2   0.348597 0.234874 0.267472 0.514880
H3    H     H_    0.382513 0.196718 0.318144 0.006953
O13   O     O_2   0.331400 0.176043 0.109442 -0.506019
C44   C     C_2   0.652710 0.786381 0.701823 0.268351
H4    H     H_    0.661370 0.901421 0.674469 0.101856
O14   O     O_2   0.627233 0.776670 0.823301 -0.528143
C45   C     C_2   0.459007 0.320540 0.926916 0.711254
H5    H     H_    0.429040 0.330226 0.829666 0.025127
O15   O     O_2   0.467354 0.189348 0.946289 -0.567734
C46   C     C_2   0.540829 0.679643 0.073254 0.772833
H6    H     H_    0.571036 0.670089 0.169631 0.012902
O16   O     O_2   0.532023 0.810814 0.055110 -0.558057
C47   C     C_2   0.241421 0.216012 0.285500 0.497329
H7    H     H_    0.204635 0.229917 0.233251 0.056278
O17   O     O_2   0.254229 0.082403 0.267761 -0.489924
C48   C     C_2   0.756916 0.795862 0.706717 0.415405
H8    H     H_    0.743159 0.874649 0.820654 0.081932
O18   O     O_2   0.798128 0.827222 0.673669 -0.531655
H9    H     H_    0.124717 0.338661 0.860256 0.191090
H10   H     H_    0.874290 0.664251 0.107270 0.201612
C49   C     C_2   0.639779 0.234275 0.276755 0.427464
H11   H     H_    0.656869 0.157828 0.169965 0.082193
O19   O     O_2   0.599245 0.191429 0.306247 -0.500459
C50   C     C_2   0.360116 0.765403 0.730857 0.443739
H12   H     H_    0.342353 0.839928 0.837118 0.110382
O20   O     O_2   0.401461 0.807431 0.709361 -0.498975
H13   H     H_    0.882069 0.364178 0.858978 0.194214
H14   H     H_    0.117371 0.645508 0.113491 0.196414
H15   H     H_    0.966761 0.353783 0.865031 0.147960
H16   H     H_    0.032509 0.652958 0.105151 0.148359
H17   H     H_    0.039983 0.341931 0.862318 0.149291
H18   H     H_    0.959029 0.660311 0.104572 0.151810
C51   C     C_2   0.447770 0.954455 0.296276 0.389270
H19   H     H_    0.443130 0.986376 0.164865 0.151279
O21   O     O_2   0.417226 0.861352 0.330431 -0.499804
C52   C     C_2   0.552236 0.045321 0.704593 0.413110
H20   H     H_    0.556857 0.012532 0.835488 0.165971
O22   O     O_2   0.582653 0.139542 0.671833 -0.517846

loop_
_geom_bond_atom_site_label_1
_geom_bond_atom_site_label_2
_ccdc_geom_bond_type
Cu2   N3    S    
C26   H18   S    
C44   O14   D    
C43   O13   D    
C25   H17   S    
C8    C26   A    
C14   C18   A    
C27   C51   S    
C51   H19   S    
C34   C42   A    
C47   H7    S    
C39   C41   A    
C21   H13   S    
C20   H16   S    
C29   N1    A    
C8    H10   S    
C30   N2    A    
C19   C21   A    
C32   O11   S    
C35   C50   S    
C50   O20   D    
C9    C22   A    
C36   C49   S    
C3    C18   A    
C45   O15   D    
C11   C37   A    
C1    O3    A    
N4    C46   S    
Cu1   O8    S    
Cu2   O3    S    
C29   O9    S    
C30   O10   S    
C31   N1    A    
C39   C47   S    
C12   C36   A    
Cu2   O2    S    
C40   C42   A    
C44   H4    S    
N3    C45   S    
C33   H2    S    
C32   N2    A    
C31   O12   S    
C37   C43   S    
C5    C29   A    
C10   C21   A    
C22   H14   S    
C13   C19   A    
C24   O8    A    
C14   C20   A    
C46   O16   D    
C2    O4    A    
C5    C7    A    
C48   H8    S    
C15   C26   A    
C6    C8    A    
C6    C30   A    
Cu1   Cu2   S    
C3    C9    A    
C1    O1    A    
Cu2   O6    S    
Cu1   O4    S    
C49   H11   S    
Cu2   O7    S    
C41   N1    S    
C48   O18   D    
C34   H1    S    
C42   N2    S    
C47   O17   D    
C2    O2    A    
C4    C17   A    
C4    C6    A    
C7    H9    S    
C20   C22   A    
N3    N4    D    
C52   O22   D    
C40   C48   S    
C4    C10   A    
C28   C52   S    
C16   C25   A    
C23   O7    A    
C38   C44   S    
C49   O19   D    
C50   H12   S    
C46   H6    S    
C3    C5    A    
C51   O21   D    
Cu1   N4    S    
C23   O5    A    
Cu1   O5    S    
C24   O6    A    
C12   C24   S    
C7    C25   A    
C13   C17   A    
C33   C41   A    
C11   C35   A    
C37   C39   A    
C38   C40   A    
Cu1   O1    S    
C11   C23   S    
C33   C35   A    
C34   C36   A    
C12   C38   A    
C45   H5    S    
C19   H15   S    
C9    C31   A    
C43   H3    S    
C10   C32   A    
C16   C18   A    
C52   H20   S    
C13   C16   A    
C27   C28   D    
C1    C27   S    
C14   C15   A    
C2    C28   S    
C15   C17   A    
