data_str_m2_o1_o18_f0_pcu.sym.21
_audit_creation_date              2012-10-26T20:21:13-0400
_audit_creation_method            fapswitch 2.2
_symmetry_space_group_name_H-M    P1
_symmetry_Int_Tables_number       1
_space_group_crystal_system       triclinic
_cell_length_a                    9.57532
_cell_length_b                    10.821406
_cell_length_c                    15.42305
_cell_angle_alpha                 88.406407
_cell_angle_beta                  73.906052
_cell_angle_gamma                 90.125354
_cell_volume                      1534.80427553

loop_
_atom_site_label
_atom_site_type_symbol
_atom_type_description
_atom_site_fract_x
_atom_site_fract_y
_atom_site_fract_z
_atom_type_partial_charge
C1    C     C_R   0.000211 0.262701 0.498937 0.646818
C2    C     C_R   0.070707 0.063232 0.553974 0.209014
C3    C     C_R   0.996079 0.872146 0.501608 -0.055171
C4    C     C_R   0.998353 0.129086 0.499856 -0.027436
C5    C     C_R   0.541151 0.438092 0.567046 0.109326
C6    C     C_R   0.458101 0.563480 0.433445 0.111301
C7    C     C_R   0.393801 0.438995 0.566293 -0.009786
C8    C     C_R   0.606401 0.559996 0.433227 -0.002508
C9    C     C_R   0.918148 0.502188 0.672157 0.535653
C10   C     C_R   0.081780 0.498482 0.327873 0.599550
C11   C     C_R   0.873687 0.499394 0.771206 -0.062596
C12   C     C_R   0.999467 0.737809 0.500130 0.591878
C13   C     C_R   0.125839 0.502900 0.228950 -0.012077
C14   C     C_R   0.914278 0.425125 0.912898 0.293985
C15   C     C_R   0.087556 0.586126 0.089560 0.294797
C16   C     C_R   0.961672 0.440502 0.818413 -0.143460
C17   C     C_R   0.038960 0.565960 0.182981 -0.135324
C18   C     C_R   0.741678 0.551837 0.819015 -0.015502
C19   C     C_R   0.259308 0.453053 0.180059 -0.007145
C20   C     C_R   0.678711 0.511810 0.909706 0.018475
C21   C     C_R   0.322919 0.499038 0.090895 -0.045167
C22   C     C_R   0.771803 0.460468 0.958434 0.069021
C23   C     C_R   0.576555 0.468924 0.096424 -0.141760
C24   C     C_R   0.230059 0.552548 0.043012 0.068166
C25   C     C_R   0.526850 0.519458 0.953255 0.065159
C26   C     C_R   0.474737 0.493180 0.047481 0.010782
C27   C     C_2   0.312770 0.334976 0.212057 0.233019
C28   C     C_2   0.692324 0.666815 0.780809 0.211309
C29   C     C_3   0.074229 0.270298 0.926959 -0.133511
C30   C     C_3   0.995800 0.767620 0.053678 -0.109427
C31   C     C_3   0.733821 0.162316 0.405044 -0.047930
C32   C     C_3   0.303216 0.878088 0.558491 -0.066998
C33   C     C_3   0.684522 0.870060 0.455817 -0.106544
C34   C     C_R   0.424620 0.545617 0.904761 -0.102246
C35   C     C_3   0.044313 0.137814 0.693357 -0.098602
C36   C     C_2   0.570231 0.370205 0.644282 0.258763
C37   C     C_2   0.423054 0.641912 0.362148 0.216353
C38   C     C_R   0.720861 0.446157 0.052329 -0.073925
C39   C     C_R   0.280687 0.569471 0.949387 -0.080347
C40   C     C_R   0.921353 0.067558 0.448180 0.234324
C41   C     C_R   0.078202 0.934635 0.549883 0.214494
C42   C     C_R   0.911326 0.938398 0.454386 0.227366
Cu1   Cu    Cu3+1 0.140660 0.500020 0.500000 1.004457
Cu2   Cu    Cu3+1 0.859340 0.499980 0.500000 0.983660
H1    H     H_    0.792405 0.417417 0.092435 0.183300
H2    H     H_    0.722976 0.686954 0.708787 0.128932
H3    H     H_    0.172765 0.292023 0.870642 0.110918
H4    H     H_    0.999528 0.206530 0.905351 0.102339
H5    H     H_    0.110978 0.220875 0.980546 0.157311
H6    H     H_    0.107337 0.807646 0.027432 0.119849
H7    H     H_    0.947780 0.792679 0.125208 0.144094
H8    H     H_    0.927605 0.809764 0.013405 0.163535
H9    H     H_    0.722357 0.256793 0.378148 0.157181
H10   H     H_    0.683636 0.162836 0.479417 0.138971
H11   H     H_    0.672338 0.098760 0.373614 0.133756
H12   H     H_    0.208651 0.599653 0.909987 0.172750
H13   H     H_    0.330115 0.858597 0.485191 0.090427
H14   H     H_    0.359642 0.808153 0.590174 0.123800
H15   H     H_    0.346664 0.970392 0.568070 0.162599
H16   H     H_    0.662383 0.786065 0.500141 0.138223
H17   H     H_    0.616892 0.863919 0.408173 0.139526
H18   H     H_    0.646124 0.950235 0.499344 0.072881
H19   H     H_    0.950276 0.196356 0.690239 0.127383
H20   H     H_    0.005781 0.046358 0.726231 0.156253
H21   H     H_    0.102517 0.184708 0.736228 0.112894
H22   H     H_    0.506396 0.390425 0.712209 0.053822
H23   H     H_    0.932869 0.599317 0.219413 0.150185
H24   H     H_    0.318329 0.683897 0.371977 0.159548
H25   H     H_    0.068323 0.409372 0.781575 0.111727
H26   H     H_    0.545289 0.464254 0.169377 0.156134
H27   H     H_    0.454803 0.551023 0.831927 0.113307
H28   H     H_    0.312225 0.389878 0.618908 0.122616
H29   H     H_    0.688469 0.609271 0.381135 0.173057
H30   H     H_    0.402759 0.286494 0.168110 0.103452
N1    N     N_R   0.352080 0.500030 0.499980 -0.260062
N2    N     N_R   0.647920 0.499970 0.500020 -0.265307
O1    O     O_R   0.118740 0.319660 0.500000 -0.441486
O2    O     O_2   0.623822 0.745036 0.830393 -0.502600
O3    O     O_3   0.004900 0.379918 0.962840 -0.559722
O4    O     O_3   0.995656 0.638494 0.043947 -0.553761
O5    O     O_3   0.882633 0.131353 0.379051 -0.516267
O6    O     O_3   0.152516 0.868806 0.601100 -0.531085
O7    O     O_3   0.832740 0.877318 0.405272 -0.522200
O8    O     O_3   0.141777 0.124744 0.607046 -0.551900
O9    O     O_2   0.655536 0.284956 0.633603 -0.510594
O10   O     O_2   0.514390 0.663621 0.290398 -0.551077
O11   O     O_R   0.881260 0.680340 0.500000 -0.502174
O12   O     O_R   0.881170 0.319630 0.500010 -0.450874
O13   O     O_R   0.118830 0.680370 0.499990 -0.510317
O14   O     O_R   0.055570 0.500030 0.629830 -0.504748
O15   O     O_R   0.944430 0.499970 0.370170 -0.515095
O16   O     O_R   0.818000 0.500000 0.629840 -0.503091
O17   O     O_R   0.182000 0.500000 0.370160 -0.485611
O18   O     O_2   0.251860 0.285383 0.284829 -0.473010

loop_
_geom_bond_atom_site_label_1
_geom_bond_atom_site_label_2
_ccdc_geom_bond_type
C30   H7    S    
C5    C36   S    
C11   C18   A    
C1    O1    A    
C2    O8    S    
C32   H14   S    
C21   C26   A    
C6    N1    A    
C3    C42   A    
C29   H5    S    
C28   H2    S    
Cu1   O13   S    
C29   H3    S    
C19   C21   A    
C36   H22   S    
C20   C25   A    
C35   H21   S    
C2    C41   A    
C22   C38   A    
C37   H24   S    
C8    N2    A    
C24   C39   A    
C23   C26   A    
Cu2   N2    S    
C38   H1    S    
C3    C12   S    
C39   H12   S    
C33   H18   S    
C35   H20   S    
Cu2   O11   S    
C19   C27   S    
Cu2   O16   S    
C25   C34   A    
C30   O4    S    
C1    O12   A    
C40   C42   A    
C30   H6    S    
C23   H26   S    
C32   H13   S    
C9    O16   A    
Cu1   N1    S    
C17   H23   S    
Cu1   O14   S    
C13   C19   A    
C29   H4    S    
C34   C39   A    
C4    C40   A    
C12   O13   A    
C18   C28   S    
C7    H28   S    
C5    C7    A    
C7    N1    A    
C10   O17   A    
C25   C26   A    
C2    C4    A    
Cu1   Cu2   S    
C33   O7    S    
C11   C16   A    
C37   O10   D    
C15   O4    S    
C29   O3    S    
C6    C37   S    
C14   O3    S    
C31   H9    S    
C9    C11   S    
Cu2   O15   S    
C15   C24   A    
C20   C22   A    
C10   O15   A    
C33   H16   S    
C14   C16   A    
C27   H30   S    
C28   O2    D    
C15   C17   A    
C30   H8    S    
C3    C41   A    
C12   O11   A    
C40   O5    S    
C42   O7    S    
C10   C13   S    
C9    O14   A    
C6    C8    A    
C35   O8    S    
C36   O9    D    
Cu1   O1    S    
C23   C38   A    
C32   O6    S    
C16   H25   S    
C31   O5    S    
C13   C17   A    
C1    C4    S    
C14   C22   A    
C5    N2    A    
C41   O6    S    
C8    H29   S    
Cu1   O17   S    
C18   C20   A    
C31   H10   S    
C33   H17   S    
C21   C24   A    
C27   O18   D    
C35   H19   S    
C32   H15   S    
C31   H11   S    
Cu2   O12   S    
C34   H27   S    
