data_str_m2_o10_o29_f0_pcu.sym.117
_audit_creation_date              2012-12-10T16:51:11-0500
_audit_creation_method            fapswitch 2.2
_symmetry_space_group_name_H-M    P1
_symmetry_Int_Tables_number       1
_space_group_crystal_system       triclinic
_cell_length_a                    27.73904
_cell_length_b                    8.733454
_cell_length_c                    7.426721
_cell_angle_alpha                 102.699189
_cell_angle_beta                  94.233388
_cell_angle_gamma                 92.378727
_cell_volume                      1747.29423129

loop_
_atom_site_label
_atom_site_type_symbol
_atom_type_description
_atom_site_fract_x
_atom_site_fract_y
_atom_site_fract_z
_atom_type_partial_charge
C1    C     C_R   0.499375 0.200447 0.454514 0.828702
C2    C     C_R   0.500638 0.799237 0.545885 0.879915
C3    C     C_R   0.101967 0.493036 0.519226 -0.044036
C4    C     C_R   0.897584 0.500534 0.492749 -0.042387
C5    C     C_R   0.124187 0.371683 0.402553 -0.024660
C6    C     C_R   0.875435 0.633940 0.586282 -0.019597
C7    C     C_R   0.095501 0.250959 0.282750 -0.150585
C8    C     C_R   0.904191 0.764594 0.685579 -0.150474
C9    C     C_R   0.131132 0.613694 0.640934 -0.014776
C10   C     C_R   0.868357 0.369088 0.393033 -0.026845
C11   C     C_R   0.354776 0.500975 0.508433 -0.061879
C12   C     C_R   0.644830 0.497927 0.492092 -0.054309
C13   C     C_R   0.970602 0.365997 0.397030 0.040800
C14   C     C_R   0.028907 0.621821 0.625012 0.041987
C15   C     C_R   0.977762 0.628527 0.608960 0.042500
C16   C     C_R   0.021809 0.368089 0.395777 0.043025
C17   C     C_R   0.948849 0.498389 0.499462 0.067112
C18   C     C_R   0.050694 0.494167 0.513537 0.066381
C19   C     C_R   0.940151 0.235307 0.300002 -0.206226
C20   C     C_R   0.059244 0.738155 0.750236 -0.203986
C21   C     C_R   0.890077 0.237074 0.298506 -0.148175
C22   C     C_R   0.109336 0.733829 0.757831 -0.150487
C23   C     C_R   0.407533 0.500058 0.502509 0.799407
C24   C     C_R   0.592329 0.499627 0.497491 0.797459
C25   C     C_R   0.045346 0.248842 0.279214 -0.204248
C26   C     C_R   0.954343 0.762161 0.697188 -0.210173
C27   C     C_2   0.505680 0.035949 0.433284 0.011670
C28   C     C_2   0.495045 0.963444 0.570137 0.026716
C29   C     C_R   0.174863 0.375300 0.406525 0.577897
C30   C     C_R   0.824750 0.633115 0.578966 0.525317
C31   C     C_R   0.181690 0.611936 0.641703 0.515368
C32   C     C_R   0.817822 0.372030 0.392567 0.558386
C33   C     C_R   0.275516 0.539956 0.367426 0.287259
C34   C     C_R   0.722232 0.418638 0.604802 0.296116
C35   C     C_R   0.325820 0.537093 0.361944 -0.284334
C36   C     C_R   0.671819 0.418845 0.606351 -0.288371
C37   C     C_R   0.332981 0.465245 0.659933 -0.228628
C38   C     C_R   0.668289 0.576837 0.375145 -0.225606
C39   C     C_R   0.282854 0.463579 0.663674 -0.161912
C40   C     C_R   0.718556 0.579943 0.375847 -0.174063
C41   C     C_R   0.253976 0.500887 0.518555 0.346013
C42   C     C_R   0.745641 0.500726 0.489459 0.343527
Cu1   Cu    Cu3+1 0.505380 0.517380 0.684380 0.953722
Cu2   Cu    Cu3+1 0.494620 0.482620 0.315620 0.953337
H1    H     H_    0.354587 0.435557 0.773623 0.158336
H2    H     H_    0.647818 0.638760 0.286614 0.153115
H3    H     H_    0.461198 0.382251 0.949107 0.224014
H4    H     H_    0.538494 0.618882 0.051162 0.240647
H5    H     H_    0.266228 0.431276 0.778254 0.147202
H6    H     H_    0.736585 0.643599 0.287784 0.155592
H7    H     H_    0.111713 0.157298 0.189992 0.179045
H8    H     H_    0.888033 0.869583 0.756226 0.185776
H9    H     H_    0.653704 0.356323 0.695566 0.154669
H10   H     H_    0.342279 0.566080 0.244855 0.160455
H11   H     H_    0.868404 0.133764 0.222681 0.189829
H12   H     H_    0.130961 0.826243 0.855335 0.183187
H13   H     H_    0.953855 0.127498 0.227167 0.137859
H14   H     H_    0.045380 0.832938 0.847649 0.134174
H15   H     H_    0.026043 0.153754 0.179378 0.132307
H16   H     H_    0.973791 0.868904 0.773174 0.136470
N1    N     N_R   0.202377 0.495392 0.523200 -0.453329
N2    N     N_R   0.797207 0.502390 0.485753 -0.453275
N3    N     N_2   0.486510 0.456430 0.038510 -0.221530
N4    N     N_2   0.513490 0.543570 0.961490 -0.209412
O1    O     O_R   0.503500 0.286120 0.619780 -0.596448
O2    O     O_R   0.496500 0.713880 0.380220 -0.563266
O3    O     O_R   0.494410 0.256780 0.308360 -0.590490
O4    O     O_R   0.505590 0.743220 0.691640 -0.571404
O5    O     O_R   0.434810 0.514700 0.655690 -0.587545
O6    O     O_R   0.565190 0.485300 0.344310 -0.587436
O7    O     O_R   0.425720 0.485350 0.344280 -0.584783
O8    O     O_R   0.574280 0.514650 0.655720 -0.582891
O9    O     O_2   0.196544 0.259958 0.294724 -0.541116
O10   O     O_2   0.803109 0.760736 0.666838 -0.540022
O11   O     O_2   0.789454 0.245743 0.300198 -0.542163
O12   O     O_2   0.209987 0.727476 0.756862 -0.558481
N5    N     N_2   0.749242 0.332915 0.715398 -0.413710
H17   H     H_    0.731411 0.229423 0.725341 0.269916
C43   C     C_3   0.768024 0.425052 0.895035 -0.637219
H18   H     H_    0.790961 0.352023 0.967141 0.253038
H19   H     H_    0.737697 0.464800 0.980046 0.220129
H20   H     H_    0.790665 0.528780 0.880864 0.243994
N6    N     N_2   0.246563 0.578673 0.219360 -0.428456
H21   H     H_    0.260707 0.546150 0.093005 0.256522
C44   C     C_3   0.232886 0.739896 0.254785 -0.594651
H22   H     H_    0.208256 0.757229 0.137107 0.255731
H23   H     H_    0.265551 0.821333 0.269984 0.228319
H24   H     H_    0.213459 0.768653 0.382084 0.241175
N7    N     N_2   0.527100 0.956011 0.271807 -0.419280
H25   H     H_    0.515188 0.988334 0.151370 0.280966
C45   C     C_3   0.579340 0.955245 0.295025 -0.689604
H26   H     H_    0.592805 0.885134 0.167079 0.225130
H27   H     H_    0.590767 0.900964 0.412140 0.218855
H28   H     H_    0.595782 0.077248 0.321417 0.225666
N8    N     N_2   0.474265 0.037875 0.735305 -0.438613
H29   H     H_    0.495434 0.123456 0.828805 0.276640
C46   C     C_3   0.422916 0.060446 0.716670 -0.661963
H30   H     H_    0.409998 0.102222 0.856048 0.224863
H31   H     H_    0.402665 0.947462 0.649219 0.232476
H32   H     H_    0.415394 0.149230 0.633402 0.214131

loop_
_geom_bond_atom_site_label_1
_geom_bond_atom_site_label_2
_ccdc_geom_bond_type
Cu1   O8    S    
C8    C26   A    
C14   C18   A    
Cu2   O2    S    
N8    H29   S    
C34   C42   A    
C41   N1    S    
C32   O11   S    
C46   H30   S    
C24   O6    A    
C39   C41   A    
N5    H17   S    
C19   H13   S    
Cu2   O7    S    
C28   N8    S    
C19   C21   A    
C2    O4    A    
C34   N5    S    
H3    N3    S    
C30   O10   S    
C9    C22   A    
H4    N4    S    
C29   O9    S    
C3    C18   A    
C11   C37   A    
C31   N1    A    
C36   H9    S    
C1    O3    A    
Cu1   O4    S    
C1    O1    A    
Cu2   O6    S    
C12   C36   A    
C42   N2    S    
C40   C42   A    
Cu2   N3    S    
C35   H10   S    
C46   H31   S    
Cu1   N4    S    
C5    C29   A    
N5    C43   S    
C10   C21   A    
C29   N1    A    
C13   C19   A    
C44   H23   S    
C14   C20   A    
C4    C6    A    
C45   H26   S    
C21   H11   S    
C15   C26   A    
C6    C8    A    
C2    O2    A    
C44   H22   S    
C23   O5    A    
C6    C30   A    
N3    N4    D    
Cu1   Cu2   S    
C3    C9    A    
C23   O7    A    
C45   H27   S    
C5    C7    A    
N6    H21   S    
Cu1   O1    S    
C33   N6    S    
C4    C17   A    
C39   H5    S    
C20   C22   A    
C30   N2    A    
N7    C45   S    
C20   H14   S    
C46   H32   S    
C24   O8    A    
C43   H19   S    
C44   H24   S    
C16   C25   A    
C15   C17   A    
C8    H8    S    
N6    C44   S    
C4    C10   A    
C3    C5    A    
C43   H20   S    
C22   H12   S    
N8    C46   S    
C12   C24   S    
C7    C25   A    
C13   C17   A    
C33   C41   A    
C11   C35   A    
C32   N2    A    
C37   C39   A    
C45   H28   S    
C38   C40   A    
C31   O12   S    
C26   H16   S    
C40   H6    S    
C11   C23   S    
C33   C35   A    
C27   N7    S    
C34   C36   A    
C12   C38   A    
C38   H2    S    
C9    C31   A    
C7    H7    S    
C43   H18   S    
C10   C32   A    
C16   C18   A    
C13   C16   A    
C27   C28   D    
C1    C27   S    
C14   C15   A    
Cu2   O3    S    
C2    C28   S    
C25   H15   S    
N7    H25   S    
Cu1   O5    S    
C37   H1    S    
