data_str_m2_o1_o13_f0_pcu.sym.71
_audit_creation_date              2012-10-26T21:20:12-0400
_audit_creation_method            fapswitch 2.2
_symmetry_space_group_name_H-M    P1
_symmetry_Int_Tables_number       1
_space_group_crystal_system       triclinic
_cell_length_a                    12.968798
_cell_length_b                    10.903212
_cell_length_c                    9.602274
_cell_angle_alpha                 90.457448
_cell_angle_beta                  95.251474
_cell_angle_gamma                 95.865352
_cell_volume                      1344.79288542

loop_
_atom_site_label
_atom_site_type_symbol
_atom_type_description
_atom_site_fract_x
_atom_site_fract_y
_atom_site_fract_z
_atom_type_partial_charge
C1    C     C_R   0.506946 0.263404 0.499517 0.509302
C2    C     C_R   0.698329 0.489025 0.524831 0.546840
C3    C     C_R   0.809938 0.468707 0.537950 -0.011246
C4    C     C_R   0.190580 0.532307 0.466015 0.012252
C5    C     C_R   0.029704 0.558224 0.326266 0.003598
C6    C     C_R   0.971044 0.453294 0.685325 0.015173
C7    C     C_R   0.139842 0.571395 0.341396 0.243839
C8    C     C_R   0.861702 0.444934 0.669223 0.242072
C9    C     C_R   0.136288 0.526389 0.586777 -0.029157
C10   C     C_R   0.866409 0.470475 0.419193 -0.041449
C11   C     C_R   0.027820 0.494806 0.571280 -0.013886
C12   C     C_R   0.496528 0.737433 0.500831 0.537031
C13   C     C_R   0.974542 0.504475 0.436525 -0.009006
C14   C     C_R   0.524756 0.061740 0.375070 -0.009193
C15   C     C_R   0.488465 0.940335 0.627595 -0.015031
C16   C     C_R   0.507838 0.934069 0.378092 -0.135812
C17   C     C_R   0.501406 0.068050 0.623022 -0.146177
C18   C     C_3   0.818758 0.402908 0.286466 -0.379493
C19   C     C_3   0.185774 0.596137 0.717098 -0.363935
C20   C     C_3   0.764880 0.290354 0.771896 0.009066
C21   C     C_3   0.706126 0.257140 0.898748 -0.364496
C22   C     C_3   0.207410 0.616515 0.129938 0.006364
C23   C     C_R   0.495231 0.871792 0.503289 0.019341
C24   C     C_3   0.302194 0.689783 0.077572 -0.358248
C25   C     C_3   0.973325 0.616638 0.203176 -0.392087
C26   C     C_3   0.024378 0.412512 0.821692 -0.380987
C27   C     C_3   0.561477 0.116377 0.241843 -0.392632
C28   C     C_3   0.462950 0.883119 0.764692 -0.384077
C29   C     C_3   0.351255 0.329292 0.123903 -0.333190
C30   C     C_3   0.660984 0.653422 0.876705 -0.306223
C31   C     C_3   0.326197 0.247788 0.821151 0.003286
C32   C     C_3   0.272421 0.204230 0.678818 -0.347845
C33   C     C_3   0.661207 0.755342 0.186502 0.006391
C34   C     C_R   0.513783 0.130085 0.497953 0.004737
C35   C     C_3   0.768449 0.822661 0.169381 -0.415600
C36   C     C_R   0.427344 0.423682 0.063116 0.062829
C37   C     C_R   0.574853 0.572825 0.936917 0.071601
C38   C     C_R   0.425197 0.427180 0.913391 0.357750
C39   C     C_R   0.574845 0.572785 0.085958 0.359267
C40   C     C_R   0.302094 0.512552 0.475654 0.558165
Cu1   Cu    Cu3+1 0.500000 0.500020 0.640660 0.949306
Cu2   Cu    Cu3+1 0.500000 0.499980 0.359340 0.933263
H1    H     H_    0.507698 0.883303 0.281140 0.109787
H2    H     H_    0.709739 0.272687 0.676516 0.140691
H3    H     H_    0.640633 0.314665 0.903091 0.171323
H4    H     H_    0.674371 0.158531 0.891784 0.080529
H5    H     H_    0.759295 0.272786 0.996032 0.138606
H6    H     H_    0.139221 0.633474 0.057434 0.114431
H7    H     H_    0.217810 0.517207 0.127034 0.136093
H8    H     H_    0.371534 0.684134 0.152749 0.199901
H9    H     H_    0.318348 0.653005 0.974802 0.087190
H10   H     H_    0.288253 0.788184 0.066206 0.134527
H11   H     H_    0.892491 0.629713 0.221738 0.161774
H12   H     H_    0.501540 0.119556 0.718960 0.121985
H13   H     H_    0.011174 0.710426 0.185235 0.155440
H14   H     H_    0.971974 0.557952 0.108036 0.118815
H15   H     H_    0.047780 0.492957 0.892471 0.109847
H16   H     H_    0.973195 0.346489 0.878058 0.150633
H17   H     H_    0.092788 0.363806 0.802149 0.132417
H18   H     H_    0.605101 0.208599 0.257410 0.163784
H19   H     H_    0.617157 0.057970 0.199648 0.096078
H20   H     H_    0.494818 0.118150 0.161762 0.123857
H21   H     H_    0.391661 0.817473 0.748436 0.146347
H22   H     H_    0.528983 0.836039 0.810674 0.143486
H23   H     H_    0.769140 0.319120 0.313441 0.111768
H24   H     H_    0.447698 0.953083 0.842991 0.089450
H25   H     H_    0.270457 0.339380 0.081116 0.091351
H26   H     H_    0.370218 0.236048 0.097433 0.069964
H27   H     H_    0.351728 0.329031 0.236856 0.200648
H28   H     H_    0.666395 0.748142 0.918704 0.065663
H29   H     H_    0.736529 0.615168 0.901002 0.174097
H30   H     H_    0.648459 0.669893 0.765223 0.188739
H31   H     H_    0.272555 0.209897 0.897046 0.109515
H32   H     H_    0.401269 0.208214 0.842095 0.109536
H33   H     H_    0.311966 0.248368 0.592231 0.185654
H34   H     H_    0.771444 0.461160 0.218859 0.210651
H35   H     H_    0.271606 0.102622 0.668249 0.094505
H36   H     H_    0.190838 0.227904 0.668805 0.126618
H37   H     H_    0.648424 0.774521 0.295956 0.178187
H38   H     H_    0.600571 0.795948 0.116598 0.086188
H39   H     H_    0.803890 0.785976 0.079112 0.150074
H40   H     H_    0.761643 0.922437 0.154080 0.096675
H41   H     H_    0.821550 0.812944 0.265263 0.138418
H42   H     H_    0.879679 0.370786 0.225012 0.116699
H43   H     H_    0.250351 0.664814 0.692332 0.139729
H44   H     H_    0.128751 0.650281 0.762904 0.108271
H45   H     H_    0.216055 0.532732 0.795897 0.187344
H46   H     H_    0.827757 0.228435 0.767924 0.105247
N1    N     N_R   0.500030 0.500030 0.852080 -0.245340
N2    N     N_R   0.499970 0.499970 0.147920 -0.252719
O1    O     O_R   0.499990 0.319660 0.618740 -0.504344
O2    O     O_3   0.195761 0.659157 0.265919 -0.553734
O3    O     O_3   0.337434 0.378079 0.828722 -0.548505
O4    O     O_3   0.662010 0.626387 0.168440 -0.551736
O5    O     O_R   0.500010 0.680340 0.381260 -0.513826
O6    O     O_R   0.499990 0.319630 0.381170 -0.527125
O7    O     O_R   0.500010 0.680370 0.618830 -0.530548
O8    O     O_R   0.349000 0.499990 0.599490 -0.452011
O9    O     O_R   0.651000 0.500010 0.400510 -0.458661
O10   O     O_R   0.348990 0.499960 0.361920 -0.511914
O11   O     O_R   0.651010 0.500040 0.638080 -0.484624
O12   O     O_3   0.806384 0.415639 0.783473 -0.559149

loop_
_geom_bond_atom_site_label_1
_geom_bond_atom_site_label_2
_ccdc_geom_bond_type
C24   H10   S    
C22   H6    S    
Cu1   Cu2   S    
Cu1   N1    S    
C25   H14   S    
C19   H44   S    
C33   O4    S    
C32   H33   S    
C30   H29   S    
C35   H39   S    
C18   H23   S    
C38   N1    A    
Cu2   O6    S    
C25   H11   S    
C19   H45   S    
C27   H18   S    
C40   O8    A    
C31   H31   S    
C20   O12   S    
Cu1   O7    S    
C27   H19   S    
C30   H28   S    
C32   H35   S    
C29   H25   S    
C9    C19   S    
C4    C40   S    
C18   H42   S    
C12   O5    A    
C14   C27   S    
C26   H17   S    
C39   N2    A    
C5    C13   A    
C24   H9    S    
C15   C23   A    
C1    O1    A    
C4    C7    A    
C20   H2    S    
C35   H40   S    
C1    C34   S    
C29   H27   S    
C24   H8    S    
Cu2   O5    S    
C3    C8    A    
C6    C11   A    
C5    C7    A    
C35   H41   S    
C33   H37   S    
C31   H32   S    
C12   C23   S    
C2    O11   A    
C31   O3    S    
C30   C37   S    
C21   H3    S    
Cu2   N2    S    
C28   H24   S    
C39   O4    S    
C14   C34   A    
C27   H20   S    
Cu2   O10   S    
C29   H26   S    
C26   H16   S    
C30   H30   S    
C31   C32   S    
C29   C36   S    
C9    C11   A    
C16   H1    S    
C12   O7    A    
C22   H7    S    
C5    C25   S    
C28   H22   S    
Cu1   O1    S    
C2    O9    A    
C16   C23   A    
C14   C16   A    
C17   C34   A    
C21   H4    S    
C36   N2    A    
C15   C17   A    
C18   H34   S    
C25   H13   S    
C19   H43   S    
C10   C13   A    
C40   O10   A    
C6    C8    A    
C33   H38   S    
C37   N1    A    
C36   C38   A    
C2    C3    S    
C37   C39   A    
C3    C10   A    
Cu2   O9    S    
C11   C13   A    
C15   C28   S    
C6    C26   S    
C10   C18   S    
C1    O6    A    
C7    O2    S    
C20   H46   S    
C38   O3    S    
C33   C35   S    
Cu1   O11   S    
C22   C24   S    
C26   H15   S    
C32   H36   S    
C28   H21   S    
C20   C21   S    
C22   O2    S    
Cu1   O8    S    
C4    C9    A    
C8    O12   S    
C17   H12   S    
C21   H5    S    
