data_str_m2_o10_o28_f0_pcu.sym.249
_audit_creation_date              2012-12-10T16:50:16-0500
_audit_creation_method            fapswitch 2.2
_symmetry_space_group_name_H-M    P1
_symmetry_Int_Tables_number       1
_space_group_crystal_system       triclinic
_cell_length_a                    23.461207
_cell_length_b                    8.7247
_cell_length_c                    7.424549
_cell_angle_alpha                 102.665423
_cell_angle_beta                  93.709445
_cell_angle_gamma                 92.413516
_cell_volume                      1477.18378805

loop_
_atom_site_label
_atom_site_type_symbol
_atom_type_description
_atom_site_fract_x
_atom_site_fract_y
_atom_site_fract_z
_atom_type_partial_charge
C1    C     C_R   0.496978 0.200286 0.454484 0.848589
C2    C     C_R   0.503015 0.799715 0.545517 0.849600
C3    C     C_R   0.236073 0.550102 0.379665 -0.130443
C4    C     C_R   0.763711 0.450806 0.623983 -0.090219
C5    C     C_R   0.294988 0.546179 0.370844 -0.139306
C6    C     C_R   0.704795 0.454981 0.631551 -0.109723
C7    C     C_R   0.328792 0.503063 0.512035 -0.054421
C8    C     C_R   0.671232 0.495929 0.488392 -0.063295
C9    C     C_R   0.302898 0.463462 0.662224 -0.252655
C10   C     C_R   0.697406 0.532566 0.337106 -0.256547
C11   C     C_R   0.243392 0.465141 0.672004 0.031390
C12   C     C_R   0.757051 0.530651 0.328483 0.027233
C13   C     C_R   0.209858 0.508909 0.527824 0.276651
C14   C     C_R   0.790250 0.489538 0.475111 0.272800
C15   C     C_2   0.487006 0.034665 0.436388 -0.265510
C16   C     C_2   0.512979 0.965338 0.563623 -0.265901
C17   C     C_R   0.391053 0.500399 0.503411 0.826252
C18   C     C_R   0.608954 0.499388 0.496600 0.826815
C19   C     C_R   0.882145 0.634260 0.530178 0.579702
C20   C     C_R   0.117957 0.364068 0.474938 0.584746
C21   C     C_R   0.877780 0.353226 0.440848 0.594541
C22   C     C_R   0.122332 0.645060 0.564937 0.593008
C23   C     C_R   0.937637 0.352908 0.449421 -0.016034
C24   C     C_R   0.062476 0.645360 0.556994 -0.016050
C25   C     C_R   0.969920 0.497787 0.498740 -0.011866
C26   C     C_R   0.030191 0.500488 0.507691 -0.011209
C27   C     C_R   0.942081 0.639962 0.539293 -0.013377
C28   C     C_R   0.058028 0.358329 0.466829 -0.005840
C29   C     C_R   0.965833 0.211828 0.409950 -0.158867
C30   C     C_R   0.034281 0.786435 0.596689 -0.157345
C31   C     C_R   0.025437 0.214516 0.418428 -0.162401
C32   C     C_R   0.974674 0.783760 0.587984 -0.165687
Cu1   Cu    Cu3+1 0.506340 0.517380 0.684380 1.019111
Cu2   Cu    Cu3+1 0.493660 0.482620 0.315620 1.019065
H1    H     H_    0.941976 0.098983 0.372183 0.195609
H2    H     H_    0.058138 0.899278 0.634495 0.195840
H3    H     H_    0.045839 0.103668 0.386943 0.190241
H4    H     H_    0.954272 0.894612 0.619345 0.190556
H5    H     H_    0.314130 0.577984 0.254215 0.190985
H6    H     H_    0.685456 0.424944 0.748817 0.186549
H7    H     H_    0.455176 0.379623 0.949052 0.237287
H8    H     H_    0.544823 0.620378 0.050949 0.236943
N1    N     N_R   0.851448 0.492500 0.480000 -0.454651
N2    N     N_R   0.148665 0.505838 0.524701 -0.455738
N3    N     N_2   0.484110 0.456420 0.038520 -0.203406
N4    N     N_2   0.515890 0.543580 0.961480 -0.203657
O1    O     O_R   0.504120 0.286130 0.619770 -0.583755
O2    O     O_R   0.495880 0.713870 0.380230 -0.583549
O3    O     O_R   0.493410 0.256770 0.308360 -0.536549
O4    O     O_R   0.506590 0.743230 0.691640 -0.536368
O5    O     O_R   0.423230 0.514630 0.655730 -0.600422
O6    O     O_R   0.576770 0.485370 0.344270 -0.600073
O7    O     O_R   0.412530 0.485280 0.344320 -0.568647
O8    O     O_R   0.587470 0.514720 0.655680 -0.569322
O9    O     O_2   0.854652 0.768915 0.571145 -0.505049
O10   O     O_2   0.145427 0.229436 0.433045 -0.514811
O11   O     O_2   0.846050 0.215829 0.393165 -0.497594
O12   O     O_2   0.154059 0.782459 0.612769 -0.498328
H9    H     H_    0.210354 0.583169 0.269331 0.178585
H10   H     H_    0.789165 0.418774 0.735457 0.159398
H11   H     H_    0.329234 0.430475 0.771443 0.189991
H12   H     H_    0.671223 0.563613 0.226230 0.185586
C33   C     C_2   0.217846 0.419716 0.832365 0.865038
O13   O     O_2   0.170538 0.461054 0.875835 -0.595496
O14   O     O_R   0.248375 0.329508 0.935299 -0.756439
H13   H     H_    0.226219 0.302810 0.038235 0.352973
C34   C     C_2   0.783297 0.572091 0.166728 0.873383
O15   O     O_2   0.756405 0.644203 0.068828 -0.587834
O16   O     O_R   0.838353 0.528266 0.124215 -0.760243
H14   H     H_    0.851467 0.565878 0.012954 0.333786
C35   C     C_2   0.440030 0.956592 0.296547 0.884062
O17   O     O_2   0.400915 0.879499 0.342165 -0.597826
O18   O     O_R   0.439987 0.975507 0.114318 -0.702663
H15   H     H_    0.405993 0.917532 0.032727 0.339243
C36   C     C_2   0.559945 0.043425 0.703494 0.885127
O19   O     O_2   0.599075 0.120472 0.657887 -0.598276
O20   O     O_R   0.559955 0.024594 0.885749 -0.702581
H16   H     H_    0.593939 0.082594 0.967369 0.339290

loop_
_geom_bond_atom_site_label_1
_geom_bond_atom_site_label_2
_ccdc_geom_bond_type
C33   O14   S    
C16   C36   S    
O18   H15   S    
C20   O10   S    
C17   O5    A    
C18   O6    A    
O20   H16   S    
C9    H11   S    
C23   C29   A    
C24   C26   A    
C11   C33   S    
C15   C16   D    
H8    N4    S    
C2    O4    A    
C21   N1    A    
C22   N2    A    
C7    C17   S    
C1    C15   S    
C32   H4    S    
C2    C16   S    
C3    C13   A    
Cu1   N4    S    
C10   H12   S    
C20   N2    A    
C19   N1    A    
C12   C34   S    
C34   O15   D    
C4    C6    A    
C35   O18   S    
C1    O1    A    
C6    C8    A    
C20   C28   A    
C2    O2    A    
C25   C26   A    
N3    N4    D    
C8    C18   S    
Cu1   O5    S    
C31   H3    S    
C34   O16   S    
C36   O19   D    
C21   O11   S    
C9    C11   A    
C4    H10   S    
Cu1   Cu2   S    
Cu2   N3    S    
C36   O20   S    
C10   C12   A    
C12   C14   A    
C21   C23   A    
Cu1   O1    S    
C22   C24   A    
Cu2   O2    S    
C17   O7    A    
C19   C27   A    
C5    C7    A    
C19   O9    S    
Cu1   O8    S    
C7    C9    A    
Cu2   O3    S    
C27   C32   A    
Cu2   O6    S    
C28   C31   A    
C3    C5    A    
C22   O12   S    
C25   C27   A    
C15   C35   S    
C29   H1    S    
C26   C28   A    
C30   H2    S    
C5    H5    S    
Cu1   O4    S    
C35   O17   D    
C29   C31   A    
C30   C32   A    
C11   C13   A    
C6    H6    S    
C23   C25   A    
C4    C14   A    
O16   H14   S    
C24   C30   A    
C18   O8    A    
C33   O13   D    
Cu2   O7    S    
C8    C10   A    
O14   H13   S    
H7    N3    S    
C1    O3    A    
C13   N2    S    
C14   N1    S    
C3    H9    S    
