data_str_m2_o10_o29_f0_pcu.sym.18
_audit_creation_date              2012-10-26T20:17:36-0400
_audit_creation_method            fapswitch 2.2
_symmetry_space_group_name_H-M    P1
_symmetry_Int_Tables_number       1
_space_group_crystal_system       triclinic
_cell_length_a                    27.786088
_cell_length_b                    8.743673
_cell_length_c                    7.450185
_cell_angle_alpha                 103.21415
_cell_angle_beta                  94.548175
_cell_angle_gamma                 93.060803
_cell_volume                      1751.7895376

loop_
_atom_site_label
_atom_site_type_symbol
_atom_type_description
_atom_site_fract_x
_atom_site_fract_y
_atom_site_fract_z
_atom_type_partial_charge
C1    C     C_R   0.498110 0.200185 0.453639 0.559388
C2    C     C_R   0.868811 0.356332 0.421202 -0.007111
C3    C     C_R   0.354277 0.496252 0.507475 0.005134
C4    C     C_R   0.645723 0.503747 0.492525 0.005134
C5    C     C_R   0.971106 0.353227 0.441332 0.059381
C6    C     C_R   0.028893 0.646772 0.558666 0.059381
C7    C     C_R   0.977557 0.645010 0.528915 0.040529
C8    C     C_R   0.022443 0.354988 0.471083 0.040529
C9    C     C_R   0.949045 0.498870 0.480546 -0.018002
C10   C     C_R   0.050955 0.501129 0.519452 -0.018002
C11   C     C_R   0.940787 0.212396 0.364889 0.220125
C12   C     C_R   0.501890 0.799815 0.546361 0.559388
C13   C     C_R   0.059213 0.787603 0.635109 0.220125
C14   C     C_R   0.890433 0.214850 0.367861 -0.100498
C15   C     C_R   0.109567 0.785148 0.632137 -0.100499
C16   C     C_R   0.407378 0.497998 0.501575 0.551556
C17   C     C_R   0.592622 0.502002 0.498425 0.551557
C18   C     C_R   0.046503 0.215610 0.466038 -0.080204
C19   C     C_R   0.953497 0.784388 0.533960 -0.080204
C20   C     C_2   0.492592 0.032823 0.429693 0.096873
C21   C     C_2   0.507408 0.967177 0.570307 0.096873
C22   C     C_R   0.175349 0.360333 0.507017 0.411079
C23   C     C_R   0.102244 0.501016 0.533266 -0.042168
C24   C     C_R   0.824651 0.639665 0.492982 0.411080
C25   C     C_R   0.181657 0.641057 0.578241 0.453316
C26   C     C_R   0.818343 0.358942 0.421758 0.453316
C27   C     C_R   0.285543 0.547788 0.692982 0.289583
C28   C     C_R   0.714457 0.452211 0.307017 0.289584
C29   C     C_R   0.335627 0.546009 0.679920 -0.161622
C30   C     C_R   0.664373 0.453991 0.320080 -0.161622
C31   C     C_R   0.321876 0.445591 0.345223 0.068521
C32   C     C_R   0.678124 0.554408 0.654777 0.068520
C33   C     C_R   0.271969 0.449409 0.359391 -0.082683
C34   C     C_R   0.897756 0.498982 0.466732 -0.042168
C35   C     C_R   0.728031 0.550590 0.640608 -0.082684
C36   C     C_R   0.253885 0.499825 0.531265 0.257689
C37   C     C_R   0.746115 0.500174 0.468734 0.257689
C38   C     C_R   0.124776 0.358013 0.503163 0.029735
C39   C     C_R   0.875224 0.641986 0.496836 0.029734
C40   C     C_R   0.096560 0.216547 0.475838 -0.120030
C41   C     C_R   0.903439 0.783451 0.524160 -0.120030
C42   C     C_R   0.131189 0.643666 0.578797 -0.007111
Cu1   Cu    Cu3+1 0.505380 0.517380 0.684380 1.083055
Cu2   Cu    Cu3+1 0.494620 0.482620 0.315620 1.083055
H1    H     H_    0.246744 0.411744 0.236470 0.150189
H2    H     H_    0.972236 0.896025 0.537702 0.200534
H3    H     H_    0.311076 0.367135 0.062021 0.246019
H4    H     H_    0.352715 0.277913 0.168007 0.234506
H5    H     H_    0.688924 0.632868 0.937978 0.246018
H6    H     H_    0.647284 0.722087 0.831989 0.234506
H7    H     H_    0.437029 0.298377 0.004765 0.326827
H8    H     H_    0.562971 0.701622 0.995235 0.326827
H9    H     H_    0.706425 0.373580 0.039426 0.328842
H10   H     H_    0.293575 0.626422 0.960572 0.328842
H11   H     H_    0.933825 0.992328 0.224951 0.329730
H12   H     H_    0.753256 0.588254 0.763528 0.150189
H13   H     H_    0.066174 0.007670 0.775048 0.329730
H14   H     H_    0.488604 0.956525 0.149702 0.244039
H15   H     H_    0.434432 0.984102 0.237270 0.220874
H16   H     H_    0.511395 0.043475 0.850298 0.244039
H17   H     H_    0.565568 0.015898 0.762730 0.220874
H18   H     H_    0.113063 0.105652 0.464876 0.165981
H19   H     H_    0.886937 0.894346 0.535122 0.165981
H20   H     H_    0.639978 0.415724 0.194922 0.148219
H21   H     H_    0.360022 0.584275 0.805078 0.148219
H22   H     H_    0.867950 0.105781 0.318577 0.160827
H23   H     H_    0.132050 0.894217 0.681421 0.160827
H24   H     H_    0.027764 0.103974 0.462296 0.200534
N1    N     N_R   0.202549 0.500558 0.540139 -0.370468
N2    N     N_R   0.797451 0.499440 0.459860 -0.370468
N3    N     N_2   0.486510 0.456430 0.038510 0.100579
N4    N     N_2   0.513490 0.543570 0.961490 0.100579
N5    N     N_3   0.339413 0.387482 0.167627 -0.593309
N6    N     N_3   0.660586 0.612518 0.832372 -0.593308
N7    N     N_3   0.468351 0.941083 0.257516 -0.591215
N8    N     N_3   0.531648 0.058917 0.742484 -0.591214
O1    O     O_R   0.503500 0.286120 0.619780 -0.429596
O2    O     O_2   0.802784 0.776244 0.522539 -0.471830
O3    O     O_2   0.790398 0.222411 0.386225 -0.442357
O4    O     O_2   0.209602 0.777587 0.613775 -0.442356
O5    O     O_3   0.453919 0.354292 0.923699 -0.577441
O6    O     O_3   0.546080 0.645708 0.076301 -0.577441
O7    O     O_3   0.733397 0.405207 0.138894 -0.656624
O8    O     O_3   0.266603 0.594792 0.861105 -0.656624
O9    O     O_3   0.959932 0.077342 0.271587 -0.718417
O10   O     O_3   0.040067 0.922656 0.728411 -0.718417
O11   O     O_R   0.496500 0.713880 0.380220 -0.429596
O12   O     O_R   0.494410 0.256780 0.308360 -0.550932
O13   O     O_R   0.505590 0.743220 0.691640 -0.550932
O14   O     O_R   0.434810 0.514700 0.655690 -0.478237
O15   O     O_R   0.565190 0.485300 0.344310 -0.478237
O16   O     O_R   0.425720 0.485350 0.344280 -0.490385
O17   O     O_R   0.574280 0.514650 0.655720 -0.490385
O18   O     O_2   0.197216 0.223754 0.477460 -0.471830

loop_
_geom_bond_atom_site_label_1
_geom_bond_atom_site_label_2
_ccdc_geom_bond_type
C16   O14   A    
Cu1   N4    S    
C30   H20   S    
C27   C29   A    
C25   O4    S    
C33   H1    S    
C17   O15   A    
C24   C39   A    
H10   O8    S    
C19   H2    S    
C24   N2    A    
C39   C41   A    
C21   N8    S    
Cu1   O13   S    
C23   C42   A    
C27   O8    S    
C35   C37   A    
C5    C11   A    
H6    N6    S    
C32   N6    S    
C1    O1    A    
C11   C14   A    
C31   N5    S    
C18   H24   S    
C22   C38   A    
C33   C36   A    
C40   H18   S    
H13   O10   S    
Cu2   N3    S    
C3    C29   A    
C18   C40   A    
C13   O10   S    
C31   C33   A    
Cu2   O11   S    
H7    O5    S    
C22   N1    A    
Cu2   O16   S    
C2    C34   A    
C1    O12   A    
C37   N2    S    
C28   O7    S    
C22   O18   S    
H14   N7    S    
H17   N8    S    
Cu1   O14   S    
C34   C39   A    
C32   C35   A    
C12   O13   A    
H3    N5    S    
C12   C21   S    
H16   N8    S    
C8    C18   A    
C20   N7    S    
H11   O9    S    
C3    C31   A    
Cu1   Cu2   S    
C5    C9    A    
C15   H23   S    
C14   H22   S    
C2    C26   A    
H8    O6    S    
C4    C32   A    
Cu2   O15   S    
C29   H21   S    
C4    C17   S    
C24   O2    S    
C16   O16   A    
C7    C19   A    
C13   C15   A    
C9    C34   A    
C26   N2    A    
C17   O17   A    
C41   H19   S    
H15   N7    S    
C36   N1    S    
C7    C9    A    
C1    C20   S    
C12   O11   A    
C35   H12   S    
H4    N5    S    
C15   C42   A    
C25   C42   A    
C6    C10   A    
C5    C8    A    
C6    C7    A    
C10   C23   A    
Cu1   O1    S    
C23   C38   A    
C26   O3    S    
H9    O7    S    
C27   C36   A    
C28   C30   A    
N3    N4    D    
C6    C13   A    
C38   C40   A    
C28   C37   A    
C11   O9    S    
Cu1   O17   S    
C2    C14   A    
C4    C30   A    
C25   N1    A    
C20   C21   D    
C8    C10   A    
H5    N6    S    
Cu2   O12   S    
N4    O6    S    
C3    C16   S    
C19   C41   A    
N3    O5    S    
