data_str_m4_o4_o24_f0_acs.sym.32
_audit_creation_date              2012-12-11T15:50:35-0500
_audit_creation_method            fapswitch 2.2
_symmetry_space_group_name_H-M    P1
_symmetry_Int_Tables_number       1
_space_group_crystal_system       triclinic
_cell_length_a                    18.890541
_cell_length_b                    11.070218
_cell_length_c                    18.701088
_cell_angle_alpha                 90.10884
_cell_angle_beta                  90.822769
_cell_angle_gamma                 89.986405
_cell_volume                      3910.40617594

loop_
_atom_site_label
_atom_site_type_symbol
_atom_type_description
_atom_site_fract_x
_atom_site_fract_y
_atom_site_fract_z
_atom_type_partial_charge
C1    C     C_R   0.271149 0.045658 0.852054 0.544876
C2    C     C_R   0.749762 0.602899 0.918631 0.022613
C3    C     C_R   0.229310 0.549345 0.352571 0.546027
C4    C     C_R   0.468212 0.823569 0.645908 0.542433
C5    C     C_R   0.528893 0.823366 0.352187 0.541649
C6    C     C_R   0.968228 0.323572 0.645918 0.541052
C7    C     C_R   0.028896 0.323367 0.352191 0.541597
C8    C     C_R   0.274559 0.690073 0.636789 0.575215
C9    C     C_R   0.726399 0.686437 0.363592 0.571934
C10   C     C_R   0.774560 0.190077 0.636788 0.574954
C11   C     C_R   0.226397 0.186437 0.363592 0.572002
C12   C     C_3   0.470957 0.937655 0.028860 0.271298
C13   C     C_R   0.750639 0.102805 0.081535 0.023100
C14   C     C_3   0.528290 0.938052 0.971714 0.271515
C15   C     C_3   0.972913 0.438979 0.027800 0.259382
C16   C     C_3   0.029998 0.431889 0.970369 0.273879
C17   C     C_3   0.429840 0.839730 0.986371 -0.113144
C18   C     C_3   0.569727 0.840307 0.013800 -0.113047
C19   C     C_3   0.929051 0.342589 0.986938 -0.114689
C20   C     C_3   0.068952 0.332606 0.013421 -0.112619
C21   C     C_3   0.489643 0.837733 0.930337 0.009976
C22   C     C_3   0.509945 0.837446 0.069841 0.010018
C23   C     C_3   0.988484 0.333936 0.930826 0.025870
C24   C     C_R   0.248391 0.103886 0.917986 0.023507
C25   C     C_3   0.009535 0.337217 0.069948 0.009710
C26   C     C_3   0.485873 0.108959 0.100269 0.028505
C27   C     C_3   0.472300 0.244196 0.095255 -0.416671
C28   C     C_3   0.512779 0.109853 0.901238 0.028135
C29   C     C_3   0.526284 0.245077 0.906880 -0.416666
C30   C     C_3   0.989950 0.611378 0.097737 0.014580
C31   C     C_3   0.977812 0.747116 0.092452 -0.421819
C32   C     C_3   0.018530 0.617190 0.912192 0.003168
C33   C     C_3   0.035159 0.653994 0.835760 -0.338936
C34   C     C_R   0.315082 0.582324 0.048395 0.001693
C35   C     C_R   0.684791 0.582657 0.951359 0.001907
C36   C     C_R   0.815195 0.080911 0.048321 -0.000320
C37   C     C_R   0.183926 0.080386 0.951339 0.005080
C38   C     C_R   0.322935 0.604162 0.975539 0.009704
C39   C     C_R   0.676546 0.604977 0.024193 0.010885
C40   C     C_R   0.823491 0.103813 0.975612 0.011993
C41   C     C_R   0.728629 0.045248 0.147762 0.544467
C42   C     C_R   0.176073 0.102352 0.024357 0.010219
C43   C     C_R   0.202985 0.674982 0.969092 -0.133091
C44   C     C_R   0.796583 0.674476 0.031270 -0.139158
C45   C     C_R   0.704342 0.176857 0.969408 -0.138353
C46   C     C_R   0.294852 0.177428 0.030200 -0.138422
C47   C     C_R   0.197621 0.663922 0.042085 -0.143941
C48   C     C_R   0.802910 0.661837 0.958552 -0.140580
C49   C     C_R   0.698155 0.164132 0.042168 -0.140067
C50   C     C_R   0.300589 0.165963 0.957345 -0.141053
C51   C     C_3   0.357043 0.469927 0.045781 -0.291210
C52   C     C_R   0.771402 0.545415 0.852200 0.543789
C53   C     C_3   0.642714 0.470331 0.953839 -0.290977
C54   C     C_3   0.856858 0.968168 0.045276 -0.290336
C55   C     C_3   0.143959 0.965629 0.954546 -0.286409
C56   C     C_3   0.365808 0.491950 0.966386 -0.268187
C57   C     C_3   0.633594 0.492894 0.033173 -0.268128
C58   C     C_3   0.865892 0.991205 0.966001 -0.267150
C59   C     C_3   0.135087 0.988360 0.033912 -0.267789
C60   C     C_R   0.265415 0.644711 0.934207 0.018878
C61   C     C_R   0.733931 0.645535 0.065748 0.011928
C62   C     C_R   0.766386 0.146158 0.934414 0.013223
C63   C     C_R   0.228668 0.545536 0.147846 0.544862
C64   C     C_R   0.233238 0.145617 0.065411 0.012244
C65   C     C_R   0.493739 0.830645 0.420781 0.023309
C66   C     C_R   0.485803 0.831273 0.570766 0.019958
C67   C     C_R   0.993752 0.330649 0.420792 0.023256
C68   C     C_R   0.985831 0.331276 0.570780 0.020108
C69   C     C_R   0.470313 0.822998 0.855145 0.545685
C70   C     C_R   0.529574 0.822884 0.144938 0.544964
C71   C     C_R   0.969744 0.322335 0.855457 0.556678
C72   C     C_R   0.029509 0.322909 0.144980 0.545156
C73   C     C_R   0.480647 0.723981 0.458486 0.028993
C74   C     C_3   0.529540 0.740234 0.971903 -0.170481
C75   C     C_R   0.479899 0.725333 0.531478 0.028057
C76   C     C_R   0.980661 0.223987 0.458498 0.028954
C77   C     C_R   0.979918 0.225339 0.531490 0.028455
C78   C     C_R   0.484804 0.941403 0.532987 -0.162588
C79   C     C_R   0.488497 0.941102 0.457913 -0.165730
C80   C     C_R   0.984838 0.441408 0.533003 -0.162743
C81   C     C_R   0.988518 0.441107 0.457927 -0.165599
C82   C     C_3   0.516566 0.602934 0.458975 -0.271090
C83   C     C_3   0.517569 0.608227 0.539769 -0.282089
C84   C     C_3   0.016575 0.102935 0.458983 -0.271102
C85   C     C_3   0.470369 0.739793 0.027887 -0.170302
C86   C     C_3   0.017583 0.108225 0.539777 -0.282200
C87   C     C_R   0.252907 0.615604 0.415555 0.024300
C88   C     C_R   0.745285 0.602733 0.582547 0.022842
C89   C     C_R   0.752916 0.115611 0.415549 0.024345
C90   C     C_R   0.245280 0.102724 0.582545 0.022819
C91   C     C_R   0.204401 0.690686 0.450482 0.033354
C92   C     C_R   0.777774 0.706113 0.555083 0.030128
C93   C     C_R   0.704420 0.190720 0.450469 0.033369
C94   C     C_R   0.277753 0.206122 0.555085 0.029895
C95   C     C_R   0.213299 0.718278 0.521635 0.016981
C96   C     C_3   0.025880 0.234397 0.973208 -0.167474
C97   C     C_R   0.770923 0.732790 0.483323 0.014710
C98   C     C_R   0.713316 0.218311 0.521624 0.016553
C99   C     C_R   0.270903 0.232799 0.483325 0.014606
C100  C     C_R   0.325421 0.614666 0.522646 -0.156413
C101  C     C_R   0.695954 0.558080 0.466170 -0.168789
C102  C     C_R   0.825426 0.114663 0.522645 -0.156230
C103  C     C_R   0.195960 0.058059 0.466164 -0.168793
C104  C     C_R   0.317576 0.590873 0.449403 -0.160980
C105  C     C_R   0.699993 0.534690 0.538570 -0.177861
C106  C     C_R   0.817580 0.090859 0.449403 -0.160945
C107  C     C_3   0.967135 0.241149 0.029596 -0.171737
C108  C     C_R   0.200000 0.034662 0.538563 -0.177888
C109  C     C_3   0.126000 0.676189 0.458124 -0.268700
C110  C     C_3   0.854222 0.742324 0.556983 -0.266349
C111  C     C_3   0.626014 0.176267 0.458099 -0.268910
C112  C     C_3   0.354194 0.242369 0.556987 -0.265978
C113  C     C_3   0.135856 0.704160 0.536299 -0.271914
C114  C     C_3   0.847318 0.766387 0.478021 -0.269809
C115  C     C_3   0.635869 0.204220 0.536274 -0.271498
C116  C     C_3   0.347291 0.266429 0.478025 -0.269935
C117  C     C_R   0.272483 0.678646 0.859490 0.561910
C118  C     C_R   0.250458 0.603457 0.081568 0.024280
C119  C     C_R   0.727209 0.679263 0.140585 0.559915
C120  C     C_R   0.772828 0.179421 0.859461 0.559325
C121  C     C_R   0.227144 0.179063 0.140525 0.560152
C122  C     C_R   0.271073 0.672464 0.560047 0.015737
C123  C     C_R   0.732040 0.657104 0.438023 0.022188
C124  C     C_R   0.771081 0.172478 0.560043 0.015557
C125  C     C_R   0.232035 0.157100 0.438022 0.022218
C126  C     C_R   0.270602 0.047751 0.647396 0.553361
C127  C     C_R   0.729312 0.049347 0.352569 0.546053
C128  C     C_R   0.770603 0.547753 0.647397 0.553091
Cr1   Cr    Cr6+3 0.229640 0.835880 0.747370 0.985123
Cr2   Cr    Cr6+3 0.614230 0.677220 0.250660 1.004816
Cr3   Cr    Cr6+3 0.885770 0.177220 0.749340 1.004595
Cr4   Cr    Cr6+3 0.114230 0.177220 0.250660 1.004841
Cr5   Cr    Cr6+3 0.770360 0.835880 0.252630 0.995735
Cr6   Cr    Cr6+3 0.729640 0.335880 0.747370 0.992402
Cr7   Cr    Cr6+3 0.270360 0.335880 0.252630 0.995010
Cr8   Cr    Cr6+3 0.387390 0.989720 0.750850 0.979733
Cr9   Cr    Cr6+3 0.612610 0.989720 0.249150 0.979699
Cr10  Cr    Cr6+3 0.887390 0.489720 0.750850 0.978899
Cr11  Cr    Cr6+3 0.112610 0.489720 0.249150 0.980216
Cr12  Cr    Cr6+3 0.385770 0.677220 0.749340 1.006888
H1    H     H_    0.372220 0.842627 0.974008 0.119895
H2    H     H_    0.985555 0.036275 0.564889 0.132179
H3    H     H_    0.569524 0.606642 0.435962 0.172260
H4    H     H_    0.485545 0.536271 0.564879 0.132453
H5    H     H_    0.482311 0.529806 0.437075 0.120663
H6    H     H_    0.571062 0.620778 0.563780 0.148951
H7    H     H_    0.982314 0.029813 0.437084 0.120683
H8    H     H_    0.071077 0.120767 0.563785 0.148841
H9    H     H_    0.370755 0.579485 0.551051 0.137898
H10   H     H_    0.667143 0.495340 0.432098 0.137156
H11   H     H_    0.870758 0.079474 0.551053 0.137912
H12   H     H_    0.627345 0.843634 0.026145 0.120414
H13   H     H_    0.167155 0.995315 0.432089 0.137171
H14   H     H_    0.358373 0.542941 0.421184 0.117460
H15   H     H_    0.673679 0.455714 0.558529 0.138477
H16   H     H_    0.858373 0.042907 0.421189 0.117428
H17   H     H_    0.173697 0.955670 0.558518 0.138530
H18   H     H_    0.108470 0.581818 0.448959 0.161654
H19   H     H_    0.891516 0.667311 0.568477 0.157346
H20   H     H_    0.608460 0.081910 0.448929 0.161704
H21   H     H_    0.391499 0.167373 0.568481 0.157563
H22   H     H_    0.095592 0.746570 0.428490 0.132455
H23   H     H_    0.871490 0.348679 0.974624 0.120394
H24   H     H_    0.863362 0.825579 0.589179 0.138073
H25   H     H_    0.595626 0.246672 0.428465 0.132431
H26   H     H_    0.363319 0.325630 0.589182 0.138502
H27   H     H_    0.109152 0.788944 0.552385 0.124085
H28   H     H_    0.855477 0.861795 0.464622 0.133151
H29   H     H_    0.609168 0.289005 0.552362 0.124461
H30   H     H_    0.355436 0.361838 0.464625 0.133178
H31   H     H_    0.124114 0.625192 0.570893 0.159592
H32   H     H_    0.878186 0.701806 0.445109 0.152156
H33   H     H_    0.624113 0.125246 0.570859 0.160700
H34   H     H_    0.126602 0.333548 0.025558 0.120790
H35   H     H_    0.378170 0.201860 0.445115 0.152101
H36   H     H_    0.550677 0.660467 0.944457 0.141263
H37   H     H_    0.449513 0.659595 0.054923 0.140967
H38   H     H_    0.044925 0.151149 0.947489 0.138618
H39   H     H_    0.944560 0.164379 0.058593 0.142970
H40   H     H_    0.156785 0.705283 0.939907 0.163663
H41   H     H_    0.842369 0.703747 0.060907 0.181236
H42   H     H_    0.658824 0.206687 0.939960 0.177302
H43   H     H_    0.340453 0.207197 0.059543 0.176756
H44   H     H_    0.147984 0.690388 0.065324 0.131814
H45   H     H_    0.483427 0.026683 0.561212 0.122058
H46   H     H_    0.853547 0.685200 0.936130 0.137788
H47   H     H_    0.648016 0.189339 0.064997 0.138416
H48   H     H_    0.350484 0.192105 0.934394 0.136941
H49   H     H_    0.822120 0.892237 0.057650 0.154147
H50   H     H_    0.180268 0.891918 0.941937 0.153736
H51   H     H_    0.322374 0.394283 0.058648 0.154237
H52   H     H_    0.677283 0.394244 0.941222 0.153693
H53   H     H_    0.406845 0.475440 0.077744 0.124158
H54   H     H_    0.593047 0.475804 0.921668 0.124490
H55   H     H_    0.906669 0.973453 0.077247 0.124790
H56   H     H_    0.492703 0.026142 0.429871 0.121590
H57   H     H_    0.093769 0.966943 0.922920 0.119792
H58   H     H_    0.421357 0.511828 0.951526 0.140014
H59   H     H_    0.577978 0.512917 0.047781 0.140154
H60   H     H_    0.921563 0.010639 0.951407 0.137823
H61   H     H_    0.079303 0.006012 0.048921 0.139155
H62   H     H_    0.338697 0.423568 0.932102 0.149708
H63   H     H_    0.660520 0.424600 0.067544 0.149286
H64   H     H_    0.838570 0.923529 0.931362 0.149942
H65   H     H_    0.163387 0.921756 0.068326 0.149919
H66   H     H_    0.542182 0.093672 0.086216 0.174440
H67   H     H_    0.983470 0.526686 0.561231 0.121363
H68   H     H_    0.477361 0.083763 0.156855 0.173765
H69   H     H_    0.430333 0.271021 0.133103 0.143120
H70   H     H_    0.521126 0.294852 0.110065 0.094496
H71   H     H_    0.455788 0.269661 0.040305 0.156563
H72   H     H_    0.456538 0.094187 0.915399 0.174707
H73   H     H_    0.521097 0.085184 0.844490 0.173742
H74   H     H_    0.567660 0.272346 0.868547 0.140975
H75   H     H_    0.477220 0.295789 0.893093 0.094478
H76   H     H_    0.543643 0.270037 0.961725 0.157108
H77   H     H_    0.045998 0.593560 0.083950 0.166512
H78   H     H_    0.992719 0.526146 0.429884 0.121661
H79   H     H_    0.980720 0.586831 0.154285 0.179971
H80   H     H_    0.934706 0.774631 0.128772 0.143760
H81   H     H_    0.026524 0.796117 0.109490 0.098994
H82   H     H_    0.963708 0.774189 0.037073 0.141571
H83   H     H_    0.025418 0.697846 0.946612 0.120632
H84   H     H_    0.961834 0.590388 0.913762 0.175427
H85   H     H_    0.045562 0.573373 0.802144 0.192352
H86   H     H_    0.989700 0.704664 0.812344 0.084435
H87   H     H_    0.082052 0.713816 0.835133 0.151310
H88   H     H_    0.069531 0.106636 0.435965 0.172262
O1    O     O_R   0.214300 0.709080 0.827500 -0.530664
O2    O     O_R   0.543340 0.717710 0.330180 -0.532099
O3    O     O_R   0.956660 0.217710 0.669820 -0.526260
O4    O     O_R   0.043340 0.217710 0.330180 -0.532176
O5    O     O_R   0.320590 0.625770 0.672930 -0.501876
O6    O     O_R   0.679410 0.625770 0.327070 -0.508036
O7    O     O_R   0.820590 0.125770 0.672930 -0.502091
O8    O     O_R   0.179410 0.125770 0.327070 -0.507996
O9    O     O_3   0.334270 0.834280 0.749190 -0.283096
O10   O     O_3   0.665730 0.834280 0.250810 -0.281406
O11   O     O_3   0.834270 0.334280 0.749190 -0.285760
O12   O     O_R   0.785700 0.709080 0.172500 -0.521583
O13   O     O_3   0.165730 0.334280 0.250810 -0.281400
O14   O     O_R   0.236190 0.958390 0.823150 -0.518669
O15   O     O_R   0.763810 0.958390 0.176850 -0.518558
O16   O     O_R   0.736190 0.458390 0.823150 -0.518763
O17   O     O_R   0.263810 0.458390 0.176850 -0.518892
O18   O     O_R   0.332090 0.075280 0.831290 -0.539730
O19   O     O_R   0.667910 0.075280 0.168710 -0.539975
O20   O     O_R   0.832090 0.575280 0.831290 -0.537507
O21   O     O_R   0.167910 0.575280 0.168710 -0.540085
O22   O     O_R   0.446280 0.918040 0.826620 -0.531698
O23   O     O_R   0.714300 0.209080 0.827500 -0.520981
O24   O     O_R   0.553720 0.918040 0.173380 -0.532761
O25   O     O_R   0.946280 0.418040 0.826620 -0.513661
O26   O     O_R   0.053720 0.418040 0.173380 -0.531445
O27   O     O_R   0.457080 0.716270 0.831760 -0.523011
O28   O     O_R   0.542920 0.716270 0.168240 -0.522661
O29   O     O_R   0.957080 0.216270 0.831760 -0.529006
O30   O     O_R   0.042920 0.216270 0.168240 -0.522694
O31   O     O_R   0.320980 0.624440 0.823040 -0.486036
O32   O     O_R   0.679020 0.624440 0.176960 -0.485836
O33   O     O_R   0.820980 0.124440 0.823040 -0.487374
O34   O     O_R   0.285700 0.209080 0.172500 -0.520908
O35   O     O_R   0.179020 0.124440 0.176960 -0.486029
O36   O     O_R   0.213880 0.710510 0.665560 -0.519060
O37   O     O_R   0.786120 0.710510 0.334440 -0.511045
O38   O     O_R   0.713880 0.210510 0.665560 -0.516504
O39   O     O_R   0.286120 0.210510 0.334440 -0.511224
O40   O     O_R   0.235800 0.959720 0.673040 -0.525999
O41   O     O_R   0.764200 0.959720 0.326960 -0.520050
O42   O     O_R   0.735800 0.459720 0.673040 -0.525887
O43   O     O_R   0.264200 0.459720 0.326960 -0.520080
O44   O     O_R   0.331670 0.076720 0.669350 -0.522996
O45   O     O_R   0.445900 0.919370 0.676500 -0.508281
O46   O     O_R   0.668330 0.076720 0.330650 -0.521458
O47   O     O_R   0.831670 0.576720 0.669350 -0.523431
O48   O     O_R   0.168330 0.576720 0.330650 -0.521460
O49   O     O_3   0.437920 0.042652 0.056400 -0.577669
O50   O     O_3   0.561016 0.043387 0.944559 -0.578226
O51   O     O_3   0.941603 0.546689 0.053677 -0.587714
O52   O     O_3   0.066283 0.526612 0.935985 -0.571441
O53   O     O_R   0.554100 0.919370 0.323500 -0.509261
O54   O     O_R   0.945900 0.419370 0.676500 -0.511025
O55   O     O_R   0.054100 0.419370 0.323500 -0.509061
O56   O     O_R   0.456660 0.717710 0.669820 -0.526373

loop_
_geom_bond_atom_site_label_1
_geom_bond_atom_site_label_2
_ccdc_geom_bond_type
C54   H49   S    
C87   C91   A    
C35   C53   S    
C10   C124  S    
C3    O48   A    
C10   O7    A    
C17   C85   S    
C14   C21   S    
C126  O44   A    
C84   C86   S    
C55   C59   S    
C117  O31   A    
C119  O12   A    
C100  C104  A    
C37   C42   A    
C31   H81   S    
C89   C106  A    
Cr5   O12   S    
C8    O36   A    
C102  H11   S    
Cr1   O9    S    
C8    O5    A    
C14   O50   S    
C119  O32   A    
C58   H64   S    
C53   H54   S    
C73   C75   A    
Cr8   O22   S    
C26   H66   S    
C18   H12   S    
C52   O20   A    
C32   H84   S    
C45   H42   S    
C56   H58   S    
C7    O4    A    
C39   C61   A    
C43   H40   S    
C40   C58   S    
C70   O28   A    
C99   C116  S    
C63   C118  S    
C110  H24   S    
Cr4   O30   S    
Cr3   O7    S    
C9    O37   A    
C17   C21   S    
C19   C23   S    
C111  H20   S    
C74   H36   S    
C16   C20   S    
Cr7   O43   S    
C90   C126  S    
C60   C117  S    
Cr8   O44   S    
Cr4   O8    S    
C2    C52   S    
Cr4   O35   S    
C95   C122  A    
Cr12  O5    S    
C42   C64   A    
C82   H5    S    
C7    O55   A    
C25   C107  S    
C31   H80   S    
C89   C127  S    
C84   H7    S    
C68   C77   A    
C107  H39   S    
C128  O42   A    
C33   H87   S    
Cr2   O32   S    
Cr5   O37   S    
C33   H85   S    
Cr7   O13   S    
C16   O52   S    
C4    C66   S    
C55   H57   S    
C9    C123  S    
C53   H52   S    
C120  O33   A    
C43   C47   A    
C44   H41   S    
C44   C48   A    
C34   C118  A    
C65   C79   A    
C101  H10   S    
Cr8   O45   S    
C27   H69   S    
C50   H48   S    
C98   C124  A    
C34   C51   S    
C4    O45   A    
C29   H75   S    
Cr1   O14   S    
C12   C22   S    
C45   C62   A    
C3    O43   A    
C22   C85   S    
C20   H34   S    
C111  H25   S    
Cr10  O25   S    
C110  C114  S    
C20   C96   S    
C57   H59   S    
C126  O40   A    
Cr12  O56   S    
C92   C97   A    
C24   C50   A    
C63   O17   A    
C116  H30   S    
Cr11  O26   S    
C51   H53   S    
C108  H17   S    
C21   C69   S    
C128  O47   A    
C121  O34   A    
C24   C37   A    
Cr8   O18   S    
Cr10  O11   S    
Cr12  O27   S    
C19   H23   S    
Cr6   O16   S    
Cr1   O40   S    
C38   C60   A    
C85   H37   S    
C105  H15   S    
C67   C81   A    
C16   C23   S    
C106  H16   S    
C70   O24   A    
C112  C116  S    
Cr9   O24   S    
C51   H51   S    
Cr3   O3    S    
C28   H73   S    
C10   O38   A    
C116  H35   S    
C18   C22   S    
C72   O26   A    
C86   H8    S    
C42   C59   S    
C44   C61   A    
C71   O29   A    
Cr10  O47   S    
C15   O51   S    
C90   C108  A    
C115  H33   S    
C88   C105  A    
C92   C110  S    
C98   C115  S    
C117  O1    A    
Cr12  O9    S    
C4    O56   A    
C74   C85   S    
C89   C93   A    
Cr11  O13   S    
C36   C54   S    
C1    O14   A    
C7    C67   S    
C37   C55   S    
C38   C56   S    
C1    C24   S    
C127  O41   A    
C5    O2    A    
C97   C114  S    
C12   O49   S    
C22   C70   S    
Cr3   O33   S    
C19   C107  S    
C2    C35   A    
C68   C80   A    
Cr6   O11   S    
Cr7   O17   S    
C76   C84   S    
C13   C41   S    
C6    O54   A    
C15   C19   S    
C112  H21   S    
C26   C27   S    
C41   O15   A    
C28   C29   S    
C11   C125  S    
C109  H22   S    
C30   C31   S    
Cr9   O19   S    
C20   C25   S    
Cr2   O2    S    
C64   C121  S    
Cr9   O46   S    
C17   H1    S    
C71   O25   A    
C47   C118  A    
C12   C17   S    
C62   C120  S    
C59   H65   S    
Cr9   O53   S    
Cr8   O9    S    
Cr6   O23   S    
C102  C124  A    
C90   C94   A    
C66   C78   A    
C23   C71   S    
C99   C125  A    
C33   H86   S    
C53   C57   S    
C82   H3    S    
C2    C48   A    
Cr2   O6    S    
C27   H70   S    
C35   C39   A    
C83   H6    S    
C49   H47   S    
C45   C49   A    
C112  H26   S    
C57   H63   S    
C78   H45   S    
C69   O22   A    
C93   C111  S    
C63   O21   A    
C96   C107  S    
Cr6   O42   S    
C73   C82   S    
C32   H83   S    
C86   H2    S    
C11   O8    A    
C54   H55   S    
C9    O6    A    
C47   H44   S    
C113  H27   S    
C114  H28   S    
C100  H9    S    
C28   H72   S    
C32   C33   S    
C75   C83   S    
C29   H74   S    
C66   C75   A    
C15   C25   S    
C87   C104  A    
Cr4   O13   S    
C97   C123  A    
C82   C83   S    
C11   O39   A    
C104  H14   S    
C26   O49   S    
Cr5   O15   S    
C30   H79   S    
C39   C57   S    
Cr6   O38   S    
C72   O30   A    
Cr12  O31   S    
C61   C119  S    
C14   C18   S    
C120  O23   A    
C115  H29   S    
C8    C122  S    
C65   C73   A    
C113  H31   S    
C114  H32   S    
C58   H60   S    
C30   O51   S    
C101  C123  A    
C5    O53   A    
C1    O18   A    
C52   O16   A    
C83   H4    S    
C56   H62   S    
C15   C16   S    
C31   H82   S    
Cr1   O1    S    
C40   C62   A    
C23   C96   S    
C51   C56   S    
C94   C112  S    
Cr9   O10   S    
Cr3   O29   S    
C103  H13   S    
C88   C92   A    
Cr3   O11   S    
C103  C108  A    
C32   O52   S    
C109  C113  S    
C6    C68   S    
C18   C74   S    
C6    O3    A    
C41   O19   A    
Cr7   O39   S    
Cr10  O54   S    
C103  C125  A    
C109  H18   S    
Cr4   O4    S    
C101  C105  A    
C3    C87   S    
C55   H50   S    
C36   C40   A    
C76   C77   A    
C13   C36   A    
C5    C65   S    
C78   C79   A    
C29   H76   S    
C91   C95   A    
C21   C74   S    
C79   H56   S    
C46   C64   A    
C46   H43   S    
C48   H46   S    
C59   H61   S    
Cr5   O41   S    
C27   H71   S    
C25   C72   S    
C43   C60   A    
Cr7   O34   S    
C30   H77   S    
C13   C49   A    
C12   C14   S    
C77   C86   S    
Cr11  O21   S    
Cr11  O48   S    
Cr5   O10   S    
C127  O46   A    
C84   H88   S    
C69   O27   A    
C54   C58   S    
Cr2   O10   S    
C34   C38   A    
C26   H68   S    
Cr1   O36   S    
C80   C81   A    
C28   O50   S    
C46   C50   A    
Cr11  O55   S    
C91   C109  S    
C88   C128  S    
C121  O35   A    
C94   C99   A    
C95   C113  S    
C81   H78   S    
C102  C106  A    
C100  C122  A    
Cr10  O20   S    
C80   H67   S    
C111  C115  S    
C67   C76   A    
C96   H38   S    
C93   C98   A    
C110  H19   S    
Cr2   O28   S    
