data_str_m2_o2_o10_f0_pcu.sym.235
_audit_creation_date              2012-12-10T18:33:34-0500
_audit_creation_method            fapswitch 2.2
_symmetry_space_group_name_H-M    P1
_symmetry_Int_Tables_number       1
_space_group_crystal_system       triclinic
_cell_length_a                    8.769281
_cell_length_b                    15.172285
_cell_length_c                    14.006439
_cell_angle_alpha                 89.735489
_cell_angle_beta                  97.289514
_cell_angle_gamma                 92.556432
_cell_volume                      1846.65458258

loop_
_atom_site_label
_atom_site_type_symbol
_atom_type_description
_atom_site_fract_x
_atom_site_fract_y
_atom_site_fract_z
_atom_type_partial_charge
C1    C     C_R   0.504526 0.330094 0.501052 0.943073
C2    C     C_R   0.495487 0.669905 0.498958 0.942785
C3    C     C_R   0.596994 0.564030 0.118543 0.312405
C4    C     C_R   0.403060 0.435980 0.881479 0.312010
C5    C     C_R   0.596902 0.557703 0.219252 0.074321
C6    C     C_R   0.403131 0.442291 0.780767 0.074510
C7    C     C_R   0.389418 0.451861 0.197611 0.535486
C8    C     C_R   0.610556 0.548173 0.802374 0.535038
C9    C     C_R   0.386501 0.458947 0.097958 -0.241372
C10   C     C_R   0.613473 0.541115 0.902031 -0.240923
C11   C     C_R   0.499719 0.504864 0.054787 -0.002276
C12   C     C_R   0.500301 0.495175 0.945218 -0.003168
C13   C     C_R   0.204974 0.502144 0.476527 0.895304
C14   C     C_R   0.795025 0.497872 0.523473 0.896051
C15   C     C_2   0.045049 0.521007 0.470000 0.093551
C16   C     C_2   0.954949 0.479020 0.530004 0.090481
C17   C     C_R   0.544759 0.094699 0.587891 -0.130336
C18   C     C_R   0.454815 0.905368 0.412385 -0.130377
C19   C     C_R   0.536564 0.185700 0.590968 0.396876
C20   C     C_R   0.463080 0.814364 0.409189 0.392985
C21   C     C_R   0.518450 0.233780 0.503828 -0.167347
C22   C     C_R   0.481548 0.766214 0.496266 -0.167369
C23   C     C_R   0.531383 0.189392 0.417968 -0.213759
C24   C     C_R   0.469006 0.810514 0.582232 -0.203965
C25   C     C_R   0.548081 0.098363 0.416946 0.382573
C26   C     C_R   0.452202 0.901512 0.583419 0.385017
C27   C     C_R   0.522384 0.048562 0.500538 -0.030726
C28   C     C_R   0.477576 0.951418 0.499803 -0.031733
Cu1   Cu    Cu3+1 0.500000 0.499990 0.596430 1.119115
Cu2   Cu    Cu3+1 0.500000 0.500010 0.403570 1.119138
H1    H     H_    0.567814 0.060535 0.655079 0.239229
H2    H     H_    0.431701 0.939588 0.345231 0.231995
H3    H     H_    0.540340 0.226390 0.352394 0.229609
H4    H     H_    0.460591 0.773459 0.647828 0.230029
H5    H     H_    0.666510 0.604034 0.266242 0.239180
H6    H     H_    0.333540 0.395941 0.733792 0.240175
H7    H     H_    0.284487 0.434870 0.054196 0.248132
H8    H     H_    0.715470 0.565225 0.945779 0.248406
N1    N     N_R   0.500000 0.500020 0.258690 -0.282491
N2    N     N_R   0.500000 0.499980 0.741310 -0.282927
O1    O     O_R   0.500010 0.371450 0.581430 -0.536613
O2    O     O_R   0.499990 0.628550 0.418570 -0.536031
O3    O     O_R   0.500010 0.371460 0.418560 -0.561329
O4    O     O_R   0.499990 0.628540 0.581440 -0.561823
O5    O     O_R   0.274840 0.499990 0.562640 -0.588515
O6    O     O_R   0.725160 0.500010 0.437360 -0.588067
O7    O     O_R   0.274840 0.500000 0.399770 -0.499531
O8    O     O_R   0.725160 0.500000 0.600230 -0.499920
S1    S     S_3+6 0.994435 0.618337 0.403593 0.037217
O9    O     O_2   0.947237 0.593881 0.300053 -0.217286
O10   O     O_2   0.866599 0.664439 0.441947 -0.311590
O11   O     O_3   0.149256 0.688340 0.409870 -0.537207
H9    H     H_    0.114688 0.739736 0.370331 0.405592
S2    S     S_3+6 0.005562 0.381706 0.596433 0.041737
O12   O     O_2   0.133331 0.335567 0.558050 -0.307710
O13   O     O_2   0.052859 0.406200 0.699953 -0.215692
O14   O     O_3   0.850707 0.311733 0.590233 -0.536043
H10   H     H_    0.885160 0.260444 0.629988 0.410234
Cl1   Cl    Cl    0.551132 0.233153 0.706882 -0.452950
Cl2   Cl    Cl    0.448400 0.766986 0.293239 -0.463065
S3    S     S_3+6 0.649992 0.059775 0.324484 0.058464
O15   O     O_2   0.539775 0.041965 0.234675 -0.227099
O16   O     O_2   0.767042 0.129974 0.302597 -0.216719
O17   O     O_3   0.742899 0.967985 0.358939 -0.498073
H11   H     H_    0.779833 0.945955 0.299882 0.410868
S4    S     S_3+6 0.351463 0.939924 0.676580 0.055679
O18   O     O_2   0.266411 0.021209 0.645553 -0.238838
O19   O     O_2   0.236813 0.869063 0.700256 -0.220300
O20   O     O_3   0.476169 0.961369 0.776084 -0.480404
H12   H     H_    0.413545 0.986304 0.822618 0.418130
Cl3   Cl    Cl    0.692535 0.661159 0.082623 -0.430497
Cl4   Cl    Cl    0.307599 0.338840 0.917440 -0.423716
S5    S     S_3+6 0.224383 0.389705 0.230023 0.086527
O21   O     O_2   0.096060 0.452121 0.229320 -0.234465
O22   O     O_2   0.175802 0.321331 0.153429 -0.211793
O23   O     O_3   0.242701 0.335572 0.335036 -0.514544
H13   H     H_    0.137076 0.313954 0.343729 0.389265
S6    S     S_3+6 0.775590 0.610329 0.769953 0.087156
O24   O     O_2   0.824118 0.678738 0.846517 -0.211161
O25   O     O_2   0.903934 0.547920 0.770715 -0.235033
O26   O     O_3   0.757325 0.664418 0.664914 -0.513303
H14   H     H_    0.862949 0.686062 0.656252 0.389741

loop_
_geom_bond_atom_site_label_1
_geom_bond_atom_site_label_2
_ccdc_geom_bond_type
S4    O19   D    
C1    C21   S    
S5    O21   D    
O26   H14   S    
C7    S5    S    
C19   C21   A    
C24   C26   A    
S6    O25   D    
S4    O20   S    
C15   C16   D    
C23   H3    S    
S3    O16   D    
C1    O3    A    
C2    O4    A    
S1    O10   D    
C2    C22   S    
C20   Cl2   S    
C4    C12   A    
C18   C20   A    
C23   C25   A    
S4    O18   D    
C8    S6    S    
S5    O22   D    
S3    O15   D    
S2    O13   D    
Cu1   O8    S    
C26   S4    S    
Cu2   O7    S    
C6    N2    A    
C18   C28   A    
O23   H13   S    
C14   O6    A    
C13   O7    A    
S6    O24   D    
C14   O8    A    
C19   Cl1   S    
C24   H4    S    
Cu1   O5    S    
C17   C27   A    
S3    O17   S    
C3    Cl3   S    
Cu1   Cu2   S    
S1    O11   S    
C9    H7    S    
C25   S3    S    
C9    C11   A    
C10   C12   A    
C4    C6    A    
C20   C22   A    
C13   C15   S    
Cu1   O4    S    
C17   H1    S    
S5    O23   S    
C14   C16   S    
Cu2   O3    S    
C18   H2    S    
C4    Cl4   S    
O11   H9    S    
C1    O1    A    
C7    C9    A    
C5    N1    A    
S2    O12   D    
Cu1   O1    S    
Cu2   O6    S    
C3    C5    A    
C11   C12   S    
C25   C27   A    
C26   C28   A    
C10   H8    S    
O17   H11   S    
C21   C23   A    
C13   O5    A    
S6    O26   S    
O14   H10   S    
C2    O2    A    
C5    H5    S    
Cu1   N2    S    
C17   C19   A    
C6    H6    S    
Cu2   N1    S    
C22   C24   A    
C15   S1    S    
O20   H12   S    
C16   S2    S    
C3    C11   A    
C8    C10   A    
S1    O9    D    
C27   C28   S    
C7    N1    A    
Cu2   O2    S    
C8    N2    A    
S2    O14   S    
