data_str_m9_o12_o2_f0_sra.sym.92
_audit_creation_date              2013-03-05T15:43:54-0500
_audit_creation_method            fapswitch 2.2
_symmetry_space_group_name_H-M    P1
_symmetry_Int_Tables_number       1
_space_group_crystal_system       triclinic
_cell_length_a                    7.209246
_cell_length_b                    14.119666
_cell_length_c                    16.381409
_cell_angle_alpha                 90.000344
_cell_angle_beta                  97.38018
_cell_angle_gamma                 89.999983
_cell_volume                      1653.68463807

loop_
_atom_site_label
_atom_site_type_symbol
_atom_site_description
_atom_site_fract_x
_atom_site_fract_y
_atom_site_fract_z
_atom_type_partial_charge
O1    O     O_R   0.525340 0.338340 0.164530 -0.515850
O2    O     O_R   0.474660 0.661660 0.835470 -0.515840
O3    O     O_R   0.974660 0.838340 0.835470 -0.515874
O4    O     O_R   0.025340 0.161660 0.164530 -0.515875
O5    O     O_R   0.253520 0.352000 0.336710 -0.578418
O6    O     O_R   0.746480 0.648000 0.663290 -0.578417
O7    O     O_R   0.246480 0.852000 0.663290 -0.578421
O8    O     O_R   0.753520 0.148000 0.336710 -0.578420
O9    O     O_R   0.083330 0.168380 0.337300 -0.568613
O10   O     O_R   0.916670 0.831620 0.662700 -0.568615
O11   O     O_R   0.416670 0.668380 0.662700 -0.568610
O12   O     O_R   0.583330 0.331620 0.337300 -0.568611
C1    C     C_R   0.432440 0.368724 0.363767 0.770690
C2    C     C_R   0.567560 0.631276 0.636233 0.770691
C3    C     C_R   0.067560 0.868723 0.636232 0.770683
C4    C     C_R   0.932440 0.131276 0.363768 0.770686
O13   O     O_R   0.195840 0.349670 0.165140 -0.515159
O14   O     O_R   0.804160 0.650330 0.834860 -0.515145
O15   O     O_R   0.304160 0.849670 0.834860 -0.515172
O16   O     O_R   0.695840 0.150330 0.165140 -0.515170
C5    C     C_R   0.357201 0.370697 0.137146 0.903153
C6    C     C_R   0.642799 0.629303 0.862855 0.903150
C7    C     C_R   0.142800 0.870699 0.862854 0.903178
C8    C     C_R   0.857200 0.129302 0.137146 0.903176
O17   O     O_3   0.387830 0.193120 0.250910 -0.272244
O18   O     O_3   0.612170 0.806880 0.749090 -0.272247
O19   O     O_3   0.112170 0.693120 0.749090 -0.272207
O20   O     O_3   0.887830 0.306880 0.250910 -0.272221
V1    V     V_3+5 0.113010 0.264540 0.250910 1.227532
V2    V     V_3+5 0.886990 0.735460 0.749090 1.227548
V3    V     V_3+5 0.386990 0.764540 0.749090 1.227531
V4    V     V_3+5 0.613010 0.235460 0.250910 1.227524
H1    H     H_    0.761879 0.809288 0.269394 0.100775
H2    H     H_    0.238121 0.190712 0.730606 0.100785
H3    H     H_    0.738124 0.309290 0.730604 0.100788
H4    H     H_    0.261875 0.690710 0.269396 0.100778
C9    C     C_R   0.081348 0.194960 0.526427 -0.076227
C10   C     C_R   0.918652 0.805040 0.473573 -0.076226
C11   C     C_R   0.418653 0.694960 0.473575 -0.076226
C12   C     C_R   0.581347 0.305040 0.526425 -0.076226
C13   C     C_R   0.152421 0.227690 0.604427 -0.072261
C14   C     C_R   0.847579 0.772310 0.395573 -0.072260
C15   C     C_R   0.347579 0.727689 0.395575 -0.072261
C16   C     C_R   0.652421 0.272311 0.604425 -0.072265
C17   C     C_R   0.183839 0.164867 0.670008 -0.063103
C18   C     C_R   0.816161 0.835133 0.329992 -0.063105
C19   C     C_R   0.316159 0.664865 0.329993 -0.063109
C20   C     C_R   0.683841 0.335135 0.670007 -0.063102
C21   C     C_R   0.144392 0.068860 0.658050 -0.055323
C22   C     C_R   0.855608 0.931140 0.341950 -0.055323
C23   C     C_R   0.355606 0.568859 0.341951 -0.055322
C24   C     C_R   0.644394 0.431141 0.658049 -0.055318
C25   C     C_R   0.073819 0.033397 0.579289 0.016179
C26   C     C_R   0.926181 0.966603 0.420711 0.016179
C27   C     C_R   0.426181 0.533396 0.420711 0.016178
C28   C     C_R   0.573819 0.466604 0.579289 0.016176
C29   C     C_R   0.041653 0.097611 0.512198 0.013793
C30   C     C_R   0.958346 0.902389 0.487802 0.013792
C31   C     C_R   0.458347 0.597611 0.487802 0.013793
C32   C     C_R   0.541653 0.402389 0.512197 0.013793
C33   C     C_R   0.032109 0.935961 0.566942 -0.119002
C34   C     C_R   0.967891 0.064039 0.433058 -0.119003
C35   C     C_R   0.467892 0.435961 0.433058 -0.119002
C36   C     C_R   0.532108 0.564039 0.566942 -0.119003
H5    H     H_    0.056850 0.247047 0.477829 0.078033
H6    H     H_    0.943149 0.752953 0.522171 0.078033
H7    H     H_    0.443152 0.747046 0.522173 0.078033
H8    H     H_    0.556848 0.252953 0.477827 0.078034
H9    H     H_    0.182349 0.302296 0.614081 0.084003
H10   H     H_    0.817651 0.697704 0.385919 0.084000
H11   H     H_    0.317651 0.802295 0.385922 0.083999
H12   H     H_    0.682349 0.197705 0.614078 0.084000
H13   H     H_    0.168745 0.023110 0.711319 0.054256
H14   H     H_    0.831255 0.976890 0.288681 0.054255
H15   H     H_    0.331252 0.523109 0.288681 0.054261
H16   H     H_    0.668748 0.476891 0.711319 0.054271
C37   C     C_2   0.145968 0.944123 0.927317 -0.204052
C38   C     C_2   0.854032 0.055878 0.072682 -0.204043
C39   C     C_2   0.354028 0.444113 0.072678 -0.204029
C40   C     C_2   0.645970 0.555890 0.927327 -0.204069
C41   C     C_2   0.003367 0.957039 0.973492 0.244567
C42   C     C_2   0.996631 0.042963 0.026506 0.244560
C43   C     C_2   0.496645 0.457040 0.026511 0.244565
C44   C     C_2   0.503332 0.542948 0.973480 0.244540
H17   H     H_    0.736787 0.007259 0.067846 0.123590
H18   H     H_    0.263214 0.992741 0.932155 0.123594
H19   H     H_    0.763265 0.507304 0.932197 0.123673
H20   H     H_    0.236759 0.492714 0.067824 0.123628
N1    N     N_R   0.141623 0.113087 0.026698 0.082443
O21   O     O_R   0.312090 0.093517 0.058490 -0.341358
O22   O     O_R   0.100545 0.198274 0.999903 -0.317439
N2    N     N_R   0.858373 0.886915 0.973300 0.082440
O23   O     O_R   0.687908 0.906488 0.941506 -0.341369
O24   O     O_R   0.899445 0.801730 0.000096 -0.317469
N3    N     N_R   0.358231 0.613018 0.973231 0.082457
O25   O     O_R   0.187826 0.593380 0.941421 -0.341384
O26   O     O_R   0.399165 0.698238 0.000003 -0.317437
N4    N     N_R   0.641694 0.386946 0.026732 0.082453
O27   O     O_R   0.812125 0.406556 0.058539 -0.341372
O28   O     O_R   0.600694 0.301740 0.999968 -0.317419

loop_
_geom_bond_atom_site_label_1
_geom_bond_atom_site_label_2
_geom_bond_distance
_ccdc_geom_bond_type
O1    C5    1.318938 A    
C12   C32   1.417196 A    
C27   C31   1.420659 A    
O13   V1    1.997770 S    
O3    C7    1.318947 A    
N3    O25   1.301211 A    
C40   C44   1.364619 D    
O15   V3    1.997758 S    
C41   C42   1.496409 S    
C29   C34   1.418124 A    
C31   C36   1.418119 A    
C22   C26   1.416191 A    
C42   N1    1.439500 S    
C32   C35   1.418118 A    
O20   V1    1.729957 S    
O9    C4    1.329260 A    
C23   H15   1.081769 S    
C10   C14   1.393043 A    
C40   H19   1.083832 S    
O10   C3    1.329261 A    
C22   H14   1.081765 S    
O16   V4    1.997760 S    
O4    C8    1.318946 A    
O11   C2    1.329257 A    
C14   H10   1.082802 S    
H4    C19   1.082540 S    
C14   C18   1.389171 A    
O10   V2    1.992446 S    
C10   C30   1.417198 A    
C41   N2    1.439501 S    
C25   C33   1.417194 A    
O16   C8    1.337434 A    
C43   N4    1.439465 S    
C9    H5    1.081539 S    
O2    C6    1.318937 A    
C28   C36   1.417189 A    
O14   V2    1.997769 S    
C37   C41   1.364576 D    
N1    O22   1.301438 A    
O5    C1    1.330085 A    
O4    V1    2.069328 S    
O9    V1    1.992444 S    
C30   C33   1.418124 A    
O7    C3    1.330088 A    
O11   V3    1.992434 S    
O18   V3    1.729957 S    
O8    C4    1.330088 A    
O12   V4    1.992433 S    
O19   V2    1.729957 S    
H1    C18   1.082544 S    
C4    C34   1.476652 S    
H3    C20   1.082540 S    
C39   H20   1.083837 S    
O5    V1    2.039808 S    
O7    V3    2.039818 S    
O8    V4    2.039817 S    
C10   H6    1.081541 S    
C25   C29   1.420659 A    
C19   C23   1.393745 A    
C26   C34   1.417195 A    
O1    V4    2.069340 S    
O13   C5    1.337441 A    
C28   C32   1.420658 A    
C27   C35   1.417190 A    
O2    V3    2.069338 S    
C44   N3    1.439448 S    
O3    V2    2.069326 S    
O15   C7    1.337435 A    
O6    C2    1.330086 A    
C38   C42   1.364577 D    
C43   C44   1.496367 S    
C1    C35   1.476643 S    
C17   C21   1.393749 A    
C11   C31   1.417195 A    
C5    C39   1.477894 S    
N2    O24   1.301417 A    
C3    C33   1.476650 S    
H2    C17   1.082543 S    
C7    C37   1.477925 S    
C2    C36   1.476644 S    
C38   H17   1.083868 S    
C8    C38   1.477926 S    
O6    V2    2.039807 S    
C37   H18   1.083868 S    
N4    O28   1.301416 A    
C21   H13   1.081765 S    
C13   H9    1.082802 S    
C26   C30   1.420661 A    
C15   H11   1.082798 S    
O14   C6    1.337449 A    
C11   H7    1.081542 S    
C24   H16   1.081768 S    
C11   C15   1.393041 A    
N3    O26   1.301562 A    
C18   C22   1.393748 A    
C6    C40   1.477918 S    
C39   C43   1.364601 D    
O17   V4    1.729957 S    
C21   C25   1.416190 A    
N2    O23   1.301329 A    
C16   H12   1.082798 S    
C23   C27   1.416189 A    
C9    C13   1.393043 A    
C16   C20   1.389175 A    
C12   C16   1.393040 A    
O12   C1    1.329257 A    
N4    O27   1.301281 A    
C12   H8    1.081541 S    
C13   C17   1.389172 A    
N1    O21   1.301320 A    
C20   C24   1.393744 A    
C15   C19   1.389174 A    
C9    C29   1.417198 A    
C24   C28   1.416190 A    
