data_str_m3_o14_o17_f0_pcu.sym.94
_audit_creation_date              2012-12-10T17:43:42-0500
_audit_creation_method            fapswitch 2.2
_symmetry_space_group_name_H-M    P1
_symmetry_Int_Tables_number       1
_space_group_crystal_system       triclinic
_cell_length_a                    14.997979
_cell_length_b                    10.759923
_cell_length_c                    10.008159
_cell_angle_alpha                 88.423188
_cell_angle_beta                  86.617892
_cell_angle_gamma                 93.434225
_cell_volume                      1608.59782592

loop_
_atom_site_label
_atom_site_type_symbol
_atom_type_description
_atom_site_fract_x
_atom_site_fract_y
_atom_site_fract_z
_atom_type_partial_charge
C1    C     C_R   0.501083 0.259883 0.503485 0.903199
C2    C     C_R   0.180048 0.402074 0.566353 -0.200553
C3    C     C_R   0.232354 0.502897 0.508945 -0.026727
C4    C     C_R   0.327409 0.500053 0.503151 0.853990
C5    C     C_R   0.194261 0.602727 0.447561 -0.240303
C6    C     C_R   0.566254 0.114630 0.743513 -0.153695
C7    C     C_R   0.607928 0.047570 0.839965 -0.131183
C8    C     C_R   0.637090 0.931432 0.811694 -0.205460
C9    C     C_R   0.620239 0.878989 0.689183 0.024921
C10   C     C_R   0.561884 0.936044 0.601225 0.103625
C11   C     C_R   0.543122 0.061217 0.620325 0.125320
C12   C     C_R   0.916578 0.591415 0.421666 0.093086
C13   C     C_R   0.504763 0.126142 0.512796 -0.080776
C14   C     C_R   0.472839 0.062268 0.404670 -0.239167
C15   C     C_R   0.477153 0.936436 0.399070 -0.158243
C16   C     C_R   0.507702 0.739424 0.498168 0.891888
C17   C     C_R   0.520578 0.872730 0.495982 -0.076733
C18   C     C_R   0.405087 0.309111 0.155358 -0.116734
C19   C     C_R   0.377760 0.198903 0.097047 -0.190365
C20   C     C_R   0.385925 0.190404 0.959696 -0.224528
C21   C     C_R   0.408001 0.298669 0.881581 -0.034319
C22   C     C_R   0.455472 0.402130 0.936309 0.128557
C23   C     C_R   0.942709 0.303421 0.630354 -0.193360
C24   C     C_R   0.454984 0.404107 0.079985 0.155291
C25   C     C_R   0.541577 0.593544 0.062397 0.025111
C26   C     C_R   0.541402 0.592678 0.920813 -0.132153
C27   C     C_R   0.673270 0.499715 0.495762 0.951597
C28   C     C_R   0.824282 0.581459 0.405005 -0.041698
C29   C     C_R   0.770091 0.493677 0.485991 -0.172542
C30   C     C_R   0.808356 0.399282 0.559804 -0.065454
C31   C     C_R   0.901479 0.400062 0.564154 0.047453
C32   C     C_R   0.955046 0.498663 0.498384 0.020307
C33   C     C_2   0.785301 0.656959 0.298891 0.429747
C34   C     C_R   0.035077 0.304049 0.630786 -0.182051
C35   C     C_2   0.679795 0.782389 0.645812 0.387152
C36   C     C_2   0.588417 0.701113 0.118015 0.436625
C37   C     C_2   0.339596 0.316891 0.788044 0.535738
C38   C     C_2   0.751395 0.292287 0.618759 0.412623
C39   C     C_R   0.087791 0.402578 0.568606 0.120271
C40   C     C_R   0.048096 0.501776 0.504698 0.074814
C41   C     C_R   0.101993 0.601949 0.443233 0.118710
C42   C     C_R   0.063106 0.698468 0.376934 -0.231223
C43   C     C_R   0.971308 0.693187 0.365617 -0.121040
H1    H     H_    0.623630 0.089991 0.933321 0.165514
H2    H     H_    0.943777 0.770786 0.314776 0.193651
H3    H     H_    0.440648 0.109253 0.326256 0.162367
H4    H     H_    0.720063 0.692756 0.315371 0.129416
H5    H     H_    0.554713 0.207343 0.771990 0.179701
H6    H     H_    0.678656 0.886664 0.881329 0.142174
H7    H     H_    0.704830 0.718031 0.717977 0.063728
H8    H     H_    0.660329 0.704555 0.118765 0.064788
H9    H     H_    0.336614 0.261066 0.699644 -0.014761
H10   H     H_    0.753970 0.265228 0.723636 0.053232
H11   H     H_    0.574706 0.668733 0.861558 0.127602
H12   H     H_    0.443504 0.888529 0.320709 0.204766
H13   H     H_    0.236684 0.679029 0.400855 0.143579
H14   H     H_    0.383733 0.319004 0.257981 0.186664
H15   H     H_    0.343042 0.123709 0.156977 0.145984
H16   H     H_    0.354437 0.108908 0.916126 0.148779
H17   H     H_    0.904465 0.225427 0.680422 0.146164
H18   H     H_    0.065299 0.227650 0.680291 0.153091
H19   H     H_    0.210779 0.321415 0.604894 0.136367
H20   H     H_    0.103809 0.776976 0.331774 0.153744
N1    N     N_R   0.499150 0.498800 0.142780 -0.150085
N2    N     N_R   0.499120 0.498720 0.857170 -0.131878
O1    O     O_R   0.500000 0.316780 0.614690 -0.675266
O2    O     O_2   0.707923 0.781420 0.529560 -0.639477
O3    O     O_2   0.548549 0.793386 0.145340 -0.571779
O4    O     O_2   0.279643 0.385000 0.817831 -0.565123
O5    O     O_2   0.704184 0.230529 0.547219 -0.567392
O6    O     O_R   0.499990 0.316750 0.385360 -0.629560
O7    O     O_R   0.367850 0.499980 0.614680 -0.582028
O8    O     O_R   0.367840 0.499960 0.385350 -0.641050
O9    O     O_R   0.500010 0.683250 0.614640 -0.636041
O10   O     O_R   0.500000 0.683220 0.385310 -0.586050
O11   O     O_R   0.632160 0.500040 0.614650 -0.632408
O12   O     O_R   0.632150 0.500020 0.385320 -0.632689
O13   O     O_2   0.824523 0.674965 0.188975 -0.599892
Zn1   Zn    Zn3+2 0.500010 0.500020 0.653130 0.960052
Zn2   Zn    Zn3+2 0.499990 0.499980 0.346870 0.972396

loop_
_geom_bond_atom_site_label_1
_geom_bond_atom_site_label_2
_ccdc_geom_bond_type
C38   O5    D    
C27   O11   A    
N2    Zn1   S    
C37   O4    D    
C27   C29   S    
C16   O10   A    
C41   C42   A    
C5    H13   S    
C19   C20   A    
O11   Zn1   S    
C7    C8    A    
C14   H3    S    
O1    Zn1   S    
C1    O6    A    
C6    H5    S    
C12   C28   A    
C16   O9    A    
C28   C29   A    
C12   C43   A    
C30   C31   A    
C33   O13   D    
C10   C17   A    
C30   C38   S    
C18   C19   A    
C2    C39   A    
C8    C9    A    
C18   C24   A    
O10   Zn2   S    
C24   N1    A    
C13   C14   A    
C12   C32   A    
N1    Zn2   S    
C26   H11   S    
O6    Zn2   S    
C19   H15   S    
C23   H17   S    
C34   C39   A    
C6    C11   A    
C37   H9    S    
C16   C17   S    
C27   O12   A    
C25   C26   A    
C34   H18   S    
C25   N1    A    
C23   C31   A    
C22   N2    A    
C29   C30   A    
C18   H14   S    
C31   C32   A    
C35   O2    D    
C23   C34   A    
C35   H7    S    
C1    O1    A    
C7    H1    S    
C20   H16   S    
C43   H2    S    
C4    O8    A    
C36   H8    S    
C40   C41   A    
C28   C33   S    
O9    Zn1   S    
C33   H4    S    
C22   C24   A    
C1    C13   S    
C42   C43   A    
C3    C4    S    
C4    O7    A    
C9    C10   A    
O12   Zn2   S    
C15   C17   A    
C5    C41   A    
C26   N2    A    
C3    C5    A    
C36   O3    D    
C6    C7    A    
O7    Zn1   S    
C2    C3    A    
C11   C13   A    
C38   H10   S    
C42   H20   S    
O8    Zn2   S    
C32   C40   A    
C10   C11   A    
C25   C36   S    
C39   C40   A    
C21   C37   S    
C20   C21   A    
C9    C35   S    
C14   C15   A    
C21   C22   A    
C8    H6    S    
C2    H19   S    
C15   H12   S    
