data_str_m9_o17_o22_f0_sra.sym.85
_audit_creation_date              2012-12-11T15:21:43-0500
_audit_creation_method            fapswitch 2.2
_symmetry_space_group_name_H-M    P1
_symmetry_Int_Tables_number       1
_space_group_crystal_system       triclinic
_cell_length_a                    18.815748
_cell_length_b                    7.256805
_cell_length_c                    18.193118
_cell_angle_alpha                 89.999161
_cell_angle_beta                  108.093338
_cell_angle_gamma                 89.9999
_cell_volume                      2361.29304652

loop_
_atom_site_label
_atom_site_type_symbol
_atom_type_description
_atom_site_fract_x
_atom_site_fract_y
_atom_site_fract_z
_atom_type_partial_charge
O1    O     O_R   0.562310 0.505770 0.439670 -0.540991
O2    O     O_R   0.437690 0.005770 0.560330 -0.541003
O3    O     O_R   0.411650 0.169150 0.405330 -0.466979
O4    O     O_R   0.588350 0.669150 0.594670 -0.466981
C1    C     C_R   0.386285 0.346673 0.381710 0.738676
C2    C     C_R   0.613713 0.846672 0.618294 0.738695
O5    O     O_R   0.560140 0.175610 0.430010 -0.527786
O6    O     O_R   0.439860 0.675610 0.569990 -0.527794
O7    O     O_R   0.587240 0.012100 0.585200 -0.524654
O8    O     O_R   0.412760 0.512100 0.414800 -0.524655
C3    C     C_R   0.581706 0.344214 0.416239 0.759052
C4    C     C_R   0.418285 0.844214 0.583750 0.759082
O9    O     O_3   0.508720 0.341420 0.550890 -0.363042
O10   O     O_3   0.491280 0.841420 0.449110 -0.363039
V1    V     V_3+5 0.498380 0.063930 0.490560 1.710521
V2    V     V_3+5 0.501620 0.563930 0.509440 1.710529
C5    C     C_R   0.201370 0.853556 0.894032 -0.247112
C6    C     C_R   0.798656 0.353425 0.105982 -0.247004
C7    C     C_R   0.127695 0.916647 0.863035 -0.140871
C8    C     C_R   0.872313 0.416634 0.136969 -0.140888
C9    C     C_R   0.101966 0.972799 0.785216 0.400534
C10   C     C_R   0.898026 0.472885 0.214776 0.400518
C11   C     C_R   0.148842 0.952803 0.737949 -0.020796
C12   C     C_R   0.851145 0.452910 0.262039 -0.020780
C13   C     C_R   0.224559 0.899634 0.771276 -0.031877
C14   C     C_R   0.775440 0.399646 0.228716 -0.031889
C15   C     C_R   0.252003 0.858129 0.850850 0.040196
C16   C     C_R   0.748017 0.357997 0.149155 0.040207
C17   C     C_R   0.122117 0.988227 0.658331 -0.124513
C18   C     C_R   0.877854 0.488444 0.341647 -0.124507
C19   C     C_R   0.167298 0.963927 0.611101 0.418778
C20   C     C_R   0.832670 0.464155 0.388876 0.418787
C21   C     C_R   0.242643 0.905680 0.643306 -0.065754
C22   C     C_R   0.757338 0.405807 0.356676 -0.065755
C23   C     C_R   0.272558 0.887280 0.724869 -0.058791
C24   C     C_R   0.727434 0.387301 0.275117 -0.058856
C25   C     C_R   0.350246 0.856472 0.759833 0.059951
C26   C     C_R   0.649753 0.356406 0.240151 0.060269
C27   C     C_R   0.379380 0.835534 0.841552 0.087287
C28   C     C_R   0.620632 0.335470 0.158433 0.087438
C29   C     C_R   0.329323 0.826056 0.885942 0.349621
C30   C     C_R   0.670707 0.325816 0.114063 0.349456
C31   C     C_R   0.289359 0.865166 0.597503 0.409556
C32   C     C_R   0.710626 0.365293 0.402482 0.409539
C33   C     C_R   0.367243 0.854099 0.631605 -0.160050
C34   C     C_R   0.632746 0.354094 0.368378 -0.160122
C35   C     C_R   0.397020 0.851222 0.712002 -0.247003
C36   C     C_R   0.602976 0.351057 0.287979 -0.246904
H1    H     H_    0.219259 0.805439 0.952930 0.182843
H2    H     H_    0.780784 0.305250 0.047093 0.182864
H3    H     H_    0.065294 0.034479 0.631432 0.234528
H4    H     H_    0.934666 0.534775 0.368542 0.234524
H5    H     H_    0.457003 0.838153 0.735653 0.141988
H6    H     H_    0.543003 0.337762 0.264325 0.141903
C37   C     C_3   0.752230 0.759869 0.833867 0.194437
C38   C     C_3   0.247761 0.259867 0.166150 0.194439
C39   C     C_3   0.676392 0.760520 0.763272 0.183742
C40   C     C_3   0.323599 0.260503 0.236742 0.183616
H7    H     H_    0.634421 0.840686 0.781683 0.085016
H8    H     H_    0.365575 0.340645 0.218328 0.085191
C41   C     C_3   0.829556 0.849344 0.739336 0.190668
C42   C     C_3   0.170437 0.349366 0.260678 0.190630
C43   C     C_3   0.768841 0.091660 0.791819 -0.499019
C44   C     C_3   0.231151 0.591662 0.208182 -0.499006
C45   C     C_3   0.810151 0.904701 0.814688 -0.217985
C46   C     C_3   0.189841 0.404705 0.185323 -0.217908
H9    H     H_    0.808414 0.192256 0.779740 0.244412
H10   H     H_    0.191580 0.692258 0.220265 0.244398
H11   H     H_    0.753298 0.152261 0.839395 0.163642
H12   H     H_    0.246685 0.652261 0.160598 0.163632
C47   C     C_3   0.684205 0.867657 0.690744 -0.232271
C48   C     C_3   0.315789 0.367660 0.309264 -0.232261
C49   C     C_3   0.756942 0.819270 0.669923 0.254552
C50   C     C_3   0.243054 0.319283 0.330091 0.254569
C51   C     C_3   0.696824 0.072938 0.721188 0.177296
C52   C     C_3   0.303172 0.572938 0.278811 0.177317
H13   H     H_    0.647903 0.119686 0.738404 0.153250
H14   H     H_    0.352091 0.619669 0.261587 0.153234
H15   H     H_    0.857653 0.971154 0.723482 0.186321
H16   H     H_    0.142345 0.471184 0.276531 0.186313
H17   H     H_    0.760083 0.916559 0.623843 0.169187
H18   H     H_    0.239917 0.416579 0.376169 0.169189
O11   O     O_R   0.087220 0.271820 0.085230 -0.535242
O12   O     O_R   0.912780 0.771820 0.914770 -0.535239
O13   O     O_R   0.939860 0.595540 0.069990 -0.527054
O14   O     O_R   0.060140 0.095540 0.930010 -0.527057
C53   C     C_R   0.920950 0.426269 0.086550 0.756795
C54   C     C_R   0.079055 0.926271 0.913453 0.756794
O15   O     O_R   0.088340 0.601930 0.094680 -0.540338
O16   O     O_R   0.911660 0.101930 0.905320 -0.540322
O17   O     O_R   0.062310 0.765410 0.939660 -0.531794
O18   O     O_R   0.937690 0.265410 0.060340 -0.531800
C55   C     C_R   0.116647 0.430760 0.116459 0.753476
C56   C     C_R   0.883348 0.930761 0.883547 0.753483
O19   O     O_3   0.991270 0.429630 0.949130 -0.367388
O20   O     O_3   0.008730 0.929630 0.050870 -0.367389
V3    V     V_3+5 0.001620 0.707150 0.009440 1.520758
V4    V     V_3+5 0.998380 0.207150 0.990560 1.520761
C57   C     C_3   0.734253 0.831197 0.909477 -0.348049
C58   C     C_3   0.676561 0.725441 0.937837 -0.644944
H19   H     H_    0.634659 0.651452 0.890908 0.273898
H20   H     H_    0.703977 0.629154 0.985267 0.249282
H21   H     H_    0.646445 0.822678 0.964658 0.221738
H22   H     H_    0.786490 0.845915 0.958689 0.169124
H23   H     H_    0.710205 0.970876 0.899563 0.178172
C59   C     C_3   0.265745 0.331204 0.090548 -0.348222
C60   C     C_3   0.323400 0.225342 0.062177 -0.644736
H24   H     H_    0.365134 0.150808 0.109039 0.274232
H25   H     H_    0.295924 0.129519 0.014598 0.249252
H26   H     H_    0.353707 0.322532 0.035583 0.221403
H27   H     H_    0.213508 0.346005 0.041342 0.169092
H28   H     H_    0.289826 0.470851 0.100474 0.178166
Cl1   Cl    Cl    0.625816 0.544729 0.744635 -0.644560
Cl2   Cl    Cl    0.374171 0.044704 0.255386 -0.644565
Cl3   Cl    Cl    0.901693 0.679332 0.748069 -0.470219
Cl4   Cl    Cl    0.098295 0.179377 0.251952 -0.470217
Cl5   Cl    Cl    0.753933 0.608713 0.620844 -0.371685
Cl6   Cl    Cl    0.246062 0.108722 0.379175 -0.371715
Cl7   Cl    Cl    0.703651 0.233835 0.650543 -0.458492
Cl8   Cl    Cl    0.296354 0.733855 0.349451 -0.458482
Cl9   Cl    Cl    0.011079 0.066917 0.747856 -0.551114
Cl10  Cl    Cl    0.988902 0.567071 0.252127 -0.551088
Cl11  Cl    Cl    0.128111 0.036881 0.514313 -0.389166
Cl12  Cl    Cl    0.871830 0.537245 0.485647 -0.389233
Cl13  Cl    Cl    0.251295 0.777049 0.503468 -0.425857
Cl14  Cl    Cl    0.748707 0.277246 0.496527 -0.425746
C61   C     C_3   0.463568 0.833753 0.881452 -0.345810
C62   C     C_3   0.495340 0.028128 0.882541 -0.654922
H29   H     H_    0.557077 0.023023 0.901543 0.251897
H30   H     H_    0.476851 0.092884 0.824436 0.225001
H31   H     H_    0.476855 0.116422 0.923058 0.260290
H32   H     H_    0.479397 0.783797 0.941832 0.245024
H33   H     H_    0.491515 0.735452 0.852691 0.185335
C63   C     C_3   0.536455 0.334008 0.118494 -0.346294
C64   C     C_3   0.504806 0.528442 0.117435 -0.655435
H34   H     H_    0.522648 0.592323 0.175707 0.225030
H35   H     H_    0.524000 0.617245 0.077566 0.259887
H36   H     H_    0.443053 0.523700 0.097596 0.252541
H37   H     H_    0.520651 0.284275 0.058109 0.245054
H38   H     H_    0.508395 0.235807 0.147164 0.185543
Cl15  Cl    Cl    0.363969 0.787046 0.987000 -0.783619
Cl16  Cl    Cl    0.636102 0.286321 0.013030 -0.783533
C65   C     C_3   0.786771 0.558042 0.843694 -0.159026
C66   C     C_3   0.787805 0.452830 0.916156 -0.783097
H39   H     H_    0.810650 0.539731 0.967644 0.217499
H40   H     H_    0.731205 0.400197 0.911231 0.276958
H41   H     H_    0.826375 0.334670 0.925172 0.206896
H42   H     H_    0.761335 0.472063 0.792583 0.248153
H43   H     H_    0.844312 0.551577 0.843348 0.225507
C67   C     C_3   0.213215 0.058046 0.156319 -0.159047
C68   C     C_3   0.212155 0.952868 0.083842 -0.783168
H44   H     H_    0.189314 0.039807 0.032365 0.217575
H45   H     H_    0.268745 0.900203 0.088744 0.276875
H46   H     H_    0.173580 0.834725 0.074827 0.206944
H47   H     H_    0.238661 0.972039 0.207418 0.248156
H48   H     H_    0.155681 0.051589 0.156687 0.225528

loop_
_geom_bond_atom_site_label_1
_geom_bond_atom_site_label_2
_ccdc_geom_bond_type
C64   H36   S    
C47   C51   S    
C43   C45   S    
C20   Cl12  S    
O1    C3    A    
C48   C52   S    
O2    C4    A    
C62   H29   S    
C31   Cl13  S    
C2    O7    A    
O19   V4    S    
O18   V4    S    
C64   H34   S    
C27   C29   A    
C59   H28   S    
C36   H6    S    
C32   Cl14  S    
C52   Cl8   S    
O12   V3    S    
C11   C17   A    
C42   H16   S    
C23   C25   A    
C12   C14   A    
C1    C48   S    
C63   H38   S    
O14   C54   A    
C39   H7    S    
C59   C60   S    
C40   H8    S    
C65   C66   S    
O11   C55   A    
C8    C53   S    
C37   C65   S    
C68   H46   S    
C16   C30   A    
C61   H32   S    
C5    C7    A    
C43   H11   S    
O11   V4    S    
C30   Cl16  S    
C60   H24   S    
C19   C21   A    
C10   Cl10  S    
C44   H12   S    
C25   C35   A    
C26   C36   A    
C35   H5    S    
C33   C35   A    
C57   H22   S    
C68   H44   S    
O6    V2    S    
C26   C28   A    
C67   H48   S    
C53   O18   A    
C9    Cl9   S    
C60   H25   S    
C2    C47   S    
C50   H18   S    
C66   H41   S    
C50   Cl6   S    
C49   H17   S    
C37   C45   S    
C32   C34   A    
O16   C56   A    
C34   C36   A    
C59   H27   S    
O13   C53   A    
C65   H42   S    
C57   H23   S    
C43   H9    S    
C49   Cl5   S    
C42   C46   S    
C5    C15   A    
C6    C16   A    
C66   H40   S    
C7    C54   S    
C5    H1    S    
C63   H37   S    
C47   C49   S    
C4    C33   S    
C39   Cl1   S    
C41   C49   S    
C28   C63   S    
C58   H21   S    
O17   V3    S    
O15   V3    S    
C27   C61   S    
C44   C46   S    
O4    V2    S    
O5    C3    A    
C41   Cl3   S    
C51   H13   S    
C15   C29   A    
C28   C30   A    
C57   C58   S    
C54   O17   A    
O6    C4    A    
O20   V3    S    
C58   H20   S    
C44   C52   S    
C51   Cl7   S    
O1    V2    S    
O12   C56   A    
C39   C47   S    
O2    V1    S    
C31   C33   A    
C38   C59   S    
C13   C23   A    
C46   C55   S    
C48   C50   S    
C45   C56   S    
C8    C10   A    
C67   H47   S    
C37   C39   S    
C60   H26   S    
C10   C12   A    
O4    C2    A    
C38   C67   S    
C61   C62   S    
C62   H31   S    
C44   H10   S    
O3    V1    S    
C6    H2    S    
C17   H3    S    
C14   C24   A    
C64   H35   S    
C22   C32   A    
C18   H4    S    
C7    C9    A    
C67   C68   S    
C61   H33   S    
C52   H14   S    
C66   H39   S    
O3    C1    A    
C62   H30   S    
C6    C8    A    
C63   C64   S    
C13   C15   A    
C29   Cl15  S    
C14   C16   A    
C9    C11   A    
O7    V1    S    
C19   Cl11  S    
C1    O8    A    
C17   C19   A    
O8    V2    S    
C24   C26   A    
C18   C20   A    
C40   C48   S    
C43   C51   S    
C41   H15   S    
C38   C46   S    
O5    V1    S    
C58   H19   S    
C21   C23   A    
C38   C40   S    
C22   C24   A    
C68   H45   S    
O15   C55   A    
O14   V4    S    
C12   C18   A    
O13   V3    S    
C42   Cl4   S    
C41   C45   S    
C65   H43   S    
C11   C13   A    
C25   C27   A    
O9    V2    S    
C37   C57   S    
C40   Cl2   S    
O10   V1    S    
C42   C50   S    
C3    C34   S    
C21   C31   A    
O16   V4    S    
C20   C22   A    
