data_str_m9_o4_o16_f0_sra.sym.2
_audit_creation_date              2012-12-11T17:00:18-0500
_audit_creation_method            fapswitch 2.2
_symmetry_space_group_name_H-M    P1
_symmetry_Int_Tables_number       1
_space_group_crystal_system       triclinic
_cell_length_a                    6.950222
_cell_length_b                    13.639137
_cell_length_c                    20.20816
_cell_angle_alpha                 102.959717
_cell_angle_beta                  91.250911
_cell_angle_gamma                 89.680635
_cell_volume                      1866.39273306

loop_
_atom_site_label
_atom_site_type_symbol
_atom_type_description
_atom_site_fract_x
_atom_site_fract_y
_atom_site_fract_z
_atom_type_partial_charge
O1    O     O_R   0.506770 0.599700 0.449550 -0.539661
O2    O     O_R   0.179980 0.595740 0.587960 -0.550488
O3    O     O_R   0.004580 0.400300 0.550450 -0.541065
C1    C     C_R   0.349887 0.617543 0.615192 0.697498
O4    O     O_R   0.177380 0.611700 0.452380 -0.542023
O5    O     O_R   0.001970 0.416370 0.413900 -0.542369
C2    C     C_R   0.344404 0.638591 0.435920 0.693290
O6    O     O_R   0.509390 0.583630 0.586100 -0.534677
O7    O     O_3   0.337530 0.435890 0.487530 -0.371813
V1    V     V_3+5 0.064660 0.511890 0.502310 1.409596
O8    O     O_R   0.671950 0.404260 0.412040 -0.542755
C3    C     C_R   0.839767 0.383101 0.384605 0.689891
O9    O     O_R   0.674540 0.388300 0.547620 -0.538775
C4    C     C_R   0.845226 0.360659 0.563507 0.712872
V2    V     V_3+5 0.564030 0.488110 0.497690 1.424506
O10   O     O_3   0.841030 0.564110 0.512470 -0.371572
C5    C     C_R   0.009422 0.125818 0.615003 -0.160344
H1    H     H_    0.019886 0.180544 0.523679 0.105837
H2    H     H_    0.093884 0.012586 0.702365 0.125168
H3    H     H_    0.091685 0.058995 0.593361 0.109881
C6    C     C_R   0.862282 0.281338 0.601610 -0.044886
C7    C     C_R   0.745649 0.301754 0.923707 -0.159443
C8    C     C_R   0.678070 0.366315 0.884255 -0.124876
C9    C     C_R   0.705648 0.343703 0.814481 -0.162681
C10   C     C_R   0.809481 0.256927 0.782466 0.068913
C11   C     C_R   0.878417 0.190804 0.823375 0.076378
C12   C     C_R   0.849107 0.234263 0.711480 0.056246
C13   C     C_R   0.955680 0.146037 0.683257 0.151987
C14   C     C_R   0.014029 0.080370 0.723790 -0.211854
C15   C     C_R   0.976490 0.102397 0.792709 -0.208426
C16   C     C_R   0.796473 0.298977 0.668147 -0.233963
C17   C     C_R   0.967428 0.194377 0.575052 -0.168373
C18   C     C_R   0.843681 0.213470 0.894088 -0.082954
H4    H     H_    0.717412 0.367636 0.685829 0.151780
H5    H     H_    0.714265 0.318578 0.977385 0.101953
H6    H     H_    0.644487 0.396193 0.787275 0.153242
H7    H     H_    0.599380 0.433425 0.907710 0.120205
H8    H     H_    0.028658 0.050284 0.822120 0.124448
C19   C     C_R   0.713859 0.179479 0.227632 0.118051
C20   C     C_R   0.868345 0.182631 0.184722 -0.115182
C21   C     C_R   0.021564 0.247850 0.211042 -0.186974
H9    H     H_    0.143031 0.253550 0.179719 0.136343
C22   C     C_R   0.013103 0.311784 0.276251 -0.176369
H10   H     H_    0.129203 0.364419 0.293311 0.129243
C23   C     C_R   0.850744 0.312767 0.317081 -0.112189
C24   C     C_R   0.705191 0.242916 0.292161 0.102971
C25   C     C_3   0.495421 0.261030 0.284338 -0.415048
C26   C     C_3   0.504822 0.192224 0.214196 -0.402602
H11   H     H_    0.463807 0.340636 0.283211 0.164102
H12   H     H_    0.408875 0.229533 0.320283 0.175022
H13   H     H_    0.478519 0.231683 0.172300 0.167040
H14   H     H_    0.423484 0.121285 0.209682 0.168758
C27   C     C_R   0.488847 0.671306 0.734736 0.088952
C28   C     C_R   0.357465 0.685542 0.683698 -0.163871
C29   C     C_R   0.212126 0.759039 0.702699 -0.211677
H15   H     H_    0.101575 0.769278 0.666242 0.130600
C30   C     C_R   0.208227 0.820898 0.768759 -0.207166
H16   H     H_    0.096161 0.876868 0.781018 0.121264
C31   C     C_R   0.353021 0.813252 0.817055 -0.087827
C32   C     C_R   0.488658 0.736330 0.798643 0.034718
C33   C     C_3   0.701575 0.739944 0.805228 -0.444640
C34   C     C_3   0.705130 0.666172 0.736163 0.277960
H17   H     H_    0.754445 0.708195 0.848386 0.185283
H18   H     H_    0.760757 0.815056 0.803994 0.142464
H19   H     H_    0.770902 0.695429 0.694573 0.059698
C35   C     C_R   0.280027 0.886549 0.387712 -0.159269
H20   H     H_    0.275706 0.836861 0.481082 0.101912
H21   H     H_    0.241417 0.008534 0.303089 0.124026
H22   H     H_    0.244165 0.963267 0.412482 0.109778
C36   C     C_R   0.345741 0.715860 0.396310 -0.031915
C37   C     C_R   0.409907 0.684844 0.070180 -0.165181
C38   C     C_R   0.427229 0.609681 0.106279 -0.119518
C39   C     C_R   0.406125 0.632101 0.176473 -0.158080
C40   C     C_R   0.364826 0.731378 0.212573 0.077928
C41   C     C_R   0.340793 0.807433 0.174807 0.069592
C42   C     C_R   0.347432 0.757857 0.284759 0.072266
C43   C     C_R   0.302220 0.858918 0.317098 0.144105
C44   C     C_R   0.276734 0.931509 0.278802 -0.207588
C45   C     C_R   0.295461 0.906275 0.208864 -0.202871
C46   C     C_R   0.371625 0.687520 0.326182 -0.217144
C47   C     C_R   0.299196 0.815091 0.426922 -0.171569
C48   C     C_R   0.366310 0.783403 0.103621 -0.077615
H23   H     H_    0.404667 0.609507 0.305597 0.091592
H24   H     H_    0.432006 0.666275 0.015861 0.101947
H25   H     H_    0.423471 0.569868 0.200748 0.103431
H26   H     H_    0.460097 0.533472 0.079758 0.113843
H27   H     H_    0.272501 0.965096 0.181539 0.120914
O11   O     O_R   0.203450 0.916320 0.913910 -0.544810
O12   O     O_R   0.535520 0.888300 0.047620 -0.539037
O13   O     O_R   0.710860 0.083650 0.086100 -0.537747
C49   C     C_R   0.368446 0.861488 0.064209 0.690568
O14   O     O_R   0.532860 0.904250 0.912040 -0.540007
O15   O     O_R   0.708190 0.099710 0.949550 -0.536716
C50   C     C_R   0.363337 0.883445 0.884542 0.703334
O16   O     O_R   0.206120 0.900260 0.050460 -0.538970
O17   O     O_3   0.375280 0.064080 0.012470 -0.372708
V3    V     V_3+5 0.648180 0.988110 0.997690 1.420732
O18   O     O_R   0.038220 0.111740 0.952370 -0.543687
C51   C     C_R   0.866932 0.137345 0.934851 0.686020
O19   O     O_R   0.040880 0.095790 0.087940 -0.546833
C52   C     C_R   0.873344 0.117378 0.115242 0.694912
V4    V     V_3+5 0.148800 0.011950 0.002300 1.402759
O20   O     O_3   0.871820 0.935920 0.987530 -0.369084
O21   O     O_3   0.772629 0.570307 0.742315 -0.556533
C53   C     C_3   0.976506 0.571753 0.746334 0.081627
H28   H     H_    0.034473 0.645980 0.773377 0.147497
H29   H     H_    0.034413 0.551475 0.694357 0.149705
C54   C     C_3   0.052442 0.497424 0.786478 -0.737480
H30   H     H_    0.032585 0.419533 0.756977 0.227434
H31   H     H_    0.209199 0.509615 0.796792 0.184997
H32   H     H_    0.978270 0.508369 0.835706 0.233828

loop_
_geom_bond_atom_site_label_1
_geom_bond_atom_site_label_2
_ccdc_geom_bond_type
C29   H15   S    
O17   V4    S    
C21   H9    S    
C1    O6    A    
C2    C36   S    
C45   H27   S    
C25   H11   S    
C27   C28   A    
C7    H5    S    
C6    C16   A    
C9    H6    S    
C40   C42   A    
C4    C6    S    
C13   C14   A    
O5    C3    A    
C30   C31   A    
C35   H22   S    
V2    O10   S    
C5    H3    S    
C54   H30   S    
C15   H8    S    
C39   C40   A    
C33   H17   S    
C36   C47   A    
C20   C52   S    
C28   C29   A    
O8    V2    S    
C26   H13   S    
C8    C9    A    
O1    V2    S    
C31   C50   S    
O12   C49   A    
O7    V1    S    
O15   C51   A    
O13   V3    S    
O16   V4    S    
C43   C44   A    
C37   C48   A    
C31   C32   A    
O9    C4    A    
C21   C22   A    
V4    O20   S    
C46   H23   S    
O19   V4    S    
O21   C53   S    
C6    C17   A    
C27   C32   A    
O14   V3    S    
C25   H12   S    
C34   O21   S    
H21   C44   S    
C53   C54   S    
O11   C50   A    
C40   C41   A    
C12   C16   A    
C42   C43   A    
C19   C20   A    
O4    C2    A    
C44   C45   A    
C3    C23   S    
C10   C11   A    
O18   V4    S    
C36   C46   A    
C48   C49   S    
O12   V3    S    
C32   C33   S    
C18   C51   S    
C33   H18   S    
O2    C1    A    
C22   H10   S    
O13   C52   A    
C14   C15   A    
C8    H7    S    
C53   H29   S    
C27   C34   S    
C11   C18   A    
O11   V4    S    
C25   C26   S    
O17   V3    S    
O14   C50   A    
C16   H4    S    
C9    C10   A    
C22   C23   A    
C39   H25   S    
V3    O20   S    
O3    C4    A    
C19   C24   A    
C20   C21   A    
C11   C15   A    
O6    V2    S    
O9    V2    S    
H1    C17   S    
O2    V1    S    
O15   V3    S    
C37   H24   S    
C7    C18   A    
C24   C25   S    
C34   H19   S    
C1    C28   S    
O1    C2    A    
C5    C13   A    
C42   C46   A    
C38   C39   A    
O5    V1    S    
C38   H26   S    
O8    C3    A    
C41   C48   A    
H20   C47   S    
C10   C12   A    
C53   H28   S    
C54   H32   S    
C29   C30   A    
O7    V2    S    
O4    V1    S    
O3    V1    S    
V1    O10   S    
C35   C47   A    
C30   H16   S    
O19   C52   A    
C54   H31   S    
C35   C43   A    
C33   C34   S    
C49   O16   A    
C23   C24   A    
C26   H14   S    
C37   C38   A    
O18   C51   A    
C12   C13   A    
C5    C17   A    
C7    C8    A    
C41   C45   A    
C19   C26   S    
H2    C14   S    
