data_str_m9_o1_o16_f0_sra.sym.54
_audit_creation_date              2012-12-11T15:47:06-0500
_audit_creation_method            fapswitch 2.2
_symmetry_space_group_name_H-M    P1
_symmetry_Int_Tables_number       1
_space_group_crystal_system       monoclinic
_cell_length_a                    20.13998
_cell_length_b                    7.261999
_cell_length_c                    13.877252
_cell_angle_alpha                 90.0
_cell_angle_beta                  103.184036
_cell_angle_gamma                 90.0
_cell_volume                      1976.14229107

loop_
_atom_site_label
_atom_site_type_symbol
_atom_type_description
_atom_site_fract_x
_atom_site_fract_y
_atom_site_fract_z
_atom_type_partial_charge
O1    O     O_R   0.449560 0.506810 0.599700 -0.540017
O2    O     O_R   0.550440 0.006810 0.400300 -0.540017
O3    O     O_R   0.587960 0.180060 0.595760 -0.543194
O4    O     O_R   0.412040 0.680060 0.404240 -0.543193
C1    C     C_R   0.615101 0.343620 0.617037 0.705434
C2    C     C_R   0.384899 0.843620 0.382963 0.705434
O5    O     O_R   0.452380 0.177430 0.611700 -0.543854
O6    O     O_R   0.547620 0.677430 0.388300 -0.543854
O7    O     O_R   0.413900 0.001890 0.416350 -0.541375
O8    O     O_R   0.586100 0.501890 0.583650 -0.541375
C3    C     C_R   0.435815 0.345197 0.635924 0.723016
C4    C     C_R   0.564185 0.845197 0.364076 0.723016
O9    O     O_3   0.487530 0.337490 0.435890 -0.382028
O10   O     O_3   0.512470 0.837490 0.564110 -0.382028
V1    V     V_3+5 0.502310 0.064660 0.511890 1.393563
V2    V     V_3+5 0.497690 0.564660 0.488110 1.393563
C5    C     C_R   0.606208 0.758001 0.119563 -0.150753
C6    C     C_R   0.393792 0.258001 0.880437 -0.150753
H1    H     H_    0.578776 0.717825 0.046284 0.140580
H2    H     H_    0.421223 0.217825 0.953716 0.140580
C7    C     C_R   0.601535 0.846810 0.285232 -0.046306
C8    C     C_R   0.398465 0.346810 0.714768 -0.046306
C9    C     C_R   0.928597 0.853962 0.310888 -0.148534
C10   C     C_R   0.071402 0.353962 0.689112 -0.148534
C11   C     C_R   0.893589 0.825367 0.385020 -0.119994
C12   C     C_R   0.106411 0.325367 0.614980 -0.119994
C13   C     C_R   0.822829 0.811102 0.361677 -0.145270
C14   C     C_R   0.177171 0.311102 0.638323 -0.145271
C15   C     C_R   0.784806 0.832575 0.263396 0.077213
C16   C     C_R   0.215194 0.332575 0.736604 0.077213
C17   C     C_R   0.820636 0.841096 0.186277 -0.028586
C18   C     C_R   0.179364 0.341096 0.813723 -0.028586
C19   C     C_R   0.711907 0.835828 0.239182 0.026178
C20   C     C_R   0.288093 0.335828 0.760818 0.026178
C21   C     C_R   0.677297 0.784335 0.141714 0.041438
C22   C     C_R   0.322703 0.284335 0.858286 0.041438
C23   C     C_R   0.713747 0.768811 0.066598 0.101700
C24   C     C_R   0.286253 0.268811 0.933402 0.101700
C25   C     C_R   0.782270 0.826011 0.087347 -0.019901
C26   C     C_R   0.217730 0.326011 0.912653 -0.019901
C27   C     C_R   0.671910 0.889165 0.307296 0.055990
C28   C     C_R   0.328090 0.389165 0.692704 0.055990
C29   C     C_R   0.568681 0.781592 0.191053 0.115738
C30   C     C_R   0.431318 0.281592 0.808947 0.115739
C31   C     C_R   0.893663 0.858823 0.211484 -0.055905
C32   C     C_R   0.106337 0.358824 0.788516 -0.055905
H3    H     H_    0.983736 0.864222 0.330840 0.125120
H4    H     H_    0.016264 0.364222 0.669160 0.125120
H5    H     H_    0.798325 0.778950 0.421246 0.141457
H6    H     H_    0.201675 0.278950 0.578754 0.141457
H7    H     H_    0.921550 0.812357 0.461208 0.136075
H8    H     H_    0.078450 0.312357 0.538791 0.136075
C33   C     C_R   0.204583 0.008893 0.263765 0.018812
C34   C     C_R   0.795417 0.508893 0.736235 0.018812
C35   C     C_R   0.272925 0.003149 0.318648 -0.249833
C36   C     C_R   0.727075 0.503149 0.681352 -0.249833
H9    H     H_    0.292748 0.117356 0.366898 0.157470
H10   H     H_    0.707252 0.617356 0.633102 0.157470
C37   C     C_R   0.314419 0.847006 0.318185 -0.085853
C38   C     C_R   0.685581 0.347006 0.681815 -0.085853
C39   C     C_R   0.285083 0.691211 0.262438 0.166377
C40   C     C_R   0.714917 0.191211 0.737562 0.166377
C41   C     C_R   0.218027 0.700707 0.207053 -0.102189
C42   C     C_R   0.781973 0.200707 0.792947 -0.102190
H11   H     H_    0.196184 0.579757 0.170096 0.169678
H12   H     H_    0.803816 0.079757 0.829904 0.169678
C43   C     C_R   0.178432 0.859692 0.199613 -0.149590
C44   C     C_R   0.821568 0.359692 0.800387 -0.149590
O11   O     O_R   0.913920 0.203370 0.916260 -0.540470
O12   O     O_R   0.086080 0.703370 0.083740 -0.540470
O13   O     O_R   0.047620 0.535540 0.888290 -0.514575
O14   O     O_R   0.952380 0.035540 0.111710 -0.514574
C45   C     C_R   0.064106 0.367961 0.862788 0.698434
C46   C     C_R   0.935894 0.867961 0.137212 0.698434
O15   O     O_R   0.912040 0.532780 0.904220 -0.515759
O16   O     O_R   0.087960 0.032780 0.095780 -0.515759
O17   O     O_R   0.949550 0.708160 0.099720 -0.540338
O18   O     O_R   0.050450 0.208160 0.900280 -0.540338
C47   C     C_R   0.887832 0.364948 0.877181 0.766510
C48   C     C_R   0.112168 0.864948 0.122819 0.766509
O19   O     O_3   0.012480 0.375300 0.064060 -0.387345
O20   O     O_3   0.987520 0.875300 0.935940 -0.387345
V3    V     V_3+5 0.997690 0.648180 0.988110 1.543914
V4    V     V_3+5 0.002310 0.148180 0.011890 1.543914
C49   C     C_3   0.492914 0.743302 0.164510 -0.786200
H13   H     H_    0.474298 0.709247 0.084869 0.207893
H14   H     H_    0.481227 0.624461 0.207979 0.215340
H15   H     H_    0.464463 0.866261 0.180604 0.196424
C50   C     C_3   0.507085 0.243302 0.835490 -0.786200
H16   H     H_    0.525702 0.209247 0.915131 0.207893
H17   H     H_    0.518773 0.124461 0.792021 0.215340
H18   H     H_    0.535537 0.366261 0.819396 0.196424
C51   C     C_3   0.322671 0.512100 0.258383 -0.676167
H19   H     H_    0.370833 0.537777 0.234703 0.189666
H20   H     H_    0.332836 0.442605 0.331493 0.222533
H21   H     H_    0.292440 0.413864 0.204670 0.206255
C52   C     C_3   0.677329 0.012100 0.741617 -0.676166
H22   H     H_    0.629167 0.037777 0.765297 0.189665
H23   H     H_    0.667164 0.942605 0.668507 0.222533
H24   H     H_    0.707560 0.913864 0.795330 0.206255
C53   C     C_3   0.678458 0.703986 0.963437 -0.776989
H25   H     H_    0.714143 0.674896 0.915572 0.241370
H26   H     H_    0.651996 0.571324 0.968342 0.210769
H27   H     H_    0.641025 0.808840 0.926683 0.201076
C54   C     C_3   0.321542 0.203986 0.036563 -0.776988
H28   H     H_    0.285857 0.174897 0.084428 0.241370
H29   H     H_    0.348004 0.071323 0.031658 0.210769
H30   H     H_    0.358975 0.308840 0.073317 0.201075
C55   C     C_3   0.699794 0.011768 0.395990 -0.771601
H31   H     H_    0.665019 0.130055 0.396487 0.220374
H32   H     H_    0.704747 0.933055 0.465902 0.203116
H33   H     H_    0.749034 0.076758 0.393016 0.218424
C56   C     C_3   0.300206 0.511768 0.604010 -0.771600
H34   H     H_    0.334981 0.630055 0.603513 0.220374
H35   H     H_    0.295253 0.433055 0.534098 0.203116
H36   H     H_    0.250966 0.576758 0.606984 0.218424
C57   C     C_2   0.808629 0.903332 0.006789 0.700079
O21   O     O_2   0.815764 0.069924 0.003455 -0.560661
O22   O     O_R   0.829116 0.786701 0.939484 -0.666119
H37   H     H_    0.858146 0.850243 0.899121 0.298772
C58   C     C_2   0.191371 0.403332 0.993211 0.700079
O23   O     O_2   0.184236 0.569924 0.996545 -0.560661
O24   O     O_R   0.170884 0.286701 0.060516 -0.666119
H38   H     H_    0.141854 0.350242 0.100879 0.298772
C59   C     C_2   0.160849 0.160906 0.285842 0.726653
O25   O     O_2   0.100123 0.135224 0.280677 -0.571463
O26   O     O_R   0.190081 0.330453 0.319367 -0.687701
H39   H     H_    0.155552 0.421452 0.334210 0.285129
C60   C     C_2   0.839151 0.660906 0.714158 0.726653
O27   O     O_2   0.899877 0.635224 0.719323 -0.571463
O28   O     O_R   0.809919 0.830453 0.680633 -0.687701
H40   H     H_    0.844448 0.921452 0.665790 0.285130

loop_
_geom_bond_atom_site_label_1
_geom_bond_atom_site_label_2
_ccdc_geom_bond_type
C24   C26   A    
C41   H11   S    
C51   H19   S    
C9    C31   A    
C35   C37   A    
O19   V4    S    
C13   C15   A    
O1    C3    A    
O2    C4    A    
O16   V4    S    
C2    O7    A    
C5    C29   A    
C52   H22   S    
O24   H38   S    
C49   H13   S    
O5    C3    A    
C26   C58   S    
C54   H29   S    
C53   H25   S    
C42   C44   A    
C21   C23   A    
C10   C12   A    
C60   O27   D    
C6    C30   A    
C57   O22   S    
C39   C51   S    
C34   C44   A    
O17   V3    S    
C15   C19   A    
C38   C40   A    
O6    V2    S    
C39   C41   A    
C40   C42   A    
C19   C21   A    
C7    C29   A    
C14   H6    S    
C8    C30   A    
C17   C25   A    
C46   O17   A    
C20   C28   A    
C45   O18   A    
C50   H17   S    
O13   V3    S    
C56   H36   S    
C44   C47   S    
C49   H14   S    
C51   H20   S    
C27   C55   S    
C52   H23   S    
C41   C43   A    
C33   C35   A    
C23   C25   A    
C54   H30   S    
C34   C36   A    
C37   C39   A    
C9    H3    S    
C16   C20   A    
O12   C48   A    
C29   C49   S    
O4    C2    A    
C55   H33   S    
O13   C45   A    
C25   C57   S    
C4    C7    S    
C36   C38   A    
C31   C46   S    
C42   H12   S    
O4    V2    S    
C11   H7    S    
O2    V1    S    
C16   C18   A    
C12   H8    S    
C40   C52   S    
C28   C56   S    
O6    C4    A    
O1    V2    S    
C50   H18   S    
O12   V3    S    
C58   O23   D    
O14   V4    S    
C33   C59   S    
C7    C27   A    
O14   C46   A    
C51   H21   S    
C35   H9    S    
C59   O25   D    
O11   C47   A    
O28   H40   S    
C52   H24   S    
O3    V1    S    
C13   H5    S    
C56   H34   S    
C49   H15   S    
C34   C60   S    
C1    C38   S    
C18   C32   A    
C2    C37   S    
C43   C48   S    
O16   C48   A    
C10   H4    S    
O3    C1    A    
O22   H37   S    
C11   C13   A    
C54   H28   S    
C3    C8    S    
C12   C14   A    
C19   C27   A    
C24   C54   S    
C55   H32   S    
O7    V1    S    
C10   C32   A    
C14   C16   A    
C15   C17   A    
O11   V4    S    
O8    V2    S    
C57   O21   D    
C22   C24   A    
C23   C53   S    
O15   V3    S    
C8    C28   A    
O15   C47   A    
O5    V1    S    
C5    H1    S    
C20   C22   A    
C36   H10   S    
C6    H2    S    
C18   C26   A    
C33   C43   A    
C58   O24   S    
O18   V4    S    
C1    O8    A    
C9    C11   A    
C53   H26   S    
O20   V3    S    
C17   C31   A    
O9    V2    S    
C59   O26   S    
O10   V1    S    
C53   H27   S    
C5    C21   A    
C60   O28   S    
C50   H16   S    
C55   H31   S    
C6    C22   A    
C32   C45   S    
C30   C50   S    
O26   H39   S    
C56   H35   S    
