data_str_m2_o16_o22_f0_pcu.sym.129
_audit_creation_date              2013-03-05T15:55:27-0500
_audit_creation_method            fapswitch 2.2
_symmetry_space_group_name_H-M    P1
_symmetry_Int_Tables_number       1
_space_group_crystal_system       triclinic
_cell_length_a                    10.734915
_cell_length_b                    12.314859
_cell_length_c                    13.294328
_cell_angle_alpha                 116.477707
_cell_angle_beta                  77.749013
_cell_angle_gamma                 101.671336
_cell_volume                      1525.62921086

loop_
_atom_site_label
_atom_site_type_symbol
_atom_site_description
_atom_site_fract_x
_atom_site_fract_y
_atom_site_fract_z
_atom_type_partial_charge
O1    O     O_R   0.537340 0.972510 0.318130 -0.537166
O2    O     O_R   0.487200 0.806530 0.359650 -0.622496
C1    C     C_R   0.519297 0.854905 0.287256 0.796052
O3    O     O_R   0.707380 0.082980 0.479220 -0.534272
O4    O     O_R   0.657240 0.917000 0.520740 -0.617074
C2    C     C_R   0.740134 0.000578 0.500351 0.766595
Cu1   Cu    Cu3+1 0.529690 0.098270 0.475420 1.024337
Cu2   Cu    Cu3+1 0.470310 0.901730 0.524580 0.969038
O5    O     O_R   0.512800 0.193470 0.640350 -0.526560
O6    O     O_R   0.462660 0.027490 0.681870 -0.545019
O7    O     O_R   0.342760 0.083000 0.479260 -0.615627
O8    O     O_R   0.292620 0.917020 0.520780 -0.543148
C3    C     C_R   0.484914 0.145490 0.712974 0.845116
C4    C     C_R   0.260367 0.999254 0.498511 0.760106
C5    C     C_3   0.963590 0.104811 0.466962 0.211960
H1    H     H_    0.946497 0.086249 0.380518 0.091732
C6    C     C_3   0.106667 0.098139 0.460180 -0.415996
H2    H     H_    0.154444 0.074991 0.371335 0.142340
H3    H     H_    0.155449 0.188822 0.513609 0.204979
H4    H     H_    0.863899 0.102774 0.686577 0.207266
H5    H     H_    0.084004 0.121007 0.678823 0.186789
C7    C     C_3   0.902973 0.019909 0.617601 -0.346953
C8    C     C_3   0.922353 0.877076 0.410805 -0.463598
C9    C     C_3   0.878907 0.002067 0.499965 0.050383
H6    H     H_    0.862834 0.800732 0.428481 0.194689
H7    H     H_    0.909183 0.861805 0.324435 0.163888
C10   C     C_3   0.122856 0.999679 0.497697 0.105092
C11   C     C_3   0.048085 0.027956 0.618463 -0.363768
C12   C     C_3   0.064832 0.873860 0.413263 -0.387569
H8    H     H_    0.119429 0.850199 0.326597 0.150361
H9    H     H_    0.071859 0.801079 0.439062 0.194581
H10   H     H_    0.851643 0.941164 0.635850 0.177658
H11   H     H_    0.063814 0.962053 0.649392 0.192372
C13   C     C_R   0.333520 0.281563 0.014732 -0.200778
H12   H     H_    0.329274 0.101426 0.881720 0.193357
H13   H     H_    0.240812 0.469371 0.193856 0.141239
H14   H     H_    0.253851 0.254325 0.067500 0.144555
C14   C     C_R   0.469017 0.229662 0.833772 -0.155936
C15   C     C_R   0.674781 0.805740 0.112193 0.399378
C16   C     C_R   0.738529 0.714359 0.020760 -0.251041
C17   C     C_R   0.684731 0.593136 0.983858 -0.144656
C18   C     C_R   0.558513 0.559960 0.027670 0.088989
C19   C     C_R   0.496242 0.650260 0.124612 0.005452
C20   C     C_R   0.495407 0.438087 0.982468 -0.010899
C21   C     C_R   0.387009 0.403938 0.049183 0.125714
C22   C     C_R   0.328307 0.493376 0.146042 -0.198930
C23   C     C_R   0.376907 0.615563 0.178301 -0.170141
C24   C     C_R   0.530277 0.351473 0.870482 0.245930
C25   C     C_R   0.376939 0.194294 0.908895 -0.237372
C26   C     C_R   0.557216 0.772352 0.168953 -0.132511
H15   H     H_    0.746086 0.526290 0.923692 0.203665
H16   H     H_    0.833748 0.736133 0.981774 0.145070
H17   H     H_    0.321407 0.682146 0.247890 0.148601
C27   C     C_R   0.704572 0.348725 0.330263 -0.281899
H18   H     H_    0.728630 0.171619 0.311542 0.160030
H19   H     H_    0.744623 0.549611 0.296953 0.147391
H20   H     H_    0.784102 0.349011 0.264673 0.138825
N1    N     N_R   0.574690 0.246280 0.438200 -0.187968
C28   C     C_R   0.325634 0.757929 0.644610 0.622359
C29   C     C_R   0.288929 0.658819 0.674296 -0.321519
C30   C     C_R   0.354384 0.556593 0.619488 -0.188583
C31   C     C_R   0.458481 0.550571 0.533458 -0.003713
C32   C     C_R   0.493180 0.653203 0.505207 0.210242
C33   C     C_R   0.529455 0.446831 0.474670 -0.007344
C34   C     C_R   0.633131 0.447959 0.389002 0.168154
C35   C     C_R   0.665298 0.548144 0.362440 -0.271780
C36   C     C_R   0.597262 0.648186 0.419223 -0.162044
C37   C     C_R   0.502748 0.341225 0.496840 0.091576
C38   C     C_R   0.673573 0.248235 0.356337 0.154076
N2    N     N_R   0.426100 0.754320 0.561190 -0.218322
H21   H     H_    0.425616 0.332250 0.560278 0.125974
H22   H     H_    0.321317 0.483768 0.646394 0.169681
H23   H     H_    0.209251 0.660709 0.740287 0.156945
H24   H     H_    0.630636 0.719817 0.392559 0.200957
N3    N     N_R   0.932280 0.228662 0.545161 0.159462
O9    O     O_R   0.964360 0.281607 0.646947 -0.356573
O10   O     O_R   0.892358 0.293928 0.506584 -0.330573
N4    N     N_R   0.612367 0.390415 0.789189 0.109408
O11   O     O_R   0.717312 0.341414 0.735952 -0.303828
O12   O     O_R   0.579144 0.470704 0.764474 -0.358569
O13   O     O_3   0.732042 0.925577 0.154507 -0.750239
H25   H     H_    0.814235 0.932509 0.105594 0.309084
O14   O     O_3   0.261499 0.859820 0.698779 -0.721589
H26   H     H_    0.191523 0.848336 0.756574 0.284602

loop_
_geom_bond_atom_site_label_1
_geom_bond_atom_site_label_2
_geom_bond_distance
_ccdc_geom_bond_type
C5    N3    1.471472 S    
C10   C12   1.550525 S    
C13   H14   1.084070 S    
C17   C18   1.412563 A    
O13   H25   0.992057 S    
Cu1   Cu2   2.702055 S    
C14   C25   1.399609 A    
C21   C22   1.392880 A    
Cu1   O7    1.969043 S    
C31   C32   1.432013 A    
C7    H10   1.113428 S    
C33   C37   1.419684 A    
C28   O14   1.378561 S    
O4    C2    1.304038 A    
O7    C4    1.296786 A    
N4    O12   1.301869 A    
C5    H1    1.115746 S    
C29   H23   1.083147 S    
Cu1   O5    1.959610 S    
C8    H7    1.113270 S    
C24   N4    1.435799 S    
O5    C3    1.298224 A    
C31   C33   1.440211 A    
H12   C25   1.083308 S    
C8    C9    1.555874 S    
H13   C22   1.084191 S    
C4    C10   1.479580 S    
Cu1   N1    2.036435 S    
C14   C24   1.416034 A    
C23   H17   1.081899 S    
C35   C36   1.386326 A    
C28   C29   1.403430 A    
C7    C11   1.542956 S    
C18   C20   1.424693 A    
O3    Cu1   1.967540 S    
C1    C26   1.463833 S    
C32   C36   1.407769 A    
C6    C10   1.552571 S    
C15   O13   1.382625 S    
O3    C2    1.293360 A    
C15   C16   1.396803 A    
C27   C34   1.401945 A    
N4    O11   1.300027 A    
C16   H16   1.083302 S    
C29   C30   1.390012 A    
O1    C1    1.301424 A    
N3    O9    1.301914 A    
C12   H8    1.113121 S    
O14   H26   0.991764 S    
C32   N2    1.389975 A    
Cu2   O8    1.967538 S    
C2    C9    1.485062 S    
C6    H2    1.114106 S    
N1    C38   1.354448 A    
C36   H24   1.062651 S    
N3    O10   1.301108 A    
C3    C14   1.467478 S    
H18   C38   1.081386 S    
C13   C21   1.398803 A    
C30   H22   1.077795 S    
N1    C37   1.366870 A    
C16   C17   1.386057 A    
H5    C11   1.112790 S    
H4    C7    1.110718 S    
C11   H11   1.112968 S    
C7    C9    1.550121 S    
C18   C19   1.414781 A    
C8    C12   1.545596 S    
C20   C21   1.419216 A    
C5    C6    1.536107 S    
C22   C23   1.386428 A    
C5    C9    1.574859 S    
C13   C25   1.388509 A    
O1    Cu1   1.966891 S    
O2    Cu2   1.959612 S    
O8    C4    1.298382 A    
O6    C3    1.305896 A    
O4    Cu2   1.969045 S    
C19   C26   1.418387 A    
Cu2   N2    2.024546 S    
C33   C34   1.416294 A    
O2    C1    1.298977 A    
C12   H9    1.113154 S    
C27   C38   1.389003 A    
C37   H21   1.076486 S    
H19   C35   1.084713 S    
C6    H3    1.113477 S    
C8    H6    1.112472 S    
C30   C31   1.406348 A    
C28   N2    1.364878 A    
C15   C26   1.412013 A    
Cu2   O6    1.966891 S    
C34   C35   1.389405 A    
C10   C11   1.552683 S    
C19   C23   1.412635 A    
C17   H15   1.076988 S    
C20   C24   1.415393 A    
C27   H20   1.083881 S    
