data_str_m12_o4_o9_f0_bcu.sym.97
_audit_creation_date              2012-12-11T17:10:41-0500
_audit_creation_method            fapswitch 2.2
_symmetry_space_group_name_H-M    P1
_symmetry_Int_Tables_number       1
_space_group_crystal_system       triclinic
_cell_length_a                    14.791848
_cell_length_b                    14.879799
_cell_length_c                    14.872575
_cell_angle_alpha                 109.563949
_cell_angle_beta                  109.789413
_cell_angle_gamma                 109.028984
_cell_volume                      2520.78838966

loop_
_atom_site_label
_atom_site_type_symbol
_atom_type_description
_atom_site_fract_x
_atom_site_fract_y
_atom_site_fract_z
_atom_type_partial_charge
C1    C     C_R   0.185288 0.278776 0.253162 -0.134991
C2    C     C_R   0.451183 0.449737 0.776635 0.066238
C3    C     C_R   0.565682 0.196954 0.498449 0.083031
C4    C     C_R   0.198083 0.571161 0.496683 0.066752
C5    C     C_R   0.474410 0.720975 0.406891 -0.145971
C6    C     C_R   0.815499 0.566446 0.592923 -0.134814
C7    C     C_R   0.494320 0.402265 0.195519 -0.163492
C8    C     C_R   0.706621 0.799071 0.803691 -0.178053
C9    C     C_R   0.801059 0.710314 0.805613 -0.102985
C10   C     C_R   0.403866 0.494982 0.194567 -0.139045
C11   C     C_R   0.564094 0.815263 0.591373 -0.116967
C12   C     C_R   0.525435 0.432520 0.746604 -0.144977
C13   C     C_R   0.723124 0.476837 0.408653 -0.112317
C14   C     C_R   0.548268 0.824842 0.497934 0.064979
C15   C     C_R   0.827024 0.555660 0.501366 0.053391
C16   C     C_R   0.433266 0.431995 0.130941 0.082096
C17   C     C_R   0.801157 0.803281 0.868933 0.066347
C18   C     C_R   0.096714 0.593013 0.180389 -0.123223
C19   C     C_R   0.098999 0.620413 0.281022 -0.144716
C20   C     C_R   0.018912 0.545427 0.288779 0.101542
C21   C     C_R   0.935480 0.443614 0.193877 -0.170645
C22   C     C_R   0.933609 0.416652 0.093481 -0.099259
C23   C     C_R   0.504870 0.200806 0.407896 -0.154469
C24   C     C_R   0.014223 0.491189 0.086783 -0.110960
C25   C     C_R   0.928339 0.568731 0.399762 -0.226551
C26   C     C_R   0.930662 0.606177 0.500725 0.052657
C27   C     C_R   0.034439 0.676341 0.598979 0.030525
C28   C     C_R   0.126614 0.672799 0.595701 -0.230183
C29   C     C_R   0.117404 0.610016 0.495041 0.056124
C30   C     C_R   0.022580 0.574207 0.395881 0.034263
C31   C     C_R   0.997684 0.822260 0.695232 -0.136415
C32   C     C_R   0.015406 0.903599 0.791185 -0.102374
C33   C     C_R   0.085695 0.922872 0.894339 -0.089463
C34   C     C_R   0.291136 0.598447 0.589407 -0.132088
C35   C     C_R   0.136715 0.859403 0.901782 -0.113281
C36   C     C_R   0.119147 0.777725 0.805992 -0.167618
C37   C     C_R   0.049802 0.758715 0.701570 0.108275
C38   C     C_R   0.449857 0.344670 0.876100 0.162492
C39   C     C_R   0.405906 0.400632 0.832424 0.035469
C40   C     C_R   0.332423 0.425541 0.861595 -0.194271
C41   C     C_R   0.328251 0.421825 0.953017 -0.203043
C42   C     C_R   0.396972 0.392372 0.014107 0.032868
C43   C     C_R   0.444932 0.340179 0.965518 0.159377
C44   C     C_3   0.557056 0.350706 0.014666 -0.505135
C45   C     C_R   0.595648 0.290119 0.590775 -0.139741
C46   C     C_3   0.562983 0.356293 0.917482 -0.510876
C47   C     C_R   0.547897 0.925258 0.394122 0.175445
C48   C     C_R   0.593020 0.925503 0.493724 0.027189
C49   C     C_R   0.666932 0.027675 0.591581 -0.195178
C50   C     C_R   0.670759 0.123149 0.592184 -0.196363
C51   C     C_R   0.601379 0.115844 0.494665 0.026646
C52   C     C_R   0.552525 0.019454 0.394673 0.177932
C53   C     C_3   0.439559 0.957228 0.294922 -0.528033
C54   C     C_3   0.433951 0.854279 0.294534 -0.530198
C55   C     C_R   0.967062 0.074145 0.123407 0.131307
C56   C     C_R   0.199559 0.504417 0.407072 -0.150607
C57   C     C_R   0.067061 0.074204 0.167975 0.040617
C58   C     C_R   0.062670 0.972082 0.140309 -0.217330
C59   C     C_R   0.967330 0.876433 0.048686 -0.174095
C60   C     C_R   0.876806 0.883644 0.986342 -0.001619
C61   C     C_R   0.872252 0.979628 0.034853 0.130568
C62   C     C_3   0.833085 0.042667 0.986539 0.153271
C63   C     C_3   0.938017 0.145448 0.082033 -0.604203
C64   C     C_R   0.435358 0.527319 0.751033 -0.107235
C65   C     C_R   0.275923 0.184667 0.248600 -0.134549
C66   C     C_R   0.172371 0.174903 0.223171 0.067753
H1    H     H_    0.123824 0.302813 0.250304 0.117095
H2    H     H_    0.878390 0.616726 0.678771 0.116499
H3    H     H_    0.513356 0.337612 0.167518 0.108736
H4    H     H_    0.668854 0.845047 0.830627 0.157024
H5    H     H_    0.853934 0.678839 0.835103 0.086401
H6    H     H_    0.342367 0.518035 0.165576 0.086985
H7    H     H_    0.617068 0.879698 0.676699 0.111456
H8    H     H_    0.700432 0.446157 0.323107 0.095848
H9    H     H_    0.012742 0.470061 0.009030 0.100964
H10   H     H_    0.159004 0.650647 0.175002 0.107513
H11   H     H_    0.163569 0.699432 0.353034 0.117133
H12   H     H_    0.552728 0.374293 0.749295 0.112021
H13   H     H_    0.873161 0.384552 0.198067 0.135382
H14   H     H_    0.869859 0.337777 0.020950 0.134442
H15   H     H_    0.852532 0.531462 0.323178 0.122495
H16   H     H_    0.204591 0.717605 0.671884 0.126076
H17   H     H_    0.944350 0.809732 0.616008 0.116697
H18   H     H_    0.975331 0.952346 0.785619 0.108736
H19   H     H_    0.100677 0.987167 0.968438 0.120095
H20   H     H_    0.190393 0.873926 0.981897 0.109021
H21   H     H_    0.159245 0.729256 0.813425 0.109519
H22   H     H_    0.289678 0.461235 0.824187 0.127031
H23   H     H_    0.485519 0.153546 0.324249 0.106556
H24   H     H_    0.282535 0.454943 0.982728 0.124080
H25   H     H_    0.619502 0.428681 0.093983 0.197849
H26   H     H_    0.553242 0.275055 0.015277 0.209165
H27   H     H_    0.628791 0.437714 0.942521 0.201813
H28   H     H_    0.563288 0.284171 0.862634 0.200932
H29   H     H_    0.710392 0.032794 0.669646 0.131436
H30   H     H_    0.716942 0.198353 0.670729 0.126583
H31   H     H_    0.377966 0.975031 0.312276 0.197985
H32   H     H_    0.441930 0.961135 0.222340 0.199194
H33   H     H_    0.369250 0.814443 0.312053 0.196896
H34   H     H_    0.324580 0.659765 0.673599 0.097610
H35   H     H_    0.432344 0.798690 0.221340 0.196465
H36   H     H_    0.136142 0.967136 0.178369 0.127870
H37   H     H_    0.971118 0.801464 0.019358 0.128756
H38   H     H_    0.828300 0.024514 0.905663 0.088387
H39   H     H_    0.993880 0.183321 0.054904 0.177110
H40   H     H_    0.924634 0.203523 0.138873 0.233492
H41   H     H_    0.657019 0.321972 0.674922 0.086277
H42   H     H_    0.148108 0.475197 0.321362 0.121057
H43   H     H_    0.381834 0.559545 0.761971 0.094984
H44   H     H_    0.297068 0.120328 0.237161 0.093341
H45   H     H_    0.447193 0.696569 0.321508 0.112559
N1    N     N_R   0.291070 0.347930 0.293870 -0.041564
N2    N     N_R   0.708930 0.502750 0.556810 -0.043448
N3    N     N_R   0.502760 0.445970 0.293860 -0.038929
N4    N     N_R   0.652110 0.708890 0.706130 -0.040583
N5    N     N_R   0.708930 0.652070 0.706130 -0.042948
N6    N     N_R   0.445950 0.502780 0.293850 -0.038899
N7    N     N_R   0.502760 0.708900 0.556790 -0.039860
N8    N     N_R   0.652110 0.445950 0.443190 -0.040894
N9    N     N_R   0.554050 0.497220 0.706150 -0.041771
N10   N     N_R   0.497240 0.291100 0.443210 -0.037531
N11   N     N_R   0.347890 0.554050 0.556810 -0.040048
N12   N     N_R   0.554050 0.347900 0.556830 -0.039344
N13   N     N_R   0.291070 0.497250 0.443190 -0.041657
N14   N     N_R   0.497240 0.554030 0.706140 -0.039158
N15   N     N_R   0.347890 0.291110 0.293870 -0.038373
N16   N     N_R   0.445950 0.652100 0.443170 -0.040724
Ni1   Ni    Ni4+2 0.369690 0.500010 0.369700 0.212113
Ni2   Ni    Ni4+2 0.630310 0.499990 0.630300 0.208676
Ni3   Ni    Ni4+2 0.500000 0.369720 0.369720 0.212812
Ni4   Ni    Ni4+2 0.500000 0.630280 0.630280 0.227990
Br1   Br    Br    0.702854 0.039938 0.992497 -0.613245

loop_
_geom_bond_atom_site_label_1
_geom_bond_atom_site_label_2
_ccdc_geom_bond_type
C40   C41   A    
C41   C42   A    
C54   H35   S    
C3    C23   A    
C35   C36   A    
N10   Ni3   S    
C2    C12   A    
C64   H43   S    
C23   N10   A    
C20   C30   S    
C53   C54   S    
C45   N12   A    
C26   C27   A    
C62   C63   S    
N2    Ni2   S    
C18   C24   A    
C56   N13   A    
C7    N3    A    
C28   C29   A    
C1    N1    A    
C38   C39   A    
N4    Ni4   S    
C35   H20   S    
N15   Ni3   S    
N4    N5    A    
N8    Ni3   S    
C31   H17   S    
C18   C19   A    
C19   H11   S    
C33   H19   S    
C56   H42   S    
N7    Ni4   S    
C8    N4    A    
C1    H1    S    
C6    C15   A    
C12   N9    A    
C2    C39   S    
N5    Ni2   S    
C47   C48   A    
N1    Ni1   S    
C44   C46   S    
C12   H12   S    
C34   H34   S    
C23   H23   S    
C58   H36   S    
C63   H39   S    
C57   C66   S    
N1    N15   A    
C4    C29   S    
C44   H26   S    
N13   Ni1   S    
C6    H2    S    
C41   H24   S    
C59   C60   A    
C34   N11   A    
N2    N8    A    
C21   C22   A    
C4    C56   A    
C25   H15   S    
N3    Ni3   S    
C21   H13   S    
C13   N8    A    
C2    C64   A    
C1    C66   A    
C62   H38   S    
C36   H21   S    
C32   H18   S    
C4    C34   A    
N10   N12   A    
C28   H16   S    
N9    Ni2   S    
C62   Br1   S    
C11   H7    S    
C11   C14   A    
C3    C51   S    
N9    N14   A    
C15   C26   S    
C14   C48   S    
C5    H45   S    
C53   H31   S    
C58   C59   A    
C3    C45   A    
C31   C37   A    
C55   C63   S    
C60   C61   A    
C43   C44   S    
C6    N2    A    
C29   C30   A    
N14   Ni4   S    
C31   C32   A    
C46   H28   S    
C5    N16   A    
C50   C51   A    
C49   H29   S    
C63   H40   S    
C5    C14   A    
C44   H25   S    
C47   C54   S    
C9    C17   A    
C7    C16   A    
C65   C66   A    
C13   C15   A    
C49   C50   A    
C22   C24   A    
C54   H33   S    
C42   C43   A    
N11   N13   A    
N16   Ni1   S    
C16   C42   S    
N11   Ni4   S    
C39   C40   A    
C52   C53   S    
C25   C30   A    
C36   C37   A    
C18   H10   S    
C9    N5    A    
C9    H5    S    
C7    H3    S    
C24   H9    S    
C47   C52   A    
C53   H32   S    
C8    H4    S    
C8    C17   A    
C59   H37   S    
C32   C33   A    
C40   H22   S    
C19   C20   A    
C55   C57   A    
C25   C26   A    
C22   H14   S    
C51   C52   A    
C10   N6    A    
C10   C16   A    
C65   N15   A    
C50   H30   S    
C57   C58   A    
C46   H27   S    
C27   C37   S    
C48   C49   A    
C55   C61   A    
C33   C35   A    
C61   C62   S    
N6    Ni1   S    
C65   H44   S    
C38   C46   S    
N3    N6    A    
C17   C60   S    
C38   C43   A    
C20   C21   A    
C64   N14   A    
N7    N16   A    
C27   C28   A    
C11   N7    A    
N12   Ni2   S    
C45   H41   S    
C13   H8    S    
C10   H6    S    
