data_str_m3_o10_o14_f0_pcu.sym.41
_audit_creation_date              2012-12-10T16:50:09-0500
_audit_creation_method            fapswitch 2.2
_symmetry_space_group_name_H-M    P1
_symmetry_Int_Tables_number       1
_space_group_crystal_system       triclinic
_cell_length_a                    7.785362
_cell_length_b                    8.568883
_cell_length_c                    10.620218
_cell_angle_alpha                 91.084541
_cell_angle_beta                  85.739571
_cell_angle_gamma                 93.657738
_cell_volume                      705.025744995

loop_
_atom_site_label
_atom_site_type_symbol
_atom_type_description
_atom_site_fract_x
_atom_site_fract_y
_atom_site_fract_z
_atom_type_partial_charge
C1    C     C_R   0.545737 0.794672 0.496994 0.918996
C2    C     C_R   0.454279 0.205329 0.503398 0.993903
C3    C     C_R   0.498778 0.503232 0.260796 0.875143
C4    C     C_R   0.401209 0.779524 0.877518 -0.129115
C5    C     C_R   0.345959 0.908708 0.947478 -0.052456
C6    C     C_R   0.342294 0.908455 0.078585 -0.134661
C7    C     C_R   0.392169 0.778287 0.140193 -0.163745
C8    C     C_R   0.444853 0.644750 0.070672 0.101909
C9    C     C_R   0.450051 0.645307 0.938594 0.032099
C10   C     C_R   0.507783 0.512093 0.871518 -0.193269
C11   C     C_R   0.565039 0.383334 0.931751 0.369463
C12   C     C_R   0.558949 0.383726 0.060688 -0.256581
C13   C     C_R   0.497433 0.511205 0.128780 -0.153416
C14   C     C_2   0.569766 0.958202 0.495478 -0.337620
C15   C     C_2   0.430242 0.041793 0.505554 -0.381446
C16   C     C_R   0.502433 0.503166 0.739272 0.934651
Cl1   Cl    Cl    0.639194 0.216730 0.849194 -0.643410
H1    H     H_    0.986645 0.617937 0.594644 0.198627
H2    H     H_    0.407173 0.787107 0.775795 0.146520
H3    H     H_    0.307878 0.010084 0.899701 0.170502
H4    H     H_    0.301986 0.009839 0.132678 0.138639
H5    H     H_    0.390468 0.784312 0.241995 0.149399
H6    H     H_    0.600542 0.283367 0.108472 0.178731
H7    H     H_    0.701544 0.009262 0.485915 0.190084
H8    H     H_    0.298467 0.990723 0.515203 0.179656
H9    H     H_    0.013367 0.382059 0.405370 0.193218
N1    N     N_2   0.950330 0.457950 0.466250 -0.163496
N2    N     N_2   0.049670 0.542050 0.533750 -0.164375
O1    O     O_R   0.389250 0.738570 0.508280 -0.631179
O2    O     O_R   0.678390 0.711630 0.486650 -0.628700
O3    O     O_R   0.355400 0.513470 0.694050 -0.619555
O4    O     O_R   0.644540 0.486530 0.672420 -0.581840
O5    O     O_R   0.321610 0.288370 0.513350 -0.626686
O6    O     O_R   0.610750 0.261430 0.491720 -0.598330
O7    O     O_R   0.355460 0.513470 0.327580 -0.633026
O8    O     O_R   0.644600 0.486530 0.305950 -0.612273
Zn1   Zn    Zn3+2 0.306930 0.517990 0.514440 0.953609
Zn2   Zn    Zn3+2 0.693070 0.482010 0.485560 0.980031

loop_
_geom_bond_atom_site_label_1
_geom_bond_atom_site_label_2
_ccdc_geom_bond_type
C8    C9    A    
C11   C12   A    
C6    C7    A    
O4    Zn2   S    
C16   O4    A    
C7    H5    S    
C9    C10   A    
C3    C13   S    
C3    O7    A    
C2    O6    A    
O8    Zn2   S    
C7    C8    A    
C5    H3    S    
C10   C16   S    
C16   O3    A    
C2    C15   S    
C6    H4    S    
C12   H6    S    
H9    N1    S    
C8    C13   A    
C3    O8    A    
N2    Zn1   S    
C2    O5    A    
C1    O1    A    
C1    O2    A    
O7    Zn1   S    
C5    C6    A    
C15   H8    S    
C10   C11   A    
N1    Zn2   S    
O1    Zn1   S    
H1    N2    S    
C12   C13   A    
O2    Zn2   S    
C14   H7    S    
N1    N2    D    
C14   C15   D    
C11   Cl1   S    
C1    C14   S    
C4    C9    A    
O6    Zn2   S    
C4    H2    S    
O5    Zn1   S    
O3    Zn1   S    
C4    C5    A    
