data_str_m12_o4_o4_f0_bcu.sym.14
_audit_creation_date              2012-12-11T17:07:39-0500
_audit_creation_method            fapswitch 2.2
_symmetry_space_group_name_H-M    P1
_symmetry_Int_Tables_number       1
_space_group_crystal_system       triclinic
_cell_length_a                    17.177044
_cell_length_b                    17.257635
_cell_length_c                    17.354052
_cell_angle_alpha                 90.000173
_cell_angle_beta                  90.000228
_cell_angle_gamma                 90.000033
_cell_volume                      5144.35110712

loop_
_atom_site_label
_atom_site_type_symbol
_atom_type_description
_atom_site_fract_x
_atom_site_fract_y
_atom_site_fract_z
_atom_type_partial_charge
C1    C     C_R   0.395242 0.302175 0.900244 -0.163118
C2    C     C_R   0.169968 0.923054 0.356659 -0.147679
C3    C     C_R   0.685219 0.764645 0.355081 -0.183372
C4    C     C_R   0.140568 0.221131 0.803122 -0.187642
C5    C     C_R   0.314785 0.764655 0.644924 -0.183369
C6    C     C_R   0.859434 0.778842 0.803102 -0.187629
C7    C     C_R   0.685222 0.235364 0.644914 -0.183382
C8    C     C_R   0.640568 0.278866 0.696880 -0.187641
C9    C     C_R   0.814784 0.735345 0.855075 -0.183371
C10   C     C_R   0.359436 0.721157 0.696897 -0.187626
C11   C     C_R   0.185223 0.264634 0.855087 -0.183377
C12   C     C_R   0.640566 0.721145 0.303113 -0.187633
C13   C     C_R   0.104760 0.197825 0.400247 -0.163146
C14   C     C_R   0.814782 0.264647 0.144921 -0.183383
C15   C     C_R   0.359434 0.278850 0.303108 -0.187632
C16   C     C_R   0.185219 0.735355 0.144919 -0.183368
C17   C     C_3   0.925433 0.388408 0.679783 -0.332728
C18   C     C_3   0.000952 0.398628 0.724830 -0.934460
C19   C     C_3   0.674975 0.808324 0.643766 -0.312375
C20   C     C_3   0.597967 0.814259 0.600176 -0.926560
C21   C     C_3   0.074609 0.611547 0.679676 -0.332760
C22   C     C_3   0.999053 0.601329 0.724661 -0.934479
C23   C     C_3   0.324981 0.191747 0.643729 -0.312370
C24   C     C_R   0.830033 0.076945 0.356658 -0.147687
C25   C     C_3   0.401963 0.185824 0.600094 -0.926556
C26   C     C_3   0.925417 0.611575 0.320259 -0.332727
C27   C     C_3   0.000949 0.601356 0.275234 -0.934450
C28   C     C_3   0.674993 0.191704 0.356245 -0.312375
C29   C     C_3   0.597999 0.185766 0.399859 -0.926552
C30   C     C_3   0.074591 0.388432 0.320282 -0.332740
C31   C     C_3   0.999053 0.398652 0.275266 -0.934447
C32   C     C_3   0.325009 0.808292 0.356250 -0.312356
C33   C     C_3   0.401998 0.814243 0.399872 -0.926579
C34   C     C_3   0.425416 0.888429 0.179734 -0.332713
C35   C     C_R   0.895242 0.197825 0.599756 -0.163121
C36   C     C_3   0.500953 0.898644 0.224755 -0.934455
C37   C     C_3   0.174987 0.308304 0.143757 -0.312375
C38   C     C_3   0.097992 0.314248 0.100146 -0.926573
C39   C     C_3   0.574589 0.111570 0.179725 -0.332763
C40   C     C_3   0.499054 0.101348 0.224743 -0.934455
C41   C     C_3   0.825001 0.691715 0.143749 -0.312361
C42   C     C_3   0.901991 0.685776 0.100128 -0.926562
C43   C     C_3   0.425436 0.111595 0.820212 -0.332738
C44   C     C_3   0.500948 0.101368 0.775155 -0.934451
C45   C     C_3   0.174970 0.691671 0.856226 -0.312365
C46   C     C_R   0.169965 0.076943 0.643343 -0.147670
C47   C     C_3   0.097971 0.685710 0.899828 -0.926580
C48   C     C_3   0.574597 0.888442 0.820305 -0.332749
C49   C     C_3   0.499053 0.898660 0.775298 -0.934431
C50   C     C_3   0.824985 0.308256 0.856269 -0.312376
C51   C     C_3   0.901968 0.314183 0.899904 -0.926574
C52   C     C_R   0.104761 0.802174 0.599752 -0.163157
C53   C     C_R   0.830031 0.923053 0.643341 -0.147704
C54   C     C_3   0.872748 0.327256 0.718346 -0.022231
C55   C     C_3   0.675288 0.861027 0.715889 -0.038912
C56   C     C_3   0.127264 0.672697 0.718282 -0.022208
C57   C     C_R   0.669967 0.423056 0.856658 -0.147671
C58   C     C_3   0.324709 0.139021 0.715835 -0.038866
C59   C     C_3   0.872742 0.672725 0.281681 -0.022226
C60   C     C_3   0.675290 0.138990 0.284130 -0.038893
C61   C     C_3   0.127260 0.327283 0.281694 -0.022212
C62   C     C_3   0.324712 0.861006 0.284135 -0.038896
C63   C     C_3   0.372743 0.827278 0.218316 -0.022236
C64   C     C_3   0.175289 0.361014 0.215874 -0.038895
C65   C     C_3   0.627259 0.172720 0.218311 -0.022202
C66   C     C_3   0.824709 0.638998 0.215862 -0.038893
C67   C     C_3   0.372748 0.172746 0.781652 -0.022226
C68   C     C_R   0.604761 0.697825 0.900248 -0.163153
C69   C     C_3   0.175289 0.638966 0.784104 -0.038915
C70   C     C_3   0.627262 0.827294 0.781710 -0.022185
C71   C     C_3   0.824710 0.360981 0.784163 -0.038872
C72   C     C_R   0.418753 0.672384 0.857302 -0.137386
C73   C     C_R   0.302516 0.391382 0.897943 -0.137222
C74   C     C_R   0.581245 0.327618 0.857299 -0.137429
C75   C     C_R   0.697485 0.608617 0.897947 -0.137197
C76   C     C_R   0.418754 0.327616 0.142699 -0.137397
C77   C     C_R   0.302515 0.608617 0.102055 -0.137210
C78   C     C_R   0.581245 0.672383 0.142700 -0.137407
C79   C     C_R   0.330031 0.576947 0.856658 -0.147693
C80   C     C_R   0.697485 0.391383 0.102055 -0.137207
C81   C     C_R   0.918754 0.172383 0.357301 -0.137398
C82   C     C_R   0.802515 0.891383 0.397944 -0.137216
C83   C     C_R   0.081246 0.827616 0.357301 -0.137408
C84   C     C_R   0.197485 0.108617 0.397946 -0.137204
C85   C     C_R   0.918753 0.827616 0.642698 -0.137379
C86   C     C_R   0.802516 0.108618 0.602057 -0.137218
C87   C     C_R   0.081244 0.172381 0.642702 -0.137427
C88   C     C_R   0.197485 0.891383 0.602053 -0.137198
C89   C     C_R   0.318531 0.313854 0.883388 0.058349
C90   C     C_R   0.395241 0.697825 0.099754 -0.163135
C91   C     C_R   0.641363 0.361008 0.815253 0.053947
C92   C     C_R   0.681473 0.686147 0.883395 0.058359
C93   C     C_R   0.358633 0.638997 0.815256 0.053950
C94   C     C_R   0.318529 0.686146 0.116608 0.058354
C95   C     C_R   0.641363 0.638993 0.184747 0.053948
C96   C     C_R   0.681471 0.313854 0.116608 0.058358
C97   C     C_R   0.358634 0.361004 0.184745 0.053949
C98   C     C_R   0.818529 0.813854 0.383391 0.058353
C99   C     C_R   0.141365 0.861005 0.315255 0.053947
C100  C     C_R   0.181472 0.186146 0.383393 0.058357
C101  C     C_R   0.669966 0.576944 0.143343 -0.147680
C102  C     C_R   0.858635 0.138994 0.315254 0.053948
C103  C     C_R   0.818531 0.186146 0.616612 0.058349
C104  C     C_R   0.141361 0.138990 0.684748 0.053946
C105  C     C_R   0.181473 0.813853 0.616605 0.058362
C106  C     C_R   0.858633 0.861002 0.684744 0.053958
C107  C     C_R   0.755485 0.350392 0.731930 -0.006555
C108  C     C_R   0.702546 0.814554 0.825006 0.000416
C109  C     C_R   0.244529 0.649591 0.731898 -0.006541
C110  C     C_R   0.297474 0.185459 0.824973 0.000417
C111  C     C_R   0.755478 0.649601 0.268084 -0.006550
C112  C     C_R   0.604760 0.302175 0.099754 -0.163144
C113  C     C_R   0.702539 0.185451 0.175007 0.000419
C114  C     C_R   0.244524 0.350402 0.268091 -0.006548
C115  C     C_R   0.297463 0.814548 0.175010 0.000423
C116  C     C_R   0.255479 0.850399 0.231915 -0.006548
C117  C     C_R   0.202541 0.314549 0.324996 0.000420
C118  C     C_R   0.744523 0.149599 0.231911 -0.006548
C119  C     C_R   0.797464 0.685453 0.324989 0.000422
C120  C     C_R   0.255485 0.149608 0.768070 -0.006558
C121  C     C_R   0.202548 0.685445 0.674991 0.000429
C122  C     C_R   0.744527 0.850408 0.768099 -0.006543
C123  C     C_R   0.330032 0.423054 0.143341 -0.147689
C124  C     C_R   0.797473 0.314541 0.675027 0.000418
C125  C     C_R   0.677926 0.331497 0.746297 0.072413
C126  C     C_R   0.733807 0.747679 0.859335 0.055501
C127  C     C_R   0.322078 0.668506 0.746293 0.072402
C128  C     C_R   0.266204 0.252319 0.859322 0.055510
C129  C     C_R   0.677923 0.668504 0.253705 0.072407
C130  C     C_R   0.733803 0.252321 0.140670 0.055506
C131  C     C_R   0.322076 0.331494 0.253705 0.072407
C132  C     C_R   0.266198 0.747680 0.140671 0.055503
C133  C     C_R   0.177925 0.831495 0.246296 0.072408
C134  C     C_R   0.895240 0.802175 0.400245 -0.163133
C135  C     C_R   0.233804 0.247679 0.359331 0.055507
C136  C     C_R   0.822076 0.168505 0.246295 0.072407
C137  C     C_R   0.766198 0.752320 0.359328 0.055504
C138  C     C_R   0.177926 0.168501 0.753705 0.072411
C139  C     C_R   0.233808 0.752321 0.640664 0.055495
C140  C     C_R   0.822077 0.831493 0.753705 0.072402
C141  C     C_R   0.766204 0.247681 0.640678 0.055512
C142  C     C_R   0.140567 0.778854 0.196888 -0.187634
C143  C     C_R   0.314783 0.235351 0.355079 -0.183384
C144  C     C_R   0.859434 0.221148 0.196890 -0.187633
H1    H     H_    0.423619 0.247737 0.909997 0.099881
H2    H     H_    0.215497 0.962746 0.340283 0.101934
H3    H     H_    0.450961 0.793242 0.363738 0.264017
H4    H     H_    0.413188 0.875254 0.417009 0.253310
H5    H     H_    0.399214 0.778113 0.452759 0.255907
H6    H     H_    0.278121 0.825583 0.396475 0.200556
H7    H     H_    0.314470 0.746829 0.339928 0.193712
H8    H     H_    0.489057 0.923755 0.282469 0.270529
H9    H     H_    0.530866 0.842259 0.231626 0.250054
H10   H     H_    0.540487 0.937706 0.192694 0.259775
H11   H     H_    0.440252 0.871510 0.120019 0.180128
H12   H     H_    0.394729 0.944933 0.175398 0.186358
H13   H     H_    0.076382 0.252262 0.409999 0.099904
H14   H     H_    0.049037 0.293233 0.136283 0.264014
H15   H     H_    0.086789 0.375260 0.083018 0.253314
H16   H     H_    0.100775 0.278125 0.047253 0.255902
H17   H     H_    0.221867 0.325604 0.103526 0.200557
H18   H     H_    0.185536 0.246841 0.160073 0.193720
H19   H     H_    0.510952 0.076235 0.282456 0.270536
H20   H     H_    0.469137 0.157731 0.231616 0.250061
H21   H     H_    0.459524 0.062284 0.192678 0.259777
H22   H     H_    0.559751 0.128493 0.120013 0.180137
H23   H     H_    0.605278 0.055067 0.175385 0.186368
H24   H     H_    0.784504 0.037253 0.340282 0.101935
H25   H     H_    0.950950 0.706787 0.136263 0.264012
H26   H     H_    0.913193 0.624766 0.082993 0.253311
H27   H     H_    0.899202 0.721904 0.047240 0.255904
H28   H     H_    0.778116 0.674418 0.103522 0.200556
H29   H     H_    0.814453 0.753175 0.160072 0.193714
H30   H     H_    0.489020 0.076261 0.717446 0.270514
H31   H     H_    0.530866 0.157749 0.768273 0.250068
H32   H     H_    0.540493 0.062298 0.807195 0.259786
H33   H     H_    0.440307 0.128517 0.879917 0.180128
H34   H     H_    0.394746 0.055094 0.824567 0.186371
H35   H     H_    0.923619 0.252263 0.590004 0.099887
H36   H     H_    0.049016 0.706715 0.863685 0.264012
H37   H     H_    0.086779 0.624695 0.916952 0.253315
H38   H     H_    0.100742 0.721832 0.952721 0.255902
H39   H     H_    0.221849 0.674378 0.896460 0.200554
H40   H     H_    0.185510 0.753136 0.839914 0.193717
H41   H     H_    0.510940 0.923770 0.717582 0.270542
H42   H     H_    0.469137 0.842275 0.768431 0.250052
H43   H     H_    0.459526 0.937723 0.807367 0.259762
H44   H     H_    0.559771 0.871519 0.880021 0.180133
H45   H     H_    0.605284 0.944947 0.824641 0.186354
H46   H     H_    0.215495 0.037251 0.659719 0.101929
H47   H     H_    0.950932 0.293181 0.863772 0.264022
H48   H     H_    0.913167 0.375188 0.917058 0.253310
H49   H     H_    0.899170 0.278041 0.952782 0.255909
H50   H     H_    0.778095 0.325554 0.896490 0.200563
H51   H     H_    0.814434 0.246799 0.839938 0.193717
H52   H     H_    0.076381 0.747738 0.590001 0.099917
H53   H     H_    0.784502 0.962745 0.659717 0.101938
H54   H     H_    0.903451 0.272344 0.732724 0.149031
H55   H     H_    0.663218 0.923019 0.702977 0.134471
H56   H     H_    0.096542 0.727596 0.732667 0.149035
H57   H     H_    0.715497 0.462747 0.840283 0.101929
H58   H     H_    0.336789 0.077036 0.702900 0.134486
H59   H     H_    0.903452 0.727632 0.267300 0.149034
H60   H     H_    0.663217 0.077001 0.297052 0.134480
H61   H     H_    0.096547 0.272378 0.267311 0.149034
H62   H     H_    0.336785 0.922996 0.297058 0.134486
H63   H     H_    0.403455 0.772372 0.232698 0.149034
H64   H     H_    0.163217 0.423004 0.202956 0.134481
H65   H     H_    0.596547 0.227625 0.232693 0.149033
H66   H     H_    0.836784 0.577009 0.202936 0.134484
H67   H     H_    0.403450 0.227658 0.767274 0.149029
H68   H     H_    0.576383 0.752262 0.910001 0.099910
H69   H     H_    0.163221 0.576973 0.797016 0.134481
H70   H     H_    0.596547 0.772391 0.767325 0.149037
H71   H     H_    0.836790 0.422967 0.797097 0.134489
H72   H     H_    0.453796 0.721961 0.841914 0.101961
H73   H     H_    0.245528 0.417829 0.900872 0.088219
H74   H     H_    0.546204 0.278039 0.841910 0.101997
H75   H     H_    0.754472 0.582168 0.900877 0.088205
H76   H     H_    0.453797 0.278039 0.158087 0.101972
H77   H     H_    0.245527 0.582169 0.099125 0.088212
H78   H     H_    0.546203 0.721960 0.158088 0.101976
H79   H     H_    0.284503 0.537254 0.840282 0.101938
H80   H     H_    0.754472 0.417831 0.099125 0.088210
H81   H     H_    0.953797 0.221960 0.341913 0.101972
H82   H     H_    0.745528 0.917830 0.400874 0.088214
H83   H     H_    0.046204 0.778039 0.341912 0.101978
H84   H     H_    0.254472 0.082169 0.400876 0.088210
H85   H     H_    0.953797 0.778040 0.658087 0.101952
H86   H     H_    0.745528 0.082171 0.599128 0.088218
H87   H     H_    0.046203 0.221959 0.658091 0.101994
H88   H     H_    0.254473 0.917831 0.599122 0.088205
H89   H     H_    0.079313 0.766074 0.203533 0.116338
H90   H     H_    0.423619 0.752263 0.090003 0.099903
H91   H     H_    0.341992 0.187661 0.385333 0.124802
H92   H     H_    0.920687 0.233932 0.203539 0.116340
H93   H     H_    0.658009 0.812333 0.385339 0.124792
H94   H     H_    0.079310 0.233901 0.796488 0.116342
H95   H     H_    0.341993 0.812350 0.614676 0.124797
H96   H     H_    0.920685 0.766048 0.796444 0.116343
H97   H     H_    0.658011 0.187682 0.614648 0.124801
H98   H     H_    0.579311 0.266097 0.703514 0.116338
H99   H     H_    0.841993 0.687650 0.885324 0.124794
H100  H     H_    0.420686 0.733947 0.703553 0.116333
H101  H     H_    0.715495 0.537252 0.159719 0.101933
H102  H     H_    0.158011 0.312316 0.885353 0.124801
H103  H     H_    0.579311 0.733925 0.296468 0.116340
H104  H     H_    0.841991 0.312337 0.114665 0.124802
H105  H     H_    0.420686 0.266066 0.296459 0.116338
H106  H     H_    0.158009 0.687666 0.114661 0.124795
H107  H     H_    0.989033 0.423732 0.782542 0.270516
H108  H     H_    0.030868 0.342245 0.731705 0.250065
H109  H     H_    0.040494 0.437698 0.692787 0.259790
H110  H     H_    0.940293 0.371489 0.620074 0.180128
H111  H     H_    0.894744 0.444910 0.675435 0.186371
H112  H     H_    0.576381 0.247737 0.090001 0.099900
H113  H     H_    0.549030 0.793207 0.636315 0.263999
H114  H     H_    0.586734 0.875274 0.583082 0.253323
H115  H     H_    0.600754 0.778162 0.547266 0.255900
H116  H     H_    0.721841 0.825637 0.603525 0.200548
H117  H     H_    0.685541 0.746862 0.660074 0.193723
H118  H     H_    0.010926 0.576214 0.782378 0.270558
H119  H     H_    0.969137 0.657714 0.731524 0.250057
H120  H     H_    0.959536 0.562269 0.692577 0.259769
H121  H     H_    0.059798 0.628469 0.619956 0.180145
H122  H     H_    0.105296 0.555042 0.675349 0.186360
H123  H     H_    0.284503 0.462746 0.159717 0.101935
H124  H     H_    0.450927 0.206833 0.636223 0.264016
H125  H     H_    0.413168 0.124817 0.582946 0.253308
H126  H     H_    0.399160 0.221961 0.547212 0.255906
H127  H     H_    0.278090 0.174449 0.603509 0.200560
H128  H     H_    0.314428 0.253204 0.660063 0.193714
H129  H     H_    0.989047 0.576246 0.217520 0.270527
H130  H     H_    0.030864 0.657741 0.268362 0.250056
H131  H     H_    0.040485 0.562293 0.307292 0.259777
H132  H     H_    0.940259 0.628494 0.379973 0.180130
H133  H     H_    0.894729 0.555071 0.324599 0.186363
H134  H     H_    0.923619 0.747737 0.409998 0.099900
H135  H     H_    0.549045 0.206789 0.363725 0.264008
H136  H     H_    0.586789 0.124754 0.416983 0.253311
H137  H     H_    0.600789 0.221884 0.452754 0.255898
H138  H     H_    0.721874 0.174403 0.396475 0.200556
H139  H     H_    0.685545 0.253165 0.339926 0.193719
H140  H     H_    0.010947 0.423766 0.217553 0.270535
H141  H     H_    0.969138 0.342267 0.268393 0.250055
H142  H     H_    0.959521 0.437713 0.307332 0.259773
H143  H     H_    0.059757 0.371510 0.379996 0.180131
H144  H     H_    0.105279 0.444936 0.324620 0.186361
N1    N     N_R   0.425360 0.368540 0.922560 -0.035167
N2    N     N_R   0.131460 0.925360 0.422560 -0.040515
N3    N     N_R   0.074640 0.131460 0.422560 -0.035166
N4    N     N_R   0.868540 0.074640 0.422560 -0.040515
N5    N     N_R   0.925360 0.131460 0.577440 -0.035167
N6    N     N_R   0.131460 0.074640 0.577440 -0.040517
N7    N     N_R   0.074640 0.868540 0.577440 -0.035166
N8    N     N_R   0.868540 0.925360 0.577440 -0.040514
N9    N     N_R   0.425340 0.631500 0.922560 -0.037883
N10   N     N_R   0.368500 0.425340 0.922560 -0.036725
N11   N     N_R   0.574660 0.368500 0.922560 -0.037884
N12   N     N_R   0.631460 0.425360 0.922560 -0.040516
N13   N     N_R   0.631500 0.574660 0.922560 -0.036726
N14   N     N_R   0.425340 0.368500 0.077440 -0.037883
N15   N     N_R   0.368500 0.574660 0.077440 -0.036725
N16   N     N_R   0.574660 0.631500 0.077440 -0.037884
N17   N     N_R   0.631500 0.425340 0.077440 -0.036726
N18   N     N_R   0.925340 0.131500 0.422560 -0.037883
N19   N     N_R   0.868500 0.925340 0.422560 -0.036725
N20   N     N_R   0.074660 0.868500 0.422560 -0.037883
N21   N     N_R   0.131500 0.074660 0.422560 -0.036726
N22   N     N_R   0.925340 0.868500 0.577440 -0.037882
N23   N     N_R   0.574640 0.631460 0.922560 -0.035166
N24   N     N_R   0.868500 0.074660 0.577440 -0.036725
N25   N     N_R   0.074660 0.131500 0.577440 -0.037884
N26   N     N_R   0.131500 0.925340 0.577440 -0.036726
N27   N     N_R   0.368540 0.574640 0.922560 -0.040513
N28   N     N_R   0.425360 0.631460 0.077440 -0.035167
N29   N     N_R   0.631460 0.574640 0.077440 -0.040516
N30   N     N_R   0.574640 0.368540 0.077440 -0.035166
N31   N     N_R   0.368540 0.425360 0.077440 -0.040514
N32   N     N_R   0.925360 0.868540 0.422560 -0.035167
Ni1   Ni    Ni4+2 0.500000 0.369720 0.000000 0.209514
Ni2   Ni    Ni4+2 0.630280 0.500000 0.000000 0.208177
Ni3   Ni    Ni4+2 0.500000 0.630280 0.000000 0.209519
Ni4   Ni    Ni4+2 0.369720 0.500000 0.000000 0.208181
Ni5   Ni    Ni4+2 1.000000 0.869720 0.500000 0.209520
Ni6   Ni    Ni4+2 0.130280 0.000000 0.500000 0.208178
Ni7   Ni    Ni4+2 1.000000 0.130280 0.500000 0.209515
Ni8   Ni    Ni4+2 0.869720 0.000000 0.500000 0.208179

loop_
_geom_bond_atom_site_label_1
_geom_bond_atom_site_label_2
_ccdc_geom_bond_type
C82   N19   A    
C23   C58   S    
C19   C20   S    
C52   H52   S    
C44   H31   S    
C57   N12   A    
C80   N17   A    
C25   H124  S    
C76   N14   A    
C77   N15   A    
C34   H11   S    
C78   N16   A    
C96   C130  S    
C38   H15   S    
C48   H44   S    
C59   C66   S    
C114  C131  A    
N20   Ni5   S    
C42   H26   S    
N15   N28   A    
C53   C106  A    
C109  C127  A    
C55   H55   S    
C49   H42   S    
C22   H120  S    
C67   H67   S    
N8    Ni8   S    
C26   C59   S    
N2    Ni6   S    
C100  C135  S    
C63   C115  S    
C21   C22   S    
C39   C65   S    
C107  C124  A    
N21   Ni6   S    
C36   H9    S    
C45   C47   S    
C14   C144  A    
C23   H128  S    
C123  N31   A    
C84   C100  A    
C85   H85   S    
C97   C131  S    
C116  C133  A    
C15   H105  S    
C94   C132  S    
C28   H138  S    
C43   C44   S    
C37   C38   S    
C50   H51   S    
C75   H75   S    
N11   Ni1   S    
C7    H97   S    
C86   H86   S    
C1    N1    A    
C48   H45   S    
C35   N5    A    
C60   C65   S    
C30   H143  S    
C31   H142  S    
C120  C138  A    
N19   Ni8   S    
C117  C135  A    
C118  C136  A    
C27   H131  S    
C14   C130  A    
C91   C125  S    
N30   Ni1   S    
C65   C113  S    
C48   C70   S    
N23   Ni3   S    
C85   N22   A    
C29   H135  S    
C12   H103  S    
N2    N20   A    
C53   H53   S    
C32   C62   S    
C33   H5    S    
C109  C121  A    
N16   N29   A    
C22   H118  S    
C68   C92   A    
C58   C67   S    
C32   H6    S    
C58   H58   S    
C30   C61   S    
C108  C126  A    
C17   C54   S    
C62   H62   S    
C25   H125  S    
C45   H40   S    
C110  C128  A    
C37   H18   S    
C56   H56   S    
C43   H34   S    
C1    H1    S    
C47   H37   S    
C72   N9    A    
C6    C9    A    
N1    Ni1   S    
C7    C8    A    
N9    Ni3   S    
C82   H82   S    
C133  C142  A    
C44   H30   S    
C40   H20   S    
C112  N30   A    
C115  C116  A    
C77   C94   A    
C111  C119  A    
N5    N24   A    
N29   Ni2   S    
C60   H60   S    
N24   Ni8   S    
C68   N23   A    
C75   N13   A    
C33   H3    S    
C20   H113  S    
C27   H129  S    
C135  C143  A    
C87   N25   A    
N10   Ni4   S    
C103  C141  S    
C13   H13   S    
C84   N21   A    
C5    C139  A    
C115  C132  A    
C28   C60   S    
C35   H35   S    
C17   H110  S    
C64   C114  S    
C113  C130  A    
C73   H73   S    
C107  C125  A    
N14   Ni1   S    
C51   H49   S    
C39   C40   S    
C36   H8    S    
C47   H36   S    
C123  H123  S    
N27   Ni4   S    
N6    N25   A    
C67   C110  S    
C18   H107  S    
C74   H74   S    
C32   H7    S    
C17   C18   S    
N25   Ni7   S    
C40   H21   S    
C90   N28   A    
C21   H122  S    
C78   H78   S    
C15   C143  A    
C52   C105  A    
N5    Ni7   S    
C124  C141  A    
C85   C106  A    
C68   H68   S    
C7    C141  A    
C51   H47   S    
C41   H29   S    
N17   N30   A    
C44   H32   S    
C2    C99   A    
C79   H79   S    
C41   C66   S    
C34   H12   S    
C121  C139  A    
C38   H16   S    
C97   C123  A    
C70   C108  S    
C88   C105  A    
C83   N20   A    
C71   H71   S    
C34   C36   S    
N16   Ni3   S    
C114  C117  A    
C42   H27   S    
C20   H115  S    
C49   H41   S    
C43   C67   S    
C56   C69   S    
C57   H57   S    
N13   Ni2   S    
C4    H94   S    
C63   H63   S    
C46   N6    A    
C95   C101  A    
C61   H61   S    
C9    H99   S    
C71   C107  S    
N3    N21   A    
C82   C98   A    
C41   C42   S    
C101  H101  S    
C36   H10   S    
C23   H127  S    
C26   C27   S    
C28   C29   S    
C35   C103  A    
C30   C31   S    
C112  H112  S    
N12   Ni2   S    
C111  C129  A    
C142  H89   S    
C54   C71   S    
C60   C118  S    
C3    C137  A    
C66   C111  S    
C53   N8    A    
N3    Ni7   S    
C83   C99   A    
C30   H144  S    
C31   H141  S    
C79   N27   A    
C90   C94   A    
C101  N29   A    
N17   Ni2   S    
C144  H92   S    
C98   C137  S    
C61   C117  S    
C134  H134  S    
C10   H100  S    
C38   H14   S    
C12   C129  A    
C134  N32   A    
C19   H116  S    
N26   Ni6   S    
C76   C97   A    
N7    N26   A    
C45   C69   S    
C70   H70   S    
C74   C91   A    
C61   C64   S    
N11   N12   A    
C62   C63   S    
C42   H25   S    
C80   H80   S    
C64   H64   S    
C106  C140  S    
C49   H43   S    
C78   C95   A    
C58   C120  S    
C50   C51   S    
N7    Ni5   S    
C69   H69   S    
C50   C71   S    
N32   Ni5   S    
C4    C11   A    
N9    N27   A    
C24   N4    A    
C57   C91   A    
C72   C93   A    
C48   C49   S    
C72   H72   S    
N8    N22   A    
N15   Ni4   S    
C37   C64   S    
N4    N18   A    
C45   H39   S    
C37   H17   S    
C19   C55   S    
C54   C124  S    
N31   Ni4   S    
C43   H33   S    
C59   C119  S    
C5    H95   S    
C24   H24   S    
C73   N10   A    
C11   H102  S    
N19   N32   A    
C92   C126  S    
C21   C56   S    
N14   N31   A    
C32   C33   S    
C39   H22   S    
C31   H140  S    
C73   C89   A    
C136  C144  A    
C26   H132  S    
C50   H50   S    
C2    N2    A    
C46   C104  A    
C76   H76   S    
C24   C102  A    
C52   N7    A    
C6    C140  A    
C16   C132  A    
C102  C136  S    
C4    C138  A    
C87   C104  A    
C59   H59   S    
C8    C125  A    
C29   H137  S    
C95   C129  S    
C26   H133  S    
C20   H114  S    
C89   C128  S    
C28   H139  S    
N6    Ni6   S    
N18   Ni7   S    
C83   H83   S    
C29   H136  S    
C86   N24   A    
C96   C112  A    
C90   H90   S    
C81   H81   S    
N1    N10   A    
C33   H4    S    
C79   C93   A    
C105  C139  S    
C99   C133  S    
C143  H91   S    
C3    C12   A    
C69   C109  S    
N28   Ni3   S    
C18   H108  S    
C80   C96   A    
C22   H119  S    
C65   H65   S    
C25   H126  S    
C21   H121  S    
C55   C122  S    
C74   N11   A    
C46   H46   S    
C47   H38   S    
C86   C103  A    
C88   N26   A    
C81   N18   A    
C14   H104  S    
C81   C102  A    
C18   H109  S    
C41   H28   S    
C119  C137  A    
C40   H19   S    
C110  C120  A    
C16   H106  S    
C6    H96   S    
C16   C142  A    
C93   C127  S    
C62   C116  S    
C19   H117  S    
C8    H98   S    
C15   C131  A    
C75   C92   A    
C3    H93   S    
C27   H130  S    
C77   H77   S    
C13   N3    A    
C66   H66   S    
C10   C127  A    
C84   H84   S    
C17   H111  S    
C1    C89   A    
C88   H88   S    
C108  C122  A    
C122  C140  A    
C2    H2    S    
C98   C134  A    
C9    C126  A    
C54   H54   S    
C56   C121  S    
C13   C100  A    
C11   C128  A    
C5    C10   A    
N22   Ni5   S    
C87   H87   S    
C34   C63   S    
C104  C138  S    
C23   C25   S    
C39   H23   S    
C55   C70   S    
C113  C118  A    
N13   N23   A    
C51   H48   S    
N4    Ni8   S    
