data_str_m9_o10_o29_f0_sra.sym.198
_audit_creation_date              2012-12-11T14:08:34-0500
_audit_creation_method            fapswitch 2.2
_symmetry_space_group_name_H-M    P1
_symmetry_Int_Tables_number       1
_space_group_crystal_system       triclinic
_cell_length_a                    28.213049
_cell_length_b                    7.186291
_cell_length_c                    17.206887
_cell_angle_alpha                 89.97858
_cell_angle_beta                  101.903498
_cell_angle_gamma                 90.06376
_cell_volume                      3413.62715942

loop_
_atom_site_label
_atom_site_type_symbol
_atom_type_description
_atom_site_fract_x
_atom_site_fract_y
_atom_site_fract_z
_atom_type_partial_charge
O1    O     O_R   0.000700 0.436510 0.857920 -0.535120
O2    O     O_R   0.999300 0.563490 0.142080 -0.535761
O3    O     O_R   0.999300 0.936510 0.642080 -0.534931
O4    O     O_R   0.000700 0.063490 0.357920 -0.535741
O5    O     O_R   0.930080 0.766380 0.721890 -0.549416
O6    O     O_R   0.069920 0.233620 0.278110 -0.548687
O7    O     O_R   0.069920 0.266380 0.778110 -0.544835
O8    O     O_R   0.930080 0.733620 0.221890 -0.517916
C1    C     C_R   0.910627 0.597444 0.708578 0.723487
C2    C     C_R   0.089270 0.402435 0.292751 0.724807
C3    C     C_R   0.089495 0.097583 0.791643 0.705771
C4    C     C_R   0.910607 0.902060 0.207714 0.705743
O9    O     O_R   0.996180 0.766230 0.862310 -0.546994
O10   O     O_R   0.003820 0.233770 0.137690 -0.546392
O11   O     O_R   0.003820 0.266230 0.637690 -0.541171
O12   O     O_R   0.996180 0.733770 0.362310 -0.539863
O13   O     O_R   0.065870 0.936460 0.783500 -0.514216
O14   O     O_R   0.934130 0.063540 0.216500 -0.542835
O15   O     O_R   0.934130 0.436460 0.716500 -0.512578
O16   O     O_R   0.065870 0.563540 0.283500 -0.512534
C5    C     C_R   0.998492 0.596434 0.894501 0.757075
C6    C     C_R   0.001499 0.403573 0.105497 0.755759
C7    C     C_R   0.001506 0.096462 0.605488 0.771919
C8    C     C_R   0.998508 0.903535 0.394516 0.773393
O17   O     O_3   0.022790 0.603020 0.723980 -0.372025
O18   O     O_3   0.977210 0.396980 0.276020 -0.375370
O19   O     O_3   0.977210 0.103020 0.776020 -0.378485
O20   O     O_3   0.022790 0.896980 0.223980 -0.377972
V1    V     V_3+5 0.995770 0.877900 0.754830 1.437247
V2    V     V_3+5 0.004230 0.122100 0.245170 1.420576
V3    V     V_3+5 0.004230 0.377900 0.745170 1.452560
V4    V     V_3+5 0.995770 0.622100 0.254830 1.463884
C9    C     C_2   0.001692 0.082720 0.519567 -0.332667
C10   C     C_2   0.998342 0.917273 0.480442 -0.332033
C11   C     C_2   0.998285 0.582698 0.980406 -0.340597
C12   C     C_2   0.001686 0.417326 0.019586 -0.333793
H1    H     H_    0.004427 0.211757 0.487887 0.152887
H2    H     H_    0.995612 0.788233 0.512124 0.152975
H3    H     H_    0.995488 0.711689 0.012030 0.150633
H4    H     H_    0.004478 0.288336 0.987960 0.151612
C13   C     C_R   0.684154 0.973487 0.019393 0.575516
C14   C     C_R   0.317665 0.070180 0.969840 0.573915
C15   C     C_R   0.321598 0.299655 0.446936 0.588625
C16   C     C_R   0.676733 0.705808 0.577554 0.586831
O21   O     O_2   0.713453 0.963198 0.966686 -0.521808
O22   O     O_2   0.288374 0.068046 0.022731 -0.523513
O23   O     O_2   0.297510 0.148658 0.464993 -0.515895
O24   O     O_2   0.700732 0.855319 0.557811 -0.518636
N1    N     N_R   0.703676 0.967395 0.099172 -0.553543
N2    N     N_R   0.298002 0.082559 0.890260 -0.552816
N3    N     N_R   0.296760 0.440222 0.402204 -0.551964
N4    N     N_R   0.701922 0.563187 0.620280 -0.551383
C17   C     C_R   0.674686 0.979136 0.153760 0.579442
C18   C     C_R   0.327135 0.088549 0.835660 0.579333
C19   C     C_R   0.320707 0.595336 0.384016 0.592012
C20   C     C_R   0.677981 0.409921 0.640382 0.592796
C21   C     C_R   0.782831 0.097269 0.164295 -0.102394
C22   C     C_R   0.222032 0.242521 0.828408 -0.097594
C23   C     C_R   0.223187 0.281477 0.327404 -0.077239
C24   C     C_R   0.777624 0.719207 0.688259 -0.075029
C25   C     C_R   0.832870 0.079685 0.190689 -0.248125
C26   C     C_R   0.171505 0.244990 0.805317 -0.257684
C27   C     C_R   0.172800 0.273063 0.301261 -0.268716
C28   C     C_R   0.828244 0.727606 0.708519 -0.270749
C29   C     C_R   0.829126 0.761724 0.141029 0.170837
C30   C     C_R   0.167806 0.927780 0.853492 0.173463
C31   C     C_R   0.164386 0.559840 0.371940 0.156748
C32   C     C_R   0.833322 0.438660 0.637440 0.157303
C33   C     C_R   0.778622 0.781680 0.114927 -0.128780
C34   C     C_R   0.218718 0.927400 0.875876 -0.131051
C35   C     C_R   0.214889 0.565798 0.398363 -0.135274
C36   C     C_R   0.782485 0.432757 0.616775 -0.137276
C37   C     C_R   0.755401 0.948764 0.126208 0.350748
C38   C     C_R   0.245952 0.083965 0.863951 0.348828
C39   C     C_R   0.244675 0.428408 0.375927 0.332724
C40   C     C_R   0.754272 0.571663 0.642237 0.332236
C41   C     C_R   0.603215 0.003283 0.047109 -0.044656
C42   C     C_R   0.398849 0.063729 0.941916 -0.044384
C43   C     C_R   0.397144 0.472467 0.458432 -0.048001
C44   C     C_R   0.600903 0.537732 0.570800 -0.048071
C45   C     C_R   0.633699 0.991907 0.991978 -0.034395
C46   C     C_R   0.368228 0.060250 0.996984 -0.033866
C47   C     C_R   0.372101 0.312873 0.475402 -0.039899
C48   C     C_R   0.625958 0.696161 0.552644 -0.040476
C49   C     C_R   0.613269 0.998848 0.910827 -0.126435
C50   C     C_R   0.388556 0.045216 0.077894 -0.127331
C51   C     C_R   0.397816 0.170672 0.520952 -0.131890
C52   C     C_R   0.599991 0.840802 0.509285 -0.130988
C53   C     C_R   0.624101 0.997005 0.128809 -0.036069
C54   C     C_R   0.377974 0.079224 0.860446 -0.035979
C55   C     C_R   0.370999 0.614811 0.412251 -0.032939
C56   C     C_R   0.627296 0.393979 0.615631 -0.033437
C57   C     C_R   0.856893 0.912692 0.179897 -0.065340
C58   C     C_R   0.143478 0.088818 0.817184 -0.065679
C59   C     C_R   0.142728 0.412668 0.322164 -0.048516
C60   C     C_R   0.856838 0.587326 0.684207 -0.047257
H5    H     H_    0.757170 0.667382 0.085252 0.123015
H6    H     H_    0.237439 0.805431 0.903773 0.123589
H7    H     H_    0.231060 0.678190 0.436848 0.155128
H8    H     H_    0.764846 0.319776 0.580161 0.156105
H9    H     H_    0.635804 0.989538 0.867037 0.170242
H10   H     H_    0.365849 0.040963 0.121552 0.170451
H11   H     H_    0.379558 0.046007 0.534814 0.174606
H12   H     H_    0.618222 0.965309 0.495186 0.173382
C61   C     C_R   0.480472 0.050334 0.911644 0.036785
C62   C     C_R   0.521790 0.027589 0.077346 0.036814
C63   C     C_R   0.525070 0.360668 0.562248 0.032051
C64   C     C_R   0.472692 0.652604 0.469858 0.031048
C65   C     C_R   0.470504 0.037915 0.050919 0.036202
C66   C     C_R   0.531628 0.030184 0.937918 0.036243
C67   C     C_R   0.523705 0.669518 0.498468 0.029163
C68   C     C_R   0.474006 0.343886 0.533744 0.030423
C69   C     C_R   0.450168 0.050889 0.968264 0.064424
C70   C     C_R   0.551995 0.020553 0.020663 0.064410
C71   C     C_R   0.549655 0.522679 0.543822 0.065016
C72   C     C_R   0.448169 0.489750 0.487519 0.065422
C73   C     C_R   0.458230 0.070049 0.830317 -0.173077
C74   C     C_R   0.544237 0.024083 0.158993 -0.173155
C75   C     C_R   0.552785 0.220540 0.608762 -0.191704
C76   C     C_R   0.445073 0.792647 0.423177 -0.189116
C77   C     C_R   0.408162 0.083842 0.805489 -0.129201
C78   C     C_R   0.594191 0.008841 0.183930 -0.128409
C79   C     C_R   0.602686 0.237090 0.634639 -0.135941
C80   C     C_R   0.395449 0.773802 0.395156 -0.133624
O25   O     O_2   0.307041 0.100753 0.757567 -0.517116
O26   O     O_2   0.694676 0.971921 0.232030 -0.517746
O27   O     O_2   0.703058 0.273260 0.684522 -0.519123
O28   O     O_2   0.296012 0.730352 0.338213 -0.521071
C81   C     C_R   0.563446 0.017553 0.884245 -0.172880
C82   C     C_R   0.438465 0.034003 0.104402 -0.173609
C83   C     C_R   0.447570 0.185156 0.549342 -0.193833
C84   C     C_R   0.550059 0.828600 0.483071 -0.188210
H13   H     H_    0.154375 0.370085 0.777765 0.164268
H14   H     H_    0.852801 0.197690 0.220069 0.168018
H15   H     H_    0.845054 0.842874 0.744518 0.152849
H16   H     H_    0.157381 0.158482 0.263475 0.153099
H17   H     H_    0.242609 0.364971 0.819248 0.136861
H18   H     H_    0.765319 0.227240 0.173255 0.134816
H19   H     H_    0.756514 0.827505 0.708755 0.167887
H20   H     H_    0.245572 0.174261 0.309252 0.165962
H21   H     H_    0.393178 0.097642 0.742494 0.168540
H22   H     H_    0.609299 0.006235 0.247151 0.168891
H23   H     H_    0.622013 0.124568 0.669364 0.167074
H24   H     H_    0.376235 0.885867 0.359943 0.168760
H25   H     H_    0.478422 0.076997 0.783721 0.117902
H26   H     H_    0.524401 0.034800 0.205902 0.118690
H27   H     H_    0.537261 0.094498 0.626327 0.122916
H28   H     H_    0.460485 0.919907 0.406623 0.125851
H29   H     H_    0.551125 0.019077 0.820750 0.117578
H30   H     H_    0.450521 0.019469 0.167616 0.119521
H31   H     H_    0.464078 0.067725 0.583226 0.124691
H32   H     H_    0.533409 0.947748 0.450715 0.126111
N5    N     N_3   0.852149 0.590733 0.126276 -0.644807
H33   H     H_    0.826290 0.490158 0.103029 0.224400
H34   H     H_    0.871985 0.617508 0.082437 0.222140
N6    N     N_3   0.141056 0.766820 0.869510 -0.638587
H35   H     H_    0.164410 0.655885 0.889243 0.221547
H36   H     H_    0.124189 0.800942 0.916301 0.221458
N7    N     N_3   0.135313 0.701342 0.397626 -0.650263
H37   H     H_    0.142214 0.700366 0.459712 0.225721
H38   H     H_    0.146391 0.830296 0.379443 0.239470
N8    N     N_3   0.860753 0.295588 0.609027 -0.650226
H39   H     H_    0.851225 0.294148 0.546997 0.227619
H40   H     H_    0.850643 0.167636 0.629656 0.239869

loop_
_geom_bond_atom_site_label_1
_geom_bond_atom_site_label_2
_ccdc_geom_bond_type
O17   V3    S    
C35   C39   A    
C61   C66   A    
N1    C17   A    
O1    C5    A    
O19   V1    S    
O13   V1    S    
C63   C68   A    
C64   C76   A    
O3    C7    A    
C11   C12   D    
C14   C46   A    
C44   C48   A    
O15   V3    S    
C36   H8    S    
C42   C54   A    
O18   V4    S    
C41   C53   A    
C32   C60   A    
C62   C70   A    
C23   H20   S    
C26   H13   S    
C73   H25   S    
N6    H35   S    
N3    C39   S    
C18   C54   A    
N2    C38   S    
C74   C78   A    
C11   H3    S    
O4    C8    A    
C25   C57   A    
C31   C35   A    
C53   C78   A    
C75   H27   S    
C27   C59   A    
O1    V3    S    
C15   C47   A    
C66   C81   A    
O2    V4    S    
C14   O22   S    
C20   O27   S    
C21   C37   A    
O3    V1    S    
C73   C77   A    
C34   C38   A    
C29   N5    S    
C49   C81   A    
C83   H31   S    
C1    O15   A    
C82   H30   S    
C2    O16   A    
C7    C9    S    
O2    C6    A    
C19   C55   A    
N7    H38   S    
C33   C37   A    
O14   V2    S    
C41   C45   A    
N5    H34   S    
C66   C70   A    
O5    V1    S    
C65   C69   A    
C30   C58   A    
C16   N4    A    
O11   C7    A    
C28   H15   S    
O12   C8    A    
C43   C72   A    
C62   C74   A    
C31   C59   A    
C61   C73   A    
O10   V2    S    
C63   C75   A    
C52   H12   S    
C25   H14   S    
N8    H40   S    
C18   O25   S    
O7    V3    S    
O8    V4    S    
C77   H21   S    
C12   H4    S    
C28   C60   A    
C56   C79   A    
C50   C82   A    
N4    C40   S    
C46   C50   A    
C35   H7    S    
C24   C40   A    
C8    C10   S    
O9    V1    S    
C76   C80   A    
C32   C36   A    
C52   C84   A    
C44   C56   A    
O7    C3    A    
O5    C1    A    
C42   C46   A    
N7    H37   S    
C44   C71   A    
C74   H26   S    
O8    C4    A    
C13   C45   A    
C9    C10   D    
O9    C5    A    
C36   C40   A    
N2    C18   A    
O11   V3    S    
C1    C60   S    
C63   C71   A    
C51   C83   A    
C22   C26   A    
C14   N2    A    
C51   H11   S    
C22   H17   S    
O6    V2    S    
C76   H28   S    
C75   C79   A    
C55   C80   A    
C26   C58   A    
C17   C53   A    
C84   H32   S    
C54   C77   A    
N1    C37   S    
C4    C57   S    
C42   C69   A    
C78   H22   S    
C79   H23   S    
C41   C70   A    
C50   H10   S    
C23   C39   A    
C68   C72   A    
C49   H9    S    
C22   C38   A    
N8    H39   S    
O16   V4    S    
C61   C69   A    
C3    O13   A    
C10   H2    S    
C43   C55   A    
C48   C52   A    
C3    C58   S    
C16   C48   A    
C47   C51   A    
O6    C2    A    
C67   C71   A    
C21   C25   A    
C5    C11   S    
C32   N8    S    
O12   V4    S    
C13   N1    A    
C6    C12   S    
C23   C27   A    
C64   C67   A    
C24   C28   A    
C27   H16   S    
C64   C72   A    
N6    H36   S    
N5    H33   S    
C30   N6    S    
O10   C6    A    
C30   C34   A    
N4    C20   A    
C2    C59   S    
C15   N3    A    
C29   C33   A    
O20   V2    S    
C29   C57   A    
C21   H18   S    
N3    C19   A    
C68   C83   A    
C9    H1    S    
C17   O26   S    
C24   H19   S    
C43   C47   A    
C16   O24   S    
C67   C84   A    
C20   C56   A    
C19   O28   S    
C45   C49   A    
C4    O14   A    
C65   C82   A    
C13   O21   S    
C80   H24   S    
C31   N7    S    
C81   H29   S    
C15   O23   S    
O4    V2    S    
C34   H6    S    
C62   C65   A    
C33   H5    S    
