data_str_m9_o16_o24_f0_sra.sym.63
_audit_creation_date              2012-12-11T15:13:47-0500
_audit_creation_method            fapswitch 2.2
_symmetry_space_group_name_H-M    P1
_symmetry_Int_Tables_number       1
_space_group_crystal_system       triclinic
_cell_length_a                    6.943583
_cell_length_b                    13.471246
_cell_length_c                    20.129747
_cell_angle_alpha                 104.105856
_cell_angle_beta                  90.857043
_cell_angle_gamma                 90.003178
_cell_volume                      1825.91787547

loop_
_atom_site_label
_atom_site_type_symbol
_atom_type_description
_atom_site_fract_x
_atom_site_fract_y
_atom_site_fract_z
_atom_type_partial_charge
O1    O     O_R   0.506780 0.600060 0.449950 -0.541820
O2    O     O_R   0.179840 0.597110 0.589410 -0.537453
O3    O     O_R   0.004570 0.399940 0.550050 -0.532215
C1    C     C_R   0.349149 0.618995 0.616815 0.743403
O4    O     O_R   0.177380 0.612160 0.452890 -0.539309
O5    O     O_R   0.002100 0.415100 0.412560 -0.539636
C2    C     C_R   0.345186 0.639308 0.436487 0.692932
O6    O     O_R   0.509250 0.584900 0.587440 -0.543753
O7    O     O_3   0.337570 0.435330 0.486930 -0.373076
V1    V     V_3+5 0.064650 0.512000 0.502430 1.450706
O8    O     O_R   0.672090 0.402890 0.410590 -0.545720
C3    C     C_R   0.839654 0.380897 0.383152 0.679846
O9    O     O_R   0.674540 0.387840 0.547110 -0.541760
C4    C     C_R   0.844599 0.360943 0.563618 0.706475
V2    V     V_3+5 0.564040 0.488000 0.497570 1.428659
O10   O     O_3   0.840990 0.564670 0.513070 -0.372729
C5    C     C_R   0.966027 0.116060 0.611270 -0.166708
H1    H     H_    0.959043 0.165274 0.517692 0.099885
H2    H     H_    0.030247 0.996489 0.695735 0.123283
H3    H     H_    0.020055 0.040958 0.586244 0.106586
C6    C     C_R   0.860099 0.283363 0.602989 -0.037074
C7    C     C_R   0.786565 0.313851 0.930578 -0.159340
C8    C     C_R   0.750722 0.387728 0.894478 -0.127829
C9    C     C_R   0.776584 0.365563 0.823921 -0.169268
C10   C     C_R   0.842211 0.268113 0.787464 0.076829
C11   C     C_R   0.883133 0.193381 0.825180 0.062579
C12   C     C_R   0.867213 0.242081 0.714919 0.067152
C13   C     C_R   0.936682 0.143129 0.682227 0.116640
C14   C     C_R   0.977630 0.071922 0.720444 -0.192501
C15   C     C_R   0.949971 0.096100 0.790622 -0.137117
C16   C     C_R   0.827510 0.310978 0.673490 -0.182906
C17   C     C_R   0.930050 0.186219 0.572066 -0.172674
C18   C     C_R   0.852746 0.216999 0.896767 -0.076814
H4    H     H_    0.776834 0.387668 0.694399 0.111150
H5    H     H_    0.760489 0.331860 0.985161 0.099923
H6    H     H_    0.743886 0.426641 0.799687 0.117268
H7    H     H_    0.699702 0.462545 0.921257 0.113763
H8    H     H_    0.982282 0.037546 0.817568 0.132751
C19   C     C_3   0.795617 0.155361 0.251152 -0.127447
C20   C     C_3   0.969133 0.212605 0.293036 -0.148249
H9    H     H_    0.061667 0.182315 0.328959 0.100139
H10   H     H_    0.745919 0.077210 0.251661 0.113113
C21   C     C_3   0.846468 0.310642 0.312545 -0.042942
C22   C     C_3   0.672887 0.254117 0.271313 -0.129037
C23   C     C_3   0.742660 0.286583 0.206756 -0.173248
C24   C     C_3   0.915418 0.342259 0.248700 0.005464
C25   C     C_3   0.039798 0.245084 0.228537 -0.155469
C26   C     C_3   0.865734 0.188733 0.187546 -0.013112
H11   H     H_    0.521897 0.257640 0.289112 0.111412
H12   H     H_    0.650437 0.317278 0.170917 0.103879
H13   H     H_    0.190800 0.241918 0.210753 0.109438
C27   C     C_3   0.538359 0.743167 0.725584 -0.252210
C28   C     C_3   0.417275 0.841460 0.747939 0.546620
H14   H     H_    0.686578 0.738511 0.705127 0.134534
C29   C     C_3   0.355148 0.810362 0.812864 -0.128615
C30   C     C_3   0.475003 0.710816 0.791121 -0.270137
C31   C     C_3   0.294883 0.658342 0.752051 0.551335
C32   C     C_3   0.173941 0.756679 0.774445 -0.254384
C33   C     C_3   0.237253 0.788854 0.708881 -0.274244
C34   C     C_3   0.357288 0.689426 0.687176 -0.124771
H15   H     H_    0.570118 0.678544 0.825360 0.120085
H16   H     H_    0.025679 0.761715 0.794882 0.133969
H17   H     H_    0.141613 0.819849 0.674207 0.113516
C35   C     C_R   0.304569 0.892734 0.391350 -0.159921
H18   H     H_    0.294465 0.842743 0.484598 0.094265
H19   H     H_    0.284987 0.017814 0.308282 0.117081
H20   H     H_    0.278226 0.971829 0.417478 0.108907
C36   C     C_R   0.349662 0.717454 0.397362 -0.034741
C37   C     C_R   0.394638 0.681305 0.068280 -0.171407
C38   C     C_R   0.409830 0.605266 0.103823 -0.117657
C39   C     C_R   0.398246 0.629628 0.174986 -0.114260
C40   C     C_R   0.368860 0.731856 0.212751 0.082408
C41   C     C_R   0.351041 0.809399 0.175791 0.064292
C42   C     C_R   0.356598 0.759711 0.285795 0.076927
C43   C     C_R   0.323895 0.863817 0.319888 0.141356
C44   C     C_R   0.308661 0.938288 0.282538 -0.211899
C45   C     C_R   0.322539 0.911785 0.211725 -0.203111
C46   C     C_R   0.373028 0.687792 0.326397 -0.171682
C47   C     C_R   0.314719 0.819692 0.429708 -0.179384
C48   C     C_R   0.365125 0.783021 0.103439 -0.072414
H21   H     H_    0.398642 0.607679 0.304577 0.107723
H22   H     H_    0.408068 0.660950 0.013033 0.093089
H23   H     H_    0.413202 0.566438 0.198651 0.116831
H24   H     H_    0.432973 0.526713 0.076033 0.114887
H25   H     H_    0.309473 0.972598 0.185340 0.124104
O11   O     O_R   0.203580 0.914920 0.912610 -0.545826
O12   O     O_R   0.535710 0.887810 0.047120 -0.542672
O13   O     O_R   0.710730 0.084950 0.087430 -0.540944
C49   C     C_R   0.368240 0.861211 0.064018 0.679852
O14   O     O_R   0.533010 0.902850 0.910600 -0.536100
O15   O     O_R   0.708010 0.100090 0.949930 -0.529993
C50   C     C_R   0.363627 0.880875 0.883212 0.745661
O16   O     O_R   0.206300 0.899780 0.050100 -0.540637
O17   O     O_3   0.375170 0.064580 0.013100 -0.371304
V3    V     V_3+5 0.648200 0.988020 0.997570 1.439302
O18   O     O_R   0.038030 0.112330 0.952840 -0.542743
C51   C     C_R   0.867999 0.138801 0.936048 0.693561
O19   O     O_R   0.040730 0.097300 0.089360 -0.546160
C52   C     C_R   0.873108 0.118803 0.116943 0.681075
V4    V     V_3+5 0.148780 0.012220 0.002360 1.421249
O20   O     O_3   0.871930 0.935430 0.986900 -0.372346
C53   C     C_1   0.977877 0.445612 0.247087 0.247027
N1    N     N_1   0.026087 0.527309 0.245818 -0.371615
O21   O     O_3   0.479552 0.942040 0.750469 -0.553827
C54   C     C_3   0.522650 0.950253 0.683874 -0.245570
H26   H     H_    0.395383 0.932054 0.648791 0.114881
H27   H     H_    0.646637 0.900860 0.662851 0.125980
H28   H     H_    0.563793 0.030643 0.686432 0.182245
O22   O     O_3   0.232697 0.557705 0.749388 -0.555326
C55   C     C_3   0.180952 0.550496 0.815427 -0.263018
H29   H     H_    0.053243 0.598645 0.833753 0.128365
H30   H     H_    0.303185 0.570997 0.852624 0.123352
H31   H     H_    0.141404 0.469911 0.812943 0.180370

loop_
_geom_bond_atom_site_label_1
_geom_bond_atom_site_label_2
_ccdc_geom_bond_type
C22   H11   S    
C32   H16   S    
C20   C25   S    
C29   C30   S    
H18   C47   S    
C1    O6    A    
C28   C33   S    
O14   V3    S    
C23   C24   S    
C22   C23   S    
C7    H5    S    
C54   H27   S    
C9    H6    S    
C4    C6    S    
C13   C14   A    
C3    C21   S    
O5    C3    A    
C28   O21   S    
V2    O10   S    
C5    H3    S    
C30   C31   S    
C15   H8    S    
C48   C49   S    
C26   C52   S    
C55   H29   S    
C37   H22   S    
C27   C34   S    
C2    C36   S    
O8    V2    S    
C41   C48   A    
C20   C21   S    
C31   O22   S    
O12   V3    S    
C8    C9    A    
C38   C39   A    
O1    V2    S    
C38   H24   S    
O7    V1    S    
C36   C47   A    
O13   V3    S    
C45   H25   S    
C33   C34   S    
O9    C4    A    
C49   O16   A    
C53   N1    T    
O21   C54   S    
C54   H28   S    
C27   H14   S    
C19   H10   S    
C39   H23   S    
C44   C45   A    
C28   C29   S    
C36   C46   A    
C6    C17   A    
C42   C43   A    
C12   C16   A    
C35   H20   S    
C9    C10   A    
C40   C42   A    
C19   C20   S    
O4    C2    A    
C31   C34   S    
C25   H13   S    
C10   C11   A    
C8    H7    S    
O2    C1    A    
C43   C44   A    
C14   C15   A    
C6    C16   A    
C11   C18   A    
O14   C50   A    
C25   C26   S    
C55   H31   S    
O17   V4    S    
H19   C44   S    
O18   C51   A    
C1    C34   S    
C16   H4    S    
O17   V3    S    
C30   H15   S    
O15   C51   A    
O16   V4    S    
O3    C4    A    
C20   H9    S    
C29   C50   S    
C11   C15   A    
O6    V2    S    
O19   V4    S    
O12   C49   A    
C21   C22   S    
C35   C47   A    
H1    C17   S    
O2    V1    S    
O11   V4    S    
C27   C28   S    
C23   C26   S    
C7    C18   A    
C24   C25   S    
O1    C2    A    
C5    C13   A    
C40   C41   A    
O5    V1    S    
O8    C3    A    
C19   C22   S    
C10   C12   A    
C54   H26   S    
C33   H17   S    
O9    V2    S    
C32   C33   S    
O4    V1    S    
O3    V1    S    
O11   C50   A    
O22   C55   S    
C46   H21   S    
C31   C32   S    
C23   H12   S    
O18   V4    S    
V4    O20   S    
C35   C43   A    
C18   C51   S    
O7    V2    S    
C37   C38   A    
C21   C24   S    
C55   H30   S    
O13   C52   A    
O15   V3    S    
V3    O20   S    
C39   C40   A    
O19   C52   A    
C42   C46   A    
C29   C32   S    
C12   C13   A    
C5    C17   A    
C41   C45   A    
C7    C8    A    
C37   C48   A    
V1    O10   S    
C27   C30   S    
C19   C26   S    
C24   C53   S    
H2    C14   S    
