data_str_m9_o18_o28_f0_sra.sym.61
_audit_creation_date              2012-12-11T15:34:58-0500
_audit_creation_method            fapswitch 2.2
_symmetry_space_group_name_H-M    P1
_symmetry_Int_Tables_number       1
_space_group_crystal_system       triclinic
_cell_length_a                    30.228549
_cell_length_b                    7.268773
_cell_length_c                    26.031056
_cell_angle_alpha                 90.220913
_cell_angle_beta                  111.994082
_cell_angle_gamma                 90.054037
_cell_volume                      5303.34045235

loop_
_atom_site_label
_atom_site_type_symbol
_atom_type_description
_atom_site_fract_x
_atom_site_fract_y
_atom_site_fract_z
_atom_type_partial_charge
O1    O     O_R   0.295360 0.592990 0.320420 -0.532418
O2    O     O_R   0.704640 0.407010 0.679580 -0.535775
O3    O     O_R   0.204640 0.092990 0.179580 -0.531795
O4    O     O_R   0.795360 0.907010 0.820420 -0.536274
O5    O     O_R   0.294060 0.265620 0.213230 -0.538933
O6    O     O_R   0.705940 0.734380 0.786770 -0.536891
O7    O     O_R   0.205940 0.765620 0.286770 -0.539658
O8    O     O_R   0.794060 0.234380 0.713230 -0.539713
C1    C     C_R   0.304485 0.432098 0.199984 0.711088
C2    C     C_R   0.695331 0.567685 0.799807 0.711976
C3    C     C_R   0.195659 0.932519 0.300146 0.707648
C4    C     C_R   0.804723 0.067834 0.700416 0.717354
O9    O     O_R   0.300850 0.263360 0.322080 -0.539015
O10   O     O_R   0.699150 0.736640 0.677920 -0.536369
O11   O     O_R   0.199150 0.763360 0.177920 -0.538756
O12   O     O_R   0.800850 0.236640 0.822080 -0.540191
O13   O     O_R   0.211480 0.091820 0.289210 -0.535394
O14   O     O_R   0.788520 0.908180 0.710790 -0.536577
O15   O     O_R   0.288520 0.591820 0.210790 -0.535367
O16   O     O_R   0.711480 0.408180 0.789210 -0.538133
C5    C     C_R   0.313289 0.431808 0.343367 0.693989
C6    C     C_R   0.687191 0.567129 0.656326 0.696576
C7    C     C_R   0.186642 0.930848 0.156647 0.693888
C8    C     C_R   0.812957 0.068840 0.843679 0.700616
O17   O     O_3   0.220670 0.426670 0.239090 -0.373486
O18   O     O_3   0.779330 0.573330 0.760910 -0.374439
O19   O     O_3   0.279330 0.926670 0.260910 -0.373443
O20   O     O_3   0.720670 0.073330 0.739090 -0.372097
V1    V     V_3+5 0.255440 0.152290 0.252020 1.389030
V2    V     V_3+5 0.744560 0.847710 0.747980 1.386351
V3    V     V_3+5 0.244560 0.652290 0.247980 1.389321
V4    V     V_3+5 0.755440 0.347710 0.752020 1.382769
C9    C     C_R   0.848901 0.061836 0.901427 -0.086004
C10   C     C_R   0.150719 0.932399 0.098950 -0.081562
C11   C     C_R   0.652122 0.547868 0.598454 -0.081414
C12   C     C_R   0.348849 0.438494 0.401213 -0.080929
C13   C     C_R   0.871194 0.090436 0.001926 0.069426
C14   C     C_R   0.128714 0.889592 0.998808 0.069479
C15   C     C_R   0.633250 0.433193 0.503660 0.067209
C16   C     C_R   0.369442 0.442325 0.501870 0.069825
C17   C     C_R   0.837306 0.116910 0.947037 0.052256
C18   C     C_R   0.164448 0.905815 0.053244 0.056892
C19   C     C_R   0.667547 0.493708 0.555576 0.064509
C20   C     C_R   0.334380 0.433442 0.446865 0.055263
C21   C     C_R   0.894864 0.997572 0.910330 -0.260572
C22   C     C_R   0.102309 0.946550 0.090499 -0.263385
C23   C     C_R   0.603384 0.544502 0.589169 -0.268603
C24   C     C_R   0.397465 0.445008 0.410141 -0.263714
C25   C     C_R   0.931277 0.990263 0.963926 0.060890
C26   C     C_R   0.065663 0.929859 0.037151 0.062413
C27   C     C_R   0.568304 0.491466 0.537441 0.064282
C28   C     C_R   0.433461 0.449285 0.464074 0.062455
C29   C     C_R   0.918449 0.030634 0.010046 0.088367
C30   C     C_R   0.079326 0.899129 0.991195 0.085768
C31   C     C_R   0.583584 0.447198 0.493611 0.082372
C32   C     C_R   0.418937 0.453109 0.510098 0.088242
C33   C     C_R   0.980297 0.947130 0.973137 0.080263
C34   C     C_R   0.015763 0.947518 0.028016 0.082650
C35   C     C_R   0.518388 0.478336 0.528196 0.082332
C36   C     C_R   0.483621 0.450958 0.473614 0.081083
C37   C     C_R   0.000066 0.964224 0.072145 -0.204266
C38   C     C_R   0.995245 0.904292 0.929450 -0.201390
C39   C     C_R   0.500314 0.418663 0.430713 -0.200339
C40   C     C_R   0.502485 0.479705 0.572370 -0.204624
C41   C     C_R   0.953307 0.008690 0.063612 -0.207139
C42   C     C_R   0.043052 0.878822 0.938316 -0.201991
C43   C     C_R   0.548705 0.416218 0.440441 -0.203523
C44   C     C_R   0.454495 0.465101 0.563719 -0.205048
H1    H     H_    0.945734 0.027873 0.100592 0.137278
H2    H     H_    0.050574 0.844052 0.902100 0.134359
H3    H     H_    0.558038 0.392709 0.404757 0.135338
H4    H     H_    0.446373 0.462283 0.600663 0.136998
H5    H     H_    0.094533 0.972163 0.126907 0.120618
H6    H     H_    0.901202 0.957296 0.873992 0.121047
H7    H     H_    0.406025 0.450025 0.373680 0.120789
H8    H     H_    0.593815 0.585469 0.623339 0.123727
H9    H     H_    0.023175 0.940583 0.114310 0.127368
H10   H     H_    0.970765 0.887672 0.887320 0.124633
H11   H     H_    0.476830 0.384222 0.389229 0.126364
H12   H     H_    0.526842 0.480327 0.614866 0.127932
C45   C     C_R   0.089485 0.837413 0.477761 0.548355
C46   C     C_R   0.907917 0.892209 0.524250 0.550070
C47   C     C_R   0.407992 0.324719 0.019220 0.549016
C48   C     C_R   0.589244 0.371359 0.971572 0.544478
N1    N     N_R   0.071598 0.891216 0.423076 -0.532181
N2    N     N_R   0.927333 0.952601 0.578424 -0.530741
N3    N     N_R   0.426185 0.379853 0.073955 -0.532014
N4    N     N_R   0.569917 0.432702 0.917661 -0.532569
C49   C     C_R   0.024024 0.938124 0.398564 0.537223
C50   C     C_R   0.975928 0.982311 0.602592 0.543857
C51   C     C_R   0.473930 0.425810 0.098241 0.537751
C52   C     C_R   0.521359 0.463312 0.893797 0.546443
C53   C     C_R   0.993220 0.914751 0.427403 -0.015195
C54   C     C_R   0.005805 0.935113 0.574053 -0.019155
C55   C     C_R   0.504517 0.400318 0.069141 -0.015857
C56   C     C_R   0.491485 0.416042 0.922339 -0.019739
C57   C     C_R   0.013623 0.895966 0.485052 -0.016850
C58   C     C_R   0.984799 0.908874 0.516639 -0.017094
C59   C     C_R   0.483881 0.379968 0.011501 -0.016798
C60   C     C_R   0.512580 0.390349 0.979692 -0.017013
C61   C     C_R   0.062791 0.867146 0.511227 -0.016476
C62   C     C_R   0.935093 0.897810 0.490653 -0.018038
C63   C     C_R   0.434604 0.352346 0.985545 -0.016797
C64   C     C_R   0.562270 0.378425 0.005419 -0.019300
C65   C     C_R   0.943155 0.915401 0.401070 -0.148639
C66   C     C_R   0.055657 0.917858 0.600452 -0.146204
C67   C     C_R   0.554621 0.400357 0.095215 -0.148824
C68   C     C_R   0.441556 0.400004 0.896157 -0.145165
C69   C     C_R   0.914372 0.894494 0.432378 -0.185343
C70   C     C_R   0.083540 0.872049 0.569493 -0.178281
C71   C     C_R   0.583190 0.377305 0.063681 -0.186010
C72   C     C_R   0.413701 0.356032 0.927276 -0.177846
O21   O     O_2   0.132195 0.753873 0.499472 -0.561828
O22   O     O_2   0.863323 0.823155 0.503293 -0.561542
O23   O     O_2   0.365180 0.240942 0.997709 -0.561230
O24   O     O_2   0.633798 0.302390 0.992180 -0.560734
O25   O     O_2   0.006773 0.012661 0.347521 -0.552154
O26   O     O_2   0.995253 0.060939 0.653148 -0.547995
O27   O     O_2   0.491621 0.500842 0.149413 -0.550685
O28   O     O_2   0.502133 0.545071 0.843965 -0.549102
H13   H     H_    0.926354 0.925287 0.356417 0.154844
H14   H     H_    0.072810 0.932989 0.644970 0.155533
H15   H     H_    0.571612 0.411633 0.139851 0.155654
H16   H     H_    0.424303 0.414860 0.851684 0.154822
H17   H     H_    0.875989 0.888206 0.411183 0.154209
H18   H     H_    0.121580 0.852718 0.590819 0.152332
H19   H     H_    0.621583 0.371068 0.084682 0.154355
H20   H     H_    0.375588 0.337471 0.906092 0.151885
C73   C     C_R   0.907924 0.904365 0.663446 0.126079
C74   C     C_R   0.089955 0.820352 0.338528 0.139538
C75   C     C_R   0.590251 0.398890 0.832430 0.129792
C76   C     C_R   0.408534 0.310517 0.159005 0.137177
C77   C     C_R   0.883163 0.965752 0.697278 0.077176
C78   C     C_R   0.115580 0.867897 0.304637 0.074219
C79   C     C_R   0.615712 0.469086 0.800450 0.065957
C80   C     C_R   0.383844 0.360484 0.193913 0.076673
C81   C     C_R   0.839330 0.057267 0.672468 -0.076663
C82   C     C_R   0.161918 0.939860 0.329397 -0.078910
C83   C     C_R   0.660317 0.554460 0.827400 -0.088718
C84   C     C_R   0.337995 0.437447 0.170298 -0.078113
C85   C     C_R   0.827781 0.134163 0.620167 -0.295990
C86   C     C_R   0.175610 0.020452 0.381763 -0.292434
C87   C     C_R   0.672250 0.617583 0.881543 -0.297735
C88   C     C_R   0.323694 0.514572 0.117639 -0.292176
H21   H     H_    0.794902 0.211079 0.602819 0.123801
H22   H     H_    0.210312 0.085872 0.399101 0.126303
H23   H     H_    0.705853 0.688813 0.901278 0.127928
H24   H     H_    0.289167 0.580755 0.100936 0.125597
C89   C     C_R   0.857125 0.110889 0.589526 0.078227
C90   C     C_R   0.145471 0.017259 0.412039 0.074083
C91   C     C_R   0.641251 0.593222 0.910129 0.086069
C92   C     C_R   0.352849 0.506992 0.086211 0.074478
C93   C     C_R   0.897026 0.987169 0.609947 0.318681
C94   C     C_R   0.102848 0.906481 0.391903 0.314281
C95   C     C_R   0.600783 0.472427 0.887124 0.319025
C96   C     C_R   0.395295 0.395962 0.105663 0.315082
C97   C     C_3   0.840712 0.206627 0.533166 -0.346357
C98   C     C_3   0.877184 0.341357 0.526249 -0.316662
C99   C     C_3   0.869314 0.369616 0.465382 -0.712229
H25   H     H_    0.874081 0.238265 0.446294 0.223985
H26   H     H_    0.832797 0.422836 0.442355 0.234130
H27   H     H_    0.895616 0.471018 0.462070 0.233370
H28   H     H_    0.872114 0.476581 0.542720 0.228695
H29   H     H_    0.914392 0.295426 0.548861 0.212097
H30   H     H_    0.828925 0.105413 0.499120 0.221894
H31   H     H_    0.807686 0.287126 0.526133 0.147451
C100  C     C_3   0.163392 0.119182 0.467587 -0.348221
C101  C     C_3   0.129008 0.265960 0.473387 -0.317972
C102  C     C_3   0.140010 0.314305 0.534051 -0.700613
H32   H     H_    0.136571 0.190757 0.557189 0.219558
H33   H     H_    0.176791 0.370317 0.553476 0.230375
H34   H     H_    0.114392 0.419564 0.536823 0.243116
H35   H     H_    0.133346 0.392501 0.452411 0.222452
H36   H     H_    0.091270 0.221817 0.454232 0.211213
H37   H     H_    0.173387 0.021247 0.502242 0.221913
H38   H     H_    0.197641 0.190174 0.474061 0.152292
C103  C     C_3   0.654513 0.692873 0.965773 -0.346199
C104  C     C_3   0.615915 0.826273 0.968218 -0.319476
C105  C     C_3   0.622333 0.871660 0.027887 -0.700782
H39   H     H_    0.619003 0.745178 0.049936 0.219858
H40   H     H_    0.657882 0.935200 0.050096 0.241495
H41   H     H_    0.594331 0.970088 0.028084 0.231274
H42   H     H_    0.618818 0.956123 0.947801 0.223864
H43   H     H_    0.579496 0.770564 0.946580 0.210793
H44   H     H_    0.664487 0.594751 0.000356 0.221135
H45   H     H_    0.687674 0.774898 0.974937 0.158853
C106  C     C_3   0.334039 0.605298 0.030335 -0.348302
C107  C     C_3   0.367829 0.752317 0.023324 -0.317662
C108  C     C_3   0.356210 0.795720 0.962335 -0.703337
H46   H     H_    0.359937 0.670689 0.939730 0.220367
H47   H     H_    0.319187 0.848589 0.942951 0.229157
H48   H     H_    0.381287 0.902019 0.958742 0.243188
H49   H     H_    0.363192 0.880434 0.043670 0.222739
H50   H     H_    0.405711 0.710506 0.042385 0.211478
H51   H     H_    0.323637 0.505303 0.995946 0.222451
H52   H     H_    0.299822 0.675467 0.024278 0.151032
C109  C     C_3   0.217334 0.901783 0.062707 -0.370599
C110  C     C_3   0.234515 0.094441 0.054596 -0.331502
C111  C     C_3   0.282073 0.085292 0.047233 -0.722407
H53   H     H_    0.310174 0.030414 0.085233 0.227882
H54   H     H_    0.278832 0.997489 0.011029 0.232149
H55   H     H_    0.292283 0.224879 0.038964 0.244969
H56   H     H_    0.208138 0.162074 0.017563 0.191420
H57   H     H_    0.238481 0.181907 0.091193 0.202529
H58   H     H_    0.239593 0.853627 0.104866 0.165555
H59   H     H_    0.224285 0.798545 0.035180 0.167688
C112  C     C_3   0.788479 0.200847 0.936417 -0.373789
C113  C     C_3   0.750756 0.050507 0.927263 -0.343641
C114  C     C_3   0.701393 0.133438 0.912487 -0.717345
H60   H     H_    0.700790 0.229824 0.945403 0.260398
H61   H     H_    0.690712 0.206477 0.872388 0.233490
H62   H     H_    0.675496 0.021600 0.908100 0.214865
H63   H     H_    0.750081 0.957983 0.892961 0.201945
H64   H     H_    0.759385 0.966282 0.965273 0.185349
H65   H     H_    0.789014 0.294307 0.970369 0.174335
H66   H     H_    0.777815 0.293246 0.900079 0.189059
C115  C     C_3   0.281491 0.418963 0.436614 -0.369262
C116  C     C_3   0.260680 0.609290 0.439879 -0.328532
C117  C     C_3   0.213947 0.591574 0.448839 -0.727980
H67   H     H_    0.186463 0.525334 0.412229 0.227537
H68   H     H_    0.219251 0.510378 0.486696 0.231456
H69   H     H_    0.201587 0.729477 0.455216 0.248665
H70   H     H_    0.285862 0.692802 0.474290 0.189460
H71   H     H_    0.254358 0.685287 0.400830 0.205011
H72   H     H_    0.260554 0.357525 0.395585 0.164057
H73   H     H_    0.276076 0.320538 0.466247 0.166960
C118  C     C_3   0.720371 0.511895 0.565084 -0.375800
C119  C     C_3   0.732607 0.711925 0.557154 -0.344704
C120  C     C_3   0.780508 0.724971 0.550490 -0.704180
H74   H     H_    0.809990 0.688297 0.589839 0.229617
H75   H     H_    0.781357 0.632570 0.516789 0.237826
H76   H     H_    0.785572 0.867414 0.538905 0.234834
H77   H     H_    0.704699 0.770808 0.519633 0.192115
H78   H     H_    0.733894 0.796555 0.593325 0.204605
H79   H     H_    0.743291 0.465653 0.607222 0.169708
H80   H     H_    0.730914 0.422723 0.537285 0.171422
C121  C     C_3   0.856976 0.126229 0.051592 -0.374753
C122  C     C_3   0.873304 0.318066 0.076438 -0.304909
C123  C     C_3   0.859198 0.354318 0.126023 -0.760975
H81   H     H_    0.819807 0.347172 0.113249 0.230085
H82   H     H_    0.876064 0.251483 0.159018 0.234253
H83   H     H_    0.871435 0.493769 0.143015 0.217737
H84   H     H_    0.912648 0.331420 0.090027 0.201225
H85   H     H_    0.856809 0.424884 0.044583 0.192350
H86   H     H_    0.818050 0.112341 0.040640 0.181987
H87   H     H_    0.871193 0.017530 0.083284 0.164892
C124  C     C_3   0.143358 0.860310 0.949121 -0.375578
C125  C     C_3   0.143331 0.654715 0.935378 -0.311579
C126  C     C_3   0.159532 0.623091 0.887155 -0.761620
H88   H     H_    0.135241 0.694380 0.849500 0.233123
H89   H     H_    0.196494 0.675160 0.897830 0.226659
H90   H     H_    0.158951 0.473481 0.878121 0.219955
H91   H     H_    0.167803 0.579703 0.972174 0.190013
H92   H     H_    0.106982 0.596066 0.924418 0.199991
H93   H     H_    0.120094 0.939044 0.912622 0.167260
H94   H     H_    0.178934 0.918904 0.956120 0.188309
C127  C     C_3   0.649296 0.334321 0.461666 -0.364714
C128  C     C_3   0.659790 0.469077 0.422425 -0.308806
C129  C     C_3   0.673602 0.366827 0.379369 -0.762840
H95   H     H_    0.706144 0.283143 0.400081 0.226937
H96   H     H_    0.644002 0.275453 0.353803 0.230434
H97   H     H_    0.681128 0.467545 0.351700 0.221728
H98   H     H_    0.627819 0.554683 0.400782 0.195730
H99   H     H_    0.689573 0.562063 0.446077 0.208008
H100  H     H_    0.680412 0.244547 0.482706 0.159673
H101  H     H_    0.622242 0.232041 0.437301 0.170020
C130  C     C_3   0.354219 0.434497 0.551708 -0.378153
C131  C     C_3   0.360095 0.239368 0.575700 -0.310872
C132  C     C_3   0.345385 0.230423 0.625668 -0.762224
H102  H     H_    0.367969 0.324371 0.658936 0.233557
H103  H     H_    0.307324 0.269787 0.613537 0.227127
H104  H     H_    0.349988 0.087896 0.642013 0.220251
H105  H     H_    0.337508 0.142067 0.543454 0.190791
H106  H     H_    0.397737 0.193705 0.588572 0.200858
H107  H     H_    0.374182 0.536997 0.583666 0.166754
H108  H     H_    0.316844 0.477265 0.541464 0.190949
C133  C     C_3   0.943155 0.744012 0.683830 -0.347068
C134  C     C_3   0.931092 0.581566 0.643995 -0.765894
H109  H     H_    0.938241 0.614601 0.606387 0.234384
H110  H     H_    0.953855 0.462187 0.664067 0.242657
H111  H     H_    0.893265 0.541253 0.633458 0.228616
H112  H     H_    0.980482 0.787426 0.693700 0.223932
H113  H     H_    0.942132 0.683433 0.722259 0.168920
C135  C     C_3   0.051507 0.670736 0.318072 -0.349807
C136  C     C_3   0.062427 0.505028 0.356303 -0.772107
H114  H     H_    0.034618 0.397887 0.338326 0.250537
H115  H     H_    0.097346 0.445860 0.360086 0.225090
H116  H     H_    0.062440 0.543066 0.397532 0.241210
H117  H     H_    0.015512 0.722885 0.311431 0.224143
H118  H     H_    0.049214 0.613524 0.277643 0.169712
C137  C     C_3   0.553529 0.244968 0.807371 -0.342282
C138  C     C_3   0.560470 0.075879 0.843965 -0.758812
H119  H     H_    0.554182 0.106826 0.882267 0.234988
H120  H     H_    0.596665 0.019306 0.853728 0.225983
H121  H     H_    0.534387 0.967950 0.821171 0.235986
H122  H     H_    0.516512 0.295116 0.794856 0.225222
H123  H     H_    0.556691 0.189588 0.769177 0.166183
C139  C     C_3   0.446360 0.158841 0.178099 -0.348772
C140  C     C_3   0.434306 0.994214 0.139004 -0.773491
H124  H     H_    0.461613 0.885438 0.156131 0.250804
H125  H     H_    0.399207 0.936960 0.135411 0.225889
H126  H     H_    0.434125 0.032574 0.097821 0.241438
H127  H     H_    0.482469 0.209578 0.184450 0.223915
H128  H     H_    0.448906 0.099898 0.218242 0.169817
C141  C     C_3   0.905894 0.960951 0.760440 -0.386775
C142  C     C_3   0.916804 0.156533 0.784188 -0.750998
H129  H     H_    0.936327 0.234873 0.762677 0.241494
H130  H     H_    0.883653 0.231031 0.779863 0.228246
H131  H     H_    0.939606 0.152113 0.828882 0.210519
H132  H     H_    0.882016 0.889092 0.777488 0.174435
H133  H     H_    0.940608 0.889521 0.776356 0.179492
C143  C     C_3   0.089961 0.892892 0.242484 -0.380413
C144  C     C_3   0.083544 0.099243 0.229411 -0.744298
H134  H     H_    0.067115 0.167809 0.256149 0.245397
H135  H     H_    0.118307 0.165967 0.236172 0.230289
H136  H     H_    0.059845 0.122546 0.185868 0.202641
H137  H     H_    0.110399 0.827456 0.219688 0.168060
H138  H     H_    0.053747 0.832026 0.226350 0.181765
C145  C     C_3   0.591712 0.491387 0.737927 -0.376917
C146  C     C_3   0.580103 0.694946 0.723988 -0.748147
H139  H     H_    0.560871 0.752674 0.749345 0.242888
H140  H     H_    0.613105 0.776065 0.731870 0.231898
H141  H     H_    0.556793 0.711505 0.679850 0.203276
H142  H     H_    0.615056 0.438354 0.716930 0.169343
H143  H     H_    0.557330 0.417309 0.719947 0.177794
C147  C     C_3   0.409531 0.372871 0.256566 -0.382545
C148  C     C_3   0.417253 0.575475 0.274498 -0.748569
H144  H     H_    0.432378 0.652690 0.248054 0.245727
H145  H     H_    0.383194 0.640429 0.271539 0.226566
H146  H     H_    0.442790 0.587962 0.317872 0.206365
H147  H     H_    0.388806 0.301407 0.277905 0.171452
H148  H     H_    0.445483 0.310758 0.271491 0.181942

loop_
_geom_bond_atom_site_label_1
_geom_bond_atom_site_label_2
_ccdc_geom_bond_type
C59   C63   A    
C77   C81   A    
C97   C98   S    
N3    C51   A    
C9    C21   A    
C86   H22   S    
C137  C138  S    
C10   C18   A    
C80   C84   A    
C11   C23   A    
C79   C83   A    
C130  H107  S    
C135  C136  S    
C23   H8    S    
C55   C59   A    
C141  H132  S    
C60   C64   A    
C89   C93   A    
C122  C123  S    
C80   C147  S    
C1    O15   A    
C92   C96   A    
C2    O16   A    
O2    C6    A    
C99   H26   S    
C147  C148  S    
C91   C95   A    
C76   C139  S    
C85   H21   S    
C115  H73   S    
C34   C37   A    
C87   C91   A    
C56   C68   A    
C135  H118  S    
C111  H53   S    
C109  H59   S    
C74   C78   A    
C68   H16   S    
C92   C106  S    
C119  C120  S    
C20   C115  S    
C146  H141  S    
C104  C105  S    
C127  H100  S    
N2    C50   A    
C61   C70   A    
C58   C62   A    
O4    V2    S    
C103  H45   S    
C63   C72   A    
C17   C112  S    
C120  H74   S    
C118  C119  S    
C44   H4    S    
C142  H129  S    
C121  H86   S    
C73   C77   A    
C101  C102  S    
O6    V2    S    
C132  H103  S    
C110  H57   S    
C98   C99   S    
C12   C20   A    
C139  C140  S    
C128  H99   S    
C48   N4    A    
C129  H96   S    
C75   C137  S    
C138  H120  S    
C136  H115  S    
C42   H2    S    
C25   C29   A    
C112  H66   S    
C27   C31   A    
C16   C130  S    
C37   C41   A    
C106  C107  S    
C131  H106  S    
C62   C69   A    
O17   V3    S    
C35   C36   A    
C133  H112  S    
O18   V4    S    
C113  H63   S    
O19   V1    S    
C57   C58   A    
C116  H70   S    
C45   C61   A    
C101  H36   S    
C126  H88   S    
C47   C63   A    
C40   C44   A    
C3    C82   S    
C120  H76   S    
C1    C84   S    
C91   C103  S    
O1    V3    S    
C25   C33   A    
C143  C144  S    
O2    V4    S    
C127  C128  S    
O3    V1    S    
C28   C36   A    
C83   C87   A    
C37   H9    S    
C111  H55   S    
C10   C22   A    
C11   C19   A    
O8    C4    A    
C13   C29   A    
C124  H94   S    
C48   O24   S    
C121  C122  S    
C102  H33   S    
C38   C42   A    
C47   O23   S    
C74   C94   A    
C97   H30   S    
C148  H145  S    
C125  H91   S    
C115  C116  S    
C32   C44   A    
C122  H84   S    
C143  H137  S    
C145  C146  S    
C21   H6    S    
C146  H140  S    
O5    C1    A    
C24   C28   A    
C76   C80   A    
C7    C10   S    
C66   H14   S    
C114  H60   S    
C46   C62   A    
C123  H82   S    
C119  H77   S    
C98   H28   S    
C70   H18   S    
C49   O25   S    
C107  H49   S    
C141  C142  S    
C147  H148  S    
C48   C64   A    
C143  H138  S    
C53   C57   A    
C100  H37   S    
O16   V4    S    
C65   C69   A    
C126  H90   S    
C67   C71   A    
C38   H10   S    
C130  C131  S    
O11   V3    S    
C30   C42   A    
O12   V4    S    
O10   C6    A    
C128  C129  S    
C52   O28   S    
C88   C92   A    
C117  H69   S    
C73   C93   A    
C79   C145  S    
C33   C34   A    
C56   C60   A    
C76   C96   A    
C12   C24   A    
C51   O27   S    
C139  H127  S    
C13   C17   A    
C109  C110  S    
C140  H126  S    
C51   C55   A    
C16   C20   A    
N3    C96   S    
C22   H5    S    
C45   N1    A    
C115  H72   S    
C47   N3    A    
C106  H52   S    
O13   V1    S    
C109  H58   S    
C123  H81   S    
C67   H15   S    
O15   V3    S    
C118  H80   S    
C26   C30   A    
C50   O26   S    
O9    V1    S    
O4    C8    A    
C54   C58   A    
C114  H62   S    
C103  H44   S    
C15   C31   A    
C145  H143  S    
C113  C114  S    
C16   C32   A    
C134  H111  S    
C142  H130  S    
C104  H42   S    
C105  H41   S    
C132  H102  S    
C40   H12   S    
C50   C54   A    
C130  H108  S    
C142  H131  S    
C112  C113  S    
C26   C34   A    
C82   C86   A    
C100  C101  S    
N1    C49   A    
C23   C27   A    
C141  H133  S    
C68   C72   A    
C87   H23   S    
C140  H124  S    
N4    C95   S    
C136  H114  S    
C148  H146  S    
C99   H25   S    
C14   C30   A    
C21   C25   A    
C112  H65   S    
C99   H27   S    
C55   C67   A    
C135  H117  S    
C2    C83   S    
C117  H67   S    
C125  C126  S    
C81   C85   A    
C145  H142  S    
C3    O13   A    
C113  H64   S    
C18   C109  S    
C127  H101  S    
C84   C88   A    
O6    C2    A    
C116  H71   S    
C8    C9    S    
C9    C17   A    
C86   C90   A    
C75   C95   A    
C137  H122  S    
C148  H144  S    
C120  H75   S    
C46   N2    A    
C144  H134  S    
C41   H1    S    
C90   C100  S    
C121  H87   S    
C43   H3    S    
C108  H46   S    
C72   H20   S    
C144  H135  S    
C105  H39   S    
C131  C132  S    
C103  C104  S    
C132  H104  S    
C45   O21   S    
C110  H56   S    
C111  H54   S    
C89   C97   S    
C124  H93   S    
O1    C5    A    
C102  H32   S    
O3    C7    A    
C128  H98   S    
C52   C56   A    
C88   H24   S    
C129  H97   S    
C85   C89   A    
C33   C38   A    
C5    C12   S    
C39   H11   S    
O7    C3    A    
C6    C11   S    
C35   C40   A    
C36   C39   A    
C138  H119  S    
N2    C93   S    
C14   C18   A    
C136  H116  S    
C75   C79   A    
C125  H92   S    
C122  H85   S    
C108  H47   S    
C74   C135  S    
C15   C127  S    
C53   C65   A    
N4    C52   A    
C131  H105  S    
C73   C133  S    
C110  C111  S    
O14   V2    S    
C119  H78   S    
C98   H29   S    
N1    C94   S    
O11   C7    A    
C133  H113  S    
C107  H50   S    
O12   C8    A    
C49   C53   A    
C24   H7    S    
O10   V2    S    
C19   C118  S    
O5    V1    S    
C101  H35   S    
C39   C43   A    
C126  H89   S    
O7    V3    S    
O9    C5    A    
O8    V4    S    
C46   O22   S    
C144  H136  S    
C15   C19   A    
C107  C108  S    
C108  H48   S    
C117  H68   S    
C13   C121  S    
C59   C60   A    
C65   H13   S    
C139  H128  S    
C140  H125  S    
C77   C141  S    
C69   H17   S    
C71   H19   S    
C102  H34   S    
C134  H110  S    
C27   C35   A    
C129  H95   S    
C29   C41   A    
C66   C70   A    
C54   C66   A    
C106  H51   S    
C134  H109  S    
C138  H121  S    
C97   H31   S    
C78   C82   A    
C64   C71   A    
C31   C43   A    
C124  C125  S    
C118  H79   S    
C22   C26   A    
C146  H139  S    
O20   V2    S    
C116  C117  S    
C14   C124  S    
C114  H61   S    
C123  H83   S    
C137  H123  S    
C104  H43   S    
C90   C94   A    
C4    O14   A    
C147  H147  S    
C4    C81   S    
C133  C134  S    
C57   C61   A    
C28   C32   A    
C78   C143  S    
C100  H38   S    
C105  H40   S    
