data_str_m12_o4_o9_f0_bcu.sym.86
_audit_creation_date              2012-12-11T17:10:39-0500
_audit_creation_method            fapswitch 2.2
_symmetry_space_group_name_H-M    P1
_symmetry_Int_Tables_number       1
_space_group_crystal_system       triclinic
_cell_length_a                    14.829541
_cell_length_b                    14.80648
_cell_length_c                    15.019787
_cell_angle_alpha                 109.471651
_cell_angle_beta                  110.318471
_cell_angle_gamma                 109.014817
_cell_volume                      2526.17239287

loop_
_atom_site_label
_atom_site_type_symbol
_atom_type_description
_atom_site_fract_x
_atom_site_fract_y
_atom_site_fract_z
_atom_type_partial_charge
C1    C     C_R   0.198511 0.290950 0.195358 -0.124861
C2    C     C_R   0.561632 0.561280 0.863874 0.081167
C3    C     C_R   0.452093 0.171797 0.497441 0.074649
C4    C     C_R   0.172311 0.444567 0.497324 0.047883
C5    C     C_R   0.390620 0.701362 0.410880 -0.010526
C6    C     C_R   0.800964 0.495745 0.592753 -0.142884
C7    C     C_R   0.563150 0.469504 0.247567 -0.215827
C8    C     C_R   0.722454 0.815221 0.747386 -0.147438
C9    C     C_R   0.815424 0.723171 0.747183 -0.124908
C10   C     C_R   0.481628 0.571702 0.259171 0.597409
C11   C     C_R   0.490605 0.797658 0.591390 -0.146440
C12   C     C_R   0.593513 0.500888 0.802782 -0.140270
C13   C     C_R   0.708673 0.401990 0.410857 -0.123585
C14   C     C_R   0.417219 0.793207 0.501084 0.028869
C15   C     C_R   0.801992 0.429248 0.503154 0.065505
C16   C     C_R   0.550139 0.548594 0.223853 -0.101984
C17   C     C_R   0.825795 0.826451 0.771589 0.020399
C18   C     C_R   0.854186 0.134087 0.098453 -0.102513
C19   C     C_R   0.876036 0.219829 0.193515 -0.162650
C20   C     C_R   0.947023 0.240555 0.297853 0.100746
C21   C     C_R   0.997203 0.175242 0.304891 -0.140517
C22   C     C_R   0.975156 0.089808 0.209683 -0.101294
C23   C     C_R   0.436448 0.183954 0.406572 -0.133057
C24   C     C_R   0.902497 0.068253 0.106626 -0.093899
C25   C     C_R   0.872400 0.328502 0.403121 -0.233799
C26   C     C_R   0.882409 0.390327 0.503710 0.046607
C27   C     C_R   0.977306 0.424536 0.601878 0.054838
C28   C     C_R   0.071574 0.430833 0.598002 -0.222510
C29   C     C_R   0.068537 0.394510 0.497554 0.051317
C30   C     C_R   0.964129 0.324817 0.399621 0.037629
C31   C     C_R   0.066003 0.545398 0.805477 -0.242689
C32   C     C_R   0.067758 0.565869 0.904060 -0.283516
C33   C     C_R   0.982589 0.489285 0.905192 0.712669
C34   C     C_R   0.276542 0.523528 0.590187 -0.090954
C35   C     C_R   0.898708 0.390035 0.807640 -0.266132
C36   C     C_R   0.896753 0.369419 0.708943 -0.214947
C37   C     C_R   0.979599 0.447615 0.706786 0.126761
C38   C     C_R   0.518945 0.621021 0.006930 0.122982
C39   C     C_R   0.587510 0.592114 0.974907 0.048412
C40   C     C_R   0.667309 0.578346 0.044752 -0.211634
C41   C     C_R   0.663774 0.574758 0.135522 -0.185487
C42   C     C_R   0.580132 0.584242 0.154604 0.042907
C43   C     C_R   0.514103 0.615499 0.094111 0.184992
C44   C     C_3   0.390512 0.568265 0.036767 -0.385450
C45   C     C_R   0.527822 0.275478 0.590723 -0.131033
C46   C     C_3   0.396158 0.574844 0.940839 -0.568142
C47   C     C_R   0.348476 0.873655 0.397429 0.109282
C48   C     C_R   0.378675 0.871514 0.495500 -0.027301
C49   C     C_R   0.404789 0.963425 0.589924 0.202535
C50   C     C_R   0.421056 0.061544 0.589064 -0.248789
C51   C     C_R   0.405901 0.066701 0.493667 0.004547
C52   C     C_R   0.362079 0.970293 0.396462 0.145690
C53   C     C_3   0.249572 0.912133 0.296973 -0.508588
C54   C     C_3   0.234383 0.807074 0.298253 -0.467287
C55   C     C_R   0.019505 0.122148 0.966559 0.036826
C56   C     C_R   0.183924 0.433266 0.406551 -0.129484
C57   C     C_R   0.117199 0.119687 0.014721 0.098123
C58   C     C_R   0.124227 0.027257 0.958980 -0.185652
C59   C     C_R   0.030219 0.933579 0.864601 -0.145391
C60   C     C_R   0.927994 0.930865 0.826210 0.131879
C61   C     C_R   0.925493 0.028489 0.872513 -0.085936
C62   C     C_3   0.902040 0.094499 0.819721 0.553779
C63   C     C_3   0.004631 0.195993 0.922145 -0.552331
C64   C     C_R   0.503142 0.594594 0.802051 -0.153107
C65   C     C_R   0.290945 0.199697 0.195618 -0.144998
C66   C     C_R   0.197227 0.198191 0.131149 0.054971
H1    H     H_    0.146049 0.323381 0.166722 0.111587
H2    H     H_    0.853605 0.524792 0.678003 0.114044
H3    H     H_    0.611313 0.431882 0.231578 0.138142
H4    H     H_    0.700730 0.879305 0.757087 0.092611
H5    H     H_    0.879590 0.701604 0.756861 0.096085
H6    H     H_    0.522215 0.852540 0.676430 0.145416
H7    H     H_    0.674762 0.340780 0.326886 0.088240
H8    H     H_    0.883638 0.000371 0.033141 0.111219
H9    H     H_    0.798967 0.117977 0.018360 0.116661
H10   H     H_    0.837348 0.269573 0.185592 0.116208
H11   H     H_    0.652807 0.475168 0.831543 0.089489
H12   H     H_    0.051654 0.188973 0.384088 0.119708
H13   H     H_    0.013250 0.039305 0.215794 0.110748
H14   H     H_    0.793929 0.283777 0.327214 0.121345
H15   H     H_    0.147594 0.466509 0.673968 0.124473
H16   H     H_    0.131477 0.606155 0.805995 0.144792
H17   H     H_    0.135306 0.641131 0.979542 0.136318
H18   H     H_    0.834422 0.329174 0.808237 0.141805
H19   H     H_    0.830685 0.292566 0.634162 0.143574
H20   H     H_    0.724703 0.560218 0.024046 0.125809
H21   H     H_    0.383681 0.120078 0.321142 0.103724
H22   H     H_    0.718730 0.554409 0.183569 0.136283
H23   H     H_    0.344442 0.481980 0.018162 0.184137
H24   H     H_    0.364927 0.625423 0.075669 0.222813
H25   H     H_    0.352837 0.492245 0.866278 0.214794
H26   H     H_    0.375292 0.636265 0.926526 0.195061
H27   H     H_    0.447915 0.133908 0.663502 0.161076
H28   H     H_    0.192485 0.938864 0.313823 0.202020
H29   H     H_    0.253926 0.912236 0.224590 0.182587
H30   H     H_    0.168519 0.772147 0.316069 0.202192
H31   H     H_    0.299104 0.554801 0.675064 0.093427
H32   H     H_    0.229567 0.746337 0.226391 0.201152
H33   H     H_    0.198993 0.022868 0.992375 0.122757
H34   H     H_    0.035893 0.860402 0.829354 0.117744
H35   H     H_    0.824551 0.096925 0.808773 -0.010227
H36   H     H_    0.073171 0.235259 0.909095 0.222985
H37   H     H_    0.985599 0.254707 0.969997 0.166683
H38   H     H_    0.560227 0.295951 0.675421 0.102822
H39   H     H_    0.120502 0.382329 0.320930 0.119881
H40   H     H_    0.481728 0.657347 0.830682 0.111952
H41   H     H_    0.324729 0.148929 0.168338 0.091822
H42   H     H_    0.324038 0.664653 0.327784 0.135220
N1    N     N_R   0.291070 0.347930 0.293870 -0.046220
N2    N     N_R   0.708930 0.502750 0.556810 -0.042052
N3    N     N_R   0.502760 0.445970 0.293860 -0.067716
N4    N     N_R   0.652110 0.708890 0.706130 -0.035102
N5    N     N_R   0.708930 0.652070 0.706130 -0.040435
N6    N     N_R   0.445950 0.502780 0.293850 -0.100084
N7    N     N_R   0.502760 0.708900 0.556790 -0.053974
N8    N     N_R   0.652110 0.445950 0.443190 -0.036751
N9    N     N_R   0.554050 0.497220 0.706150 -0.039081
N10   N     N_R   0.497240 0.291100 0.443210 -0.040478
N11   N     N_R   0.347890 0.554050 0.556810 -0.038312
N12   N     N_R   0.554050 0.347900 0.556830 -0.040798
N13   N     N_R   0.291070 0.497250 0.443190 -0.047767
N14   N     N_R   0.497240 0.554030 0.706140 -0.040216
N15   N     N_R   0.347890 0.291110 0.293870 -0.036776
N16   N     N_R   0.445950 0.652100 0.443170 -0.048471
Ni1   Ni    Ni4+2 0.369690 0.500010 0.369700 0.220028
Ni2   Ni    Ni4+2 0.630310 0.499990 0.630300 0.206969
Ni3   Ni    Ni4+2 0.500000 0.369720 0.369720 0.203566
Ni4   Ni    Ni4+2 0.500000 0.630280 0.630280 0.218001
O1    O     O_3   0.459462 0.656662 0.265788 -0.654020
C67   C     C_3   0.559735 0.759614 0.336873 -0.303225
H43   H     H_    0.609308 0.775463 0.297504 0.149459
H44   H     H_    0.611343 0.766491 0.415849 0.140620
H45   H     H_    0.538919 0.826463 0.357036 0.172793
O2    O     O_3   0.984169 0.506937 0.002172 -0.628762
C68   C     C_3   0.957852 0.590898 0.036147 -0.314119
H46   H     H_    0.876873 0.570355 0.970866 0.129488
H47   H     H_    0.024670 0.672380 0.061361 0.152060
H48   H     H_    0.950198 0.598483 0.108856 0.184203
I1    I     I_    0.410276 0.959834 0.731843 -0.491206
O3    O     O_3   0.916078 0.070210 0.727622 -0.576161
C69   C     C_3   0.811327 0.003665 0.630240 -0.235240
H49   H     H_    0.765886 0.050051 0.623012 0.128710
H50   H     H_    0.760793 0.926087 0.625673 0.125593
H51   H     H_    0.823723 0.980183 0.558984 0.170742

loop_
_geom_bond_atom_site_label_1
_geom_bond_atom_site_label_2
_ccdc_geom_bond_type
C68   H48   S    
C40   C41   A    
C18   H9    S    
N2    N8    A    
C53   H29   S    
C25   H14   S    
C41   C42   A    
C3    C23   A    
C19   C20   A    
C57   C66   S    
C43   C44   S    
C2    C12   A    
C23   N10   A    
C68   H46   S    
C20   C30   S    
C53   C54   S    
C5    N16   A    
C28   C29   A    
C26   C27   A    
C29   C30   A    
C31   H16   S    
C18   C24   A    
C36   C37   A    
C22   H13   S    
C69   H50   S    
C38   C39   A    
C11   C14   A    
N12   Ni2   S    
C46   H26   S    
C34   N11   A    
C34   H31   S    
C18   C19   A    
C40   H20   S    
C41   H22   S    
C1    N1    A    
C6    C15   A    
C2    C39   S    
C49   I1    S    
C35   C36   A    
C44   C46   S    
N8    Ni3   S    
C55   C63   S    
C21   H12   S    
C11   N7    A    
N9    Ni2   S    
C54   H30   S    
C4    C29   S    
C10   N6    A    
C62   H35   S    
N11   Ni4   S    
C6    H2    S    
C53   H28   S    
C1    H1    S    
C59   C60   A    
C23   H21   S    
C21   C22   A    
C4    C56   A    
C59   H34   S    
C6    N2    A    
C63   H36   S    
C33   O2    S    
N4    N5    A    
C2    C64   A    
C1    C66   A    
N11   N13   A    
C4    C34   A    
C38   C46   S    
C51   C52   A    
O3    C69   S    
C63   H37   S    
C69   H51   S    
C39   C40   A    
N6    Ni1   S    
C3    C51   S    
C11   H6    S    
N1    N15   A    
C15   C26   S    
C14   C48   S    
N5    Ni2   S    
C58   C59   A    
C3    C45   A    
N7    Ni4   S    
C31   C37   A    
C60   C61   A    
C67   H44   S    
N9    N14   A    
N13   Ni1   S    
C62   C63   S    
C45   H38   S    
N15   Ni3   S    
C47   C48   A    
C12   H11   S    
C50   C51   A    
C5    C14   A    
C47   C52   A    
N2    Ni2   S    
C47   C54   S    
C45   N12   A    
C9    C17   A    
C48   C49   A    
C13   H7    S    
C49   C50   A    
C55   C57   A    
N3    Ni3   S    
C22   C24   A    
C67   H45   S    
N10   Ni3   S    
C16   C42   S    
C44   H24   S    
C52   C53   S    
O1    C67   S    
N1    Ni1   S    
C25   C30   A    
C68   H47   S    
C32   H17   S    
C19   H10   S    
N7    N16   A    
C28   H15   S    
C31   C32   A    
C7    C16   A    
C58   H33   S    
C9    H5    S    
C7    H3    S    
C35   H18   S    
C50   H27   S    
C64   H40   S    
O2    C68   S    
C46   H25   S    
C36   H19   S    
C8    H4    S    
C8    C17   A    
C9    N5    A    
C32   C33   A    
C13   C15   A    
C67   H43   S    
C25   C26   A    
C10   O1    S    
C38   C43   A    
C10   C16   A    
C69   H49   S    
C56   N13   A    
C24   H8    S    
C57   C58   A    
C27   C37   S    
C64   N14   A    
C55   C61   A    
C33   C35   A    
C8    N4    A    
C7    N3    A    
N3    N6    A    
C65   N15   A    
N14   Ni4   S    
C61   C62   S    
N10   N12   A    
C56   H39   S    
N4    Ni4   S    
C13   N8    A    
C17   C60   S    
C12   N9    A    
C20   C21   A    
C65   C66   A    
C42   C43   A    
C27   C28   A    
C54   H32   S    
C62   O3    S    
C65   H41   S    
C44   H23   S    
N16   Ni1   S    
C5    H42   S    
