data_str_m3_o5_o29_f0_pcu.sym.77
_audit_creation_date              2013-03-05T16:48:44-0500
_audit_creation_method            fapswitch 2.2
_symmetry_space_group_name_H-M    P1
_symmetry_Int_Tables_number       1
_space_group_crystal_system       triclinic
_cell_length_a                    27.769914
_cell_length_b                    8.916577
_cell_length_c                    8.098852
_cell_angle_alpha                 90.004468
_cell_angle_beta                  90.000139
_cell_angle_gamma                 90.00012
_cell_volume                      2005.37760402

loop_
_atom_site_label
_atom_site_type_symbol
_atom_site_description
_atom_site_fract_x
_atom_site_fract_y
_atom_site_fract_z
_atom_type_partial_charge
O1    O     O_R   0.500000 0.285350 0.636850 -0.614249
O2    O     O_R   0.500000 0.714650 0.363150 -0.614247
O3    O     O_R   0.500000 0.714650 0.636850 -0.616379
O4    O     O_R   0.500000 0.285350 0.363150 -0.616380
C1    C     C_R   0.500000 0.217997 0.499994 0.943111
C2    C     C_R   0.500000 0.782003 0.500006 0.943115
O5    O     O_R   0.428760 0.500000 0.636860 -0.624178
O6    O     O_R   0.571240 0.500000 0.363140 -0.624181
O7    O     O_R   0.571240 0.500000 0.636860 -0.624181
O8    O     O_R   0.428760 0.500000 0.363140 -0.624179
C3    C     C_R   0.405777 0.499998 0.500000 0.925277
C4    C     C_R   0.594223 0.499997 0.500000 0.925279
Zn1   Zn    Zn3+2 0.500000 0.500000 0.682780 0.997589
Zn2   Zn    Zn3+2 0.500000 0.500000 0.317220 0.997588
C5    C     C_R   0.177784 0.368707 0.528593 0.604789
C6    C     C_R   0.822219 0.631268 0.472047 0.604781
C7    C     C_R   0.177782 0.631177 0.471398 0.604783
C8    C     C_R   0.822219 0.368574 0.527964 0.604795
O9    O     O_2   0.202862 0.241480 0.556439 -0.519592
O10   O     O_2   0.797142 0.758609 0.444820 -0.519437
O11   O     O_2   0.202858 0.758409 0.443552 -0.519599
O12   O     O_2   0.797143 0.241232 0.555191 -0.519428
N1    N     N_R   0.201607 0.499945 0.499996 -0.318308
N2    N     N_R   0.798395 0.499921 0.500006 -0.318348
C9    C     C_R   0.277626 0.533373 0.646262 0.439355
C10   C     C_R   0.722372 0.466550 0.353736 0.439383
C11   C     C_R   0.277629 0.466551 0.353735 0.439353
C12   C     C_R   0.722375 0.533333 0.646276 0.439404
C13   C     C_R   0.328009 0.532421 0.645648 -0.331656
C14   C     C_R   0.671989 0.467541 0.354347 -0.331660
C15   C     C_R   0.328011 0.467535 0.354349 -0.331655
C16   C     C_R   0.671992 0.532389 0.645658 -0.331657
C17   C     C_R   0.252890 0.499951 0.499998 0.247022
C18   C     C_R   0.747110 0.499924 0.500007 0.246927
C19   C     C_R   0.101803 0.499935 0.499995 -0.047326
C20   C     C_R   0.898199 0.499923 0.500001 -0.047390
C21   C     C_R   0.127430 0.366179 0.529134 -0.038964
C22   C     C_R   0.872572 0.633791 0.471504 -0.038941
C23   C     C_R   0.127428 0.633696 0.470855 -0.038961
C24   C     C_R   0.872573 0.366053 0.528502 -0.038946
C25   C     C_R   0.102489 0.233254 0.558287 -0.123708
C26   C     C_R   0.897514 0.766839 0.443062 -0.123529
C27   C     C_R   0.102485 0.766617 0.441702 -0.123711
C28   C     C_R   0.897516 0.233008 0.556942 -0.123531
C29   C     C_R   0.353205 0.499986 0.499999 -0.112155
C30   C     C_R   0.646796 0.499978 0.500002 -0.112157
H1    H     H_    0.347426 0.441820 0.241804 0.172001
H2    H     H_    0.652578 0.558100 0.758206 0.171996
H3    H     H_    0.347422 0.558149 0.758193 0.171999
H4    H     H_    0.652573 0.441854 0.241796 0.171999
H5    H     H_    0.121455 0.129123 0.581323 0.191995
H6    H     H_    0.878547 0.871081 0.420686 0.191687
H7    H     H_    0.121450 0.870751 0.418665 0.191992
H8    H     H_    0.878551 0.128764 0.579321 0.191682
C31   C     C_R   0.974462 0.363652 0.529341 0.048263
C32   C     C_R   0.025540 0.636155 0.470362 0.048228
C33   C     C_R   0.974460 0.636202 0.470656 0.048263
C34   C     C_R   0.025542 0.363705 0.529631 0.048227
C35   C     C_R   0.949277 0.499926 0.499999 0.079077
C36   C     C_R   0.050725 0.499932 0.499996 0.079141
C37   C     C_R   0.947381 0.231442 0.557498 -0.210425
C38   C     C_R   0.052621 0.768202 0.441248 -0.210707
C39   C     C_R   0.947378 0.768409 0.442502 -0.210427
C40   C     C_R   0.052624 0.231662 0.558742 -0.210707
H9    H     H_    0.963280 0.123620 0.580758 0.135503
H10   H     H_    0.036725 0.875868 0.417034 0.136002
H11   H     H_    0.963276 0.876234 0.419243 0.135503
H12   H     H_    0.036729 0.123993 0.582956 0.136002
C41   C     C_1   0.500000 0.065221 0.499992 -0.178303
C42   C     C_1   0.500000 0.934779 0.500008 -0.178304
N3    N     N_1   0.500000 0.500000 0.073640 -0.033996
N4    N     N_1   0.500000 0.500000 0.926360 -0.033995
O13   O     O_3   0.251627 0.433529 0.213033 -0.723527
H13   H     H_    0.274343 0.409915 0.122208 0.344380
O14   O     O_3   0.748378 0.566317 0.786984 -0.723521
H14   H     H_    0.725664 0.589993 0.877795 0.344354
O15   O     O_3   0.251622 0.566382 0.786961 -0.723528
H15   H     H_    0.274336 0.590031 0.877782 0.344376
O16   O     O_3   0.748373 0.433553 0.213024 -0.723520
H16   H     H_    0.725657 0.409946 0.122204 0.344371

loop_
_geom_bond_atom_site_label_1
_geom_bond_atom_site_label_2
_geom_bond_distance
_ccdc_geom_bond_type
C31   C35   1.422001 A    
Zn2   N3    1.972718 S    
C19   C23   1.408764 A    
C20   C35   1.418434 A    
C13   H3    1.083523 S    
O15   H15   0.991640 S    
C11   C17   1.401356 A    
O5    C3    1.279030 A    
C7    N1    1.364059 A    
C9    O15   1.380773 S    
C40   H12   1.074705 S    
C19   C21   1.408762 A    
C22   C26   1.392918 A    
C7    C23   1.398500 A    
C33   C35   1.422006 A    
C34   C36   1.422027 A    
O7    Zn1   2.012980 S    
C32   C33   1.418484 A    
O13   H13   0.991625 S    
C8    C24   1.398519 A    
C5    C21   1.398509 A    
C20   C24   1.408740 A    
C1    C41   1.362242 S    
C27   H7    1.083671 S    
N1    C17   1.424141 S    
C8    N2    1.364057 A    
O3    Zn1   1.949784 S    
C6    O10   1.350129 S    
O3    C2    1.260578 A    
C5    N1    1.364061 A    
C14   H4    1.083530 S    
C12   C18   1.401372 A    
C6    N2    1.364056 A    
C15   H1    1.083532 S    
C21   C25   1.392943 A    
C16   H2    1.083532 S    
O2    C2    1.260577 A    
C10   C18   1.401357 A    
C33   C39   1.416792 A    
C9    C13   1.399152 A    
C39   H11   1.074592 S    
C38   H10   1.074703 S    
C11   C15   1.399151 A    
C12   C16   1.399155 A    
C4    C30   1.459931 S    
O8    Zn2   2.012982 S    
C23   C27   1.392943 A    
C34   C40   1.416840 A    
N2    C18   1.424161 S    
C32   C36   1.422030 A    
C13   C29   1.401642 A    
C19   C36   1.418437 A    
C5    O9    1.350126 S    
O14   H14   0.991627 S    
C28   H8    1.083617 S    
C24   C28   1.392917 A    
O6    C4    1.279035 A    
C10   C14   1.399163 A    
C32   C38   1.416844 A    
C3    C29   1.459914 S    
O1    Zn1   1.949728 S    
O1    C1    1.260577 A    
C2    C42   1.362242 S    
O6    Zn2   2.012978 S    
C8    O12   1.350125 S    
C16   C30   1.401645 A    
C14   C30   1.401647 A    
O4    C1    1.260578 A    
Zn1   N4    1.972718 S    
C28   C37   1.384819 A    
C10   O16   1.380790 S    
C20   C22   1.408739 A    
N3    N4    1.192798 T    
C31   C37   1.416791 A    
O4    Zn2   1.949785 S    
C41   C42   1.163099 T    
O2    Zn2   1.949727 S    
O7    C4    1.279033 A    
C7    O11   1.350126 S    
C9    C17   1.401356 A    
O8    C3    1.279032 A    
O16   H16   0.991568 S    
C37   H9    1.074593 S    
O5    Zn1   2.012980 S    
C15   C29   1.401640 A    
C31   C34   1.418498 A    
C6    C22   1.398503 A    
C25   C40   1.384824 A    
C11   O13   1.380776 S    
C12   O14   1.380766 S    
C26   C39   1.384803 A    
C25   H5    1.083667 S    
C27   C38   1.384813 A    
C26   H6    1.083622 S    
