data_str_m2_o14_o16_f0_pcu.sym.64
_audit_creation_date              2013-03-05T15:50:34-0500
_audit_creation_method            fapswitch 2.2
_symmetry_space_group_name_H-M    P1
_symmetry_Int_Tables_number       1
_space_group_crystal_system       triclinic
_cell_length_a                    9.607657
_cell_length_b                    10.770643
_cell_length_c                    13.314176
_cell_angle_alpha                 92.644057
_cell_angle_beta                  72.874216
_cell_angle_gamma                 90.32317
_cell_volume                      1315.22319061

loop_
_atom_site_label
_atom_site_type_symbol
_atom_site_description
_atom_site_fract_x
_atom_site_fract_y
_atom_site_fract_z
_atom_type_partial_charge
O1    O     O_R   0.381190 0.680360 0.500010 -0.578077
O2    O     O_R   0.618760 0.680340 0.500000 -0.543119
C1    C     C_R   0.500706 0.737237 0.499671 0.838862
O3    O     O_R   0.323240 0.499990 0.650990 -0.579947
O4    O     O_R   0.560820 0.499960 0.650980 -0.579790
C2    C     C_R   0.421792 0.505744 0.700529 0.754334
Cu1   Cu    Cu3+1 0.359340 0.500010 0.500010 0.946526
Cu2   Cu    Cu3+1 0.640660 0.499990 0.499990 0.973830
O5    O     O_R   0.381240 0.319660 0.500000 -0.600007
O6    O     O_R   0.618810 0.319640 0.499990 -0.594987
O7    O     O_R   0.439180 0.500040 0.349020 -0.589043
O8    O     O_R   0.676760 0.500010 0.349010 -0.576619
C3    C     C_R   0.498881 0.263009 0.501767 0.787382
C4    C     C_R   0.577911 0.503798 0.299868 0.811895
C5    C     C_R   0.778073 0.632816 0.037653 -0.009946
H1    H     H_    0.829293 0.604780 0.182288 0.240056
H2    H     H_    0.778364 0.721454 0.846479 0.180843
C6    C     C_R   0.620138 0.529200 0.187586 -0.090389
C7    C     C_R   0.237879 0.464980 0.869265 -0.172367
C8    C     C_R   0.187159 0.472174 0.978388 -0.170174
C9    C     C_R   0.275318 0.520116 0.037905 -0.047122
C10   C     C_R   0.423337 0.548959 0.985331 0.022715
C11   C     C_R   0.462794 0.565055 0.875814 0.074833
C12   C     C_R   0.534438 0.561241 0.036083 0.107112
C13   C     C_R   0.668514 0.619769 0.985338 0.081181
C14   C     C_R   0.686668 0.665102 0.885073 -0.191627
C15   C     C_R   0.587579 0.635028 0.830126 -0.199635
C16   C     C_R   0.518541 0.508501 0.132846 -0.189713
C17   C     C_R   0.749972 0.590034 0.139667 -0.153161
C18   C     C_R   0.373582 0.514435 0.816537 -0.097966
H3    H     H_    0.425182 0.451740 0.167760 0.137983
H4    H     H_    0.167644 0.425311 0.825943 0.169829
H5    H     H_    0.076012 0.444778 0.016128 0.168712
H6    H     H_    0.607425 0.670785 0.752780 0.151676
C19   C     C_R   0.321874 0.878173 0.681789 -0.155560
H7    H     H_    0.322402 0.778167 0.686106 0.136805
C20   C     C_R   0.233484 0.946572 0.768359 -0.110768
H8    H     H_    0.167531 0.899173 0.835773 0.161786
C21   C     C_R   0.230863 0.075727 0.768675 -0.142306
H9    H     H_    0.162889 0.128579 0.836331 0.141368
C22   C     C_R   0.316733 0.137221 0.682449 -0.152202
H10   H     H_    0.313237 0.237678 0.686761 0.138346
C23   C     C_R   0.406228 0.069682 0.593456 0.107410
C24   C     C_R   0.408786 0.938519 0.592804 0.042032
C25   C     C_R   0.500658 0.871519 0.504167 -0.224748
C26   C     C_R   0.591034 0.933708 0.418407 0.344202
H11   H     H_    0.656221 0.110431 0.354157 0.157615
C27   C     C_R   0.587415 0.062327 0.420352 -0.267269
C28   C     C_R   0.496172 0.129652 0.505994 -0.144271
H12   H     H_    0.825873 0.645991 0.614427 0.128172
C29   C     C_R   0.910734 0.331961 0.362530 -0.084963
H13   H     H_    0.804823 0.327543 0.353342 0.178077
C30   C     C_R   0.008935 0.247890 0.296796 -0.151995
H14   H     H_    0.973731 0.183927 0.244135 0.162855
C31   C     C_R   0.152328 0.247443 0.296947 -0.185906
H15   H     H_    0.229235 0.182959 0.244515 0.161089
C32   C     C_R   0.198360 0.330863 0.362958 -0.135130
H16   H     H_    0.311313 0.324352 0.354775 0.189796
C33   C     C_R   0.101481 0.416659 0.432941 0.214716
C34   C     C_R   0.951960 0.416877 0.432889 0.234832
N1    N     N_R   0.852480 0.498790 0.499000 -0.198954
C35   C     C_R   0.901031 0.579822 0.563192 -0.019181
H17   H     H_    0.082984 0.644771 0.615565 0.155980
C36   C     C_R   0.048665 0.579523 0.563470 -0.045456
N2    N     N_R   0.148360 0.498710 0.498970 -0.208078
C37   C     C_2   0.923018 0.689022 0.990034 0.815251
O9    O     O_2   0.986688 0.671177 0.896427 -0.646946
O10   O     O_R   0.990623 0.757223 0.054270 -0.703384
H18   H     H_    0.090902 0.787233 0.014055 0.330965
C38   C     C_2   0.202421 0.559780 0.149629 0.851354
O11   O     O_2   0.089040 0.510788 0.198119 -0.616386
O12   O     O_R   0.258674 0.657958 0.197818 -0.725292
H19   H     H_    0.198802 0.676279 0.273574 0.353062
N3    N     N_R   0.683731 0.867654 0.327296 0.114105
O13   O     O_R   0.682216 0.897144 0.233941 -0.352900
O14   O     O_R   0.789511 0.798276 0.336163 -0.332203

loop_
_geom_bond_atom_site_label_1
_geom_bond_atom_site_label_2
_geom_bond_distance
_ccdc_geom_bond_type
C37   O10   1.398841 S    
C31   H15   1.083019 S    
C22   H10   1.081040 S    
C4    C6    1.467514 S    
C19   H7    1.081423 S    
Cu1   Cu2   2.702748 S    
C21   C22   1.394085 A    
C30   H14   1.083091 S    
Cu1   O7    1.929149 S    
C14   C15   1.389712 A    
N3    O14   1.300981 A    
H2    C14   1.079214 S    
C19   C20   1.394511 A    
O4    C2    1.304395 A    
O7    C4    1.301763 A    
C32   C33   1.417031 A    
O5    C3    1.294257 A    
C35   C36   1.419531 A    
C7    C8    1.388318 A    
O10   H18   1.013919 S    
C38   O11   1.221741 D    
C11   C15   1.406398 A    
Cu2   N1    2.031361 S    
C37   O9    1.222543 D    
C33   C34   1.436763 A    
C9    C10   1.427480 A    
C22   C23   1.414182 A    
O3    Cu1   1.936628 S    
C7    H4    1.083441 S    
C5    C17   1.403711 A    
C30   C31   1.378302 A    
C15   H6    1.079485 S    
C26   C27   1.384804 A    
N3    O13   1.301202 A    
C29   H13   1.060594 S    
C11   C18   1.417112 A    
C6    C16   1.391107 A    
C12   C13   1.425048 A    
O3    C2    1.303373 A    
C21   H9    1.082770 S    
C23   C28   1.410838 A    
H1    C17   1.083058 S    
C25   C26   1.409424 A    
C5    C37   1.487837 S    
C1    C25   1.444775 S    
C34   N1    1.381684 A    
C29   C30   1.387895 A    
C23   C24   1.412636 A    
C20   H8    1.082322 S    
Cu1   N2    2.031110 S    
H11   C27   1.085046 S    
Cu2   O8    1.936628 S    
C6    C17   1.397502 A    
C19   C24   1.416214 A    
C3    C28   1.439819 S    
C8    H5    1.083509 S    
C27   C28   1.391639 A    
C2    C18   1.474702 S    
O8    C4    1.304055 A    
C31   C32   1.388122 A    
H12   C35   1.079590 S    
C10   C12   1.424239 A    
C26   N3    1.436005 S    
C24   C25   1.416933 A    
Cu1   O5    1.955017 S    
O1    Cu1   1.952620 S    
C16   H3    1.081133 S    
O2    Cu2   1.955018 S    
C12   C16   1.398728 A    
O12   H19   1.014083 S    
O6    C3    1.295222 A    
O4    Cu2   1.929149 S    
C9    C38   1.488928 S    
C36   N2    1.366947 A    
O2    C1    1.293462 A    
C13   C14   1.404614 A    
C20   C21   1.391249 A    
C33   N2    1.383375 A    
C32   H16   1.060657 S    
N1    C35   1.367897 A    
C5    C13   1.426171 A    
H17   C36   1.082020 S    
C8    C9    1.401623 A    
Cu2   O6    1.952619 S    
C10   C11   1.413134 A    
C38   O12   1.398965 S    
C29   C34   1.416442 A    
O1    C1    1.297337 A    
C7    C18   1.401440 A    
