data_str_m3_o10_o28_f0_pcu.sym.177
_audit_creation_date              2013-03-05T15:42:28-0500
_audit_creation_method            fapswitch 2.2
_symmetry_space_group_name_H-M    P1
_symmetry_Int_Tables_number       1
_space_group_crystal_system       triclinic
_cell_length_a                    7.945333
_cell_length_b                    8.750514
_cell_length_c                    23.52395
_cell_angle_alpha                 94.59114
_cell_angle_beta                  85.943631
_cell_angle_gamma                 92.974735
_cell_volume                      1624.42936817

loop_
_atom_site_label
_atom_site_type_symbol
_atom_site_description
_atom_site_fract_x
_atom_site_fract_y
_atom_site_fract_z
_atom_type_partial_charge
O1    O     O_R   0.389250 0.738570 0.503790 -0.609023
O2    O     O_R   0.610750 0.261430 0.496210 -0.609024
O3    O     O_R   0.678390 0.711620 0.493890 -0.613193
O4    O     O_R   0.321610 0.288380 0.506110 -0.613229
C1    C     C_R   0.543646 0.792890 0.498350 0.914595
C2    C     C_R   0.456354 0.207112 0.501657 0.914632
O5    O     O_R   0.355400 0.513520 0.588790 -0.640432
O6    O     O_R   0.644600 0.486480 0.411210 -0.640384
O7    O     O_R   0.644550 0.486570 0.578900 -0.621059
O8    O     O_R   0.355450 0.513430 0.421100 -0.621094
C3    C     C_R   0.500873 0.498667 0.609990 0.938780
C4    C     C_R   0.499123 0.501321 0.390010 0.938831
Zn1   Zn    Zn3+2 0.306930 0.518000 0.506610 0.993527
Zn2   Zn    Zn3+2 0.693070 0.482000 0.493390 0.993557
C5    C     C_R   0.458986 0.365423 0.115930 0.497176
C6    C     C_R   0.540369 0.634699 0.884090 0.497193
N1    N     N_R   0.478036 0.502481 0.148128 -0.328637
N2    N     N_R   0.521375 0.497629 0.851895 -0.328630
C7    C     C_R   0.500216 0.637842 0.122573 0.520271
C8    C     C_R   0.499139 0.362279 0.877457 0.520279
C9    C     C_R   0.524225 0.636757 0.063293 -0.055578
C10   C     C_R   0.475050 0.363387 0.936735 -0.055567
C11   C     C_R   0.492620 0.499724 0.029908 -0.030797
C12   C     C_R   0.506637 0.500426 0.970119 -0.030802
C13   C     C_R   0.446234 0.362674 0.056349 -0.078051
C14   C     C_R   0.553041 0.637471 0.943676 -0.078048
C15   C     C_R   0.584472 0.768980 0.037438 -0.158889
C16   C     C_R   0.414775 0.231172 0.962589 -0.158878
C17   C     C_R   0.606301 0.771003 0.977738 0.121271
C18   C     C_R   0.392947 0.229150 0.022288 0.121296
O9    O     O_2   0.461846 0.232703 0.141122 -0.563251
O10   O     O_2   0.537551 0.767404 0.858887 -0.563244
O11   O     O_2   0.499558 0.773313 0.154399 -0.545443
O12   O     O_2   0.499841 0.226796 0.845639 -0.545516
H1    H     H_    0.619091 0.869112 0.064665 0.204295
H2    H     H_    0.380155 0.131039 0.935362 0.204281
C19   C     C_R   0.393064 0.406703 0.762198 -0.112154
C20   C     C_R   0.606608 0.593341 0.237786 -0.112131
H3    H     H_    0.300770 0.337832 0.786306 0.173550
H4    H     H_    0.698833 0.662230 0.213657 0.173508
C21   C     C_R   0.392113 0.398718 0.702777 0.066748
C22   C     C_R   0.607756 0.601253 0.297201 0.066797
C23   C     C_R   0.502709 0.500258 0.672048 -0.168158
C24   C     C_R   0.497241 0.499696 0.327951 -0.168188
C25   C     C_R   0.615018 0.603900 0.701653 0.241050
C26   C     C_R   0.384864 0.396064 0.298372 0.240994
C27   C     C_R   0.631745 0.589027 0.759549 -0.153715
C28   C     C_R   0.367938 0.411010 0.240493 -0.153718
H5    H     H_    0.727964 0.657671 0.781509 0.209703
H6    H     H_    0.271649 0.342390 0.218560 0.209707
C29   C     C_R   0.516728 0.496413 0.790718 0.198886
C30   C     C_R   0.482849 0.503665 0.209300 0.198897
C31   C     C_2   0.567118 0.954997 0.500571 -0.013557
C32   C     C_2   0.432879 0.045010 0.499454 -0.013439
N3    N     N_2   0.950330 0.457950 0.484560 -0.073758
N4    N     N_2   0.049670 0.542050 0.515440 -0.073772
C33   C     C_3   0.693832 0.909866 0.950730 -0.310950
C34   C     C_3   0.779820 0.029350 0.991588 -0.917140
H7    H     H_    0.685601 0.091254 0.020324 0.276036
H8    H     H_    0.864911 0.973276 0.017974 0.269788
H9    H     H_    0.854152 0.115231 0.966654 0.268040
H10   H     H_    0.793307 0.867972 0.918455 0.235273
H11   H     H_    0.601570 0.969965 0.928658 0.264814
C35   C     C_3   0.305412 0.090291 0.049298 -0.310971
C36   C     C_3   0.219406 0.970816 0.008441 -0.917151
H12   H     H_    0.134320 0.026901 0.982056 0.269795
H13   H     H_    0.313616 0.908901 0.979705 0.276025
H14   H     H_    0.145064 0.884943 0.033376 0.268035
H15   H     H_    0.397674 0.030178 0.071365 0.264811
H16   H     H_    0.205953 0.132190 0.081578 0.235251
C37   C     C_3   0.280501 0.273486 0.674187 -0.419012
C38   C     C_3   0.384231 0.136720 0.651769 -0.673499
H17   H     H_    0.301379 0.046067 0.630992 0.258471
H18   H     H_    0.486178 0.171978 0.620169 0.249019
H19   H     H_    0.441919 0.088022 0.687612 0.292730
H20   H     H_    0.179590 0.232002 0.705215 0.224859
H21   H     H_    0.213069 0.315525 0.639357 0.250124
C39   C     C_3   0.719536 0.726380 0.325767 -0.418970
C40   C     C_3   0.615968 0.863177 0.348270 -0.673692
H22   H     H_    0.513869 0.827863 0.379808 0.249038
H23   H     H_    0.698890 0.953575 0.369152 0.258531
H24   H     H_    0.558510 0.912219 0.312458 0.292714
H25   H     H_    0.787080 0.684215 0.360547 0.250060
H26   H     H_    0.820360 0.767870 0.294710 0.224821
N5    N     N_R   0.701464 0.732088 0.675450 0.198367
O13   O     O_R   0.634645 0.794489 0.634521 -0.425753
O14   O     O_R   0.821596 0.809673 0.701429 -0.400093
N6    N     N_R   0.298555 0.267813 0.324579 0.198372
O15   O     O_R   0.365456 0.205480 0.365507 -0.425759
O16   O     O_R   0.178484 0.190119 0.298604 -0.399987
N7    N     N_R   0.736875 0.014460 0.507254 0.214492
O17   O     O_R   0.853794 0.977371 0.467826 -0.389419
O18   O     O_R   0.779771 0.071978 0.557193 -0.339795
N8    N     N_R   0.263113 0.985551 0.492787 0.214483
O19   O     O_R   0.146231 0.022644 0.532229 -0.389389
O20   O     O_R   0.220166 0.928075 0.442849 -0.339739
C41   C     C_3   0.014754 0.320019 0.454892 -0.091627
C42   C     C_3   0.919710 0.269393 0.402043 -0.677027
H27   H     H_    0.785028 0.241489 0.412258 0.274508
H28   H     H_    0.933455 0.359464 0.371107 0.241372
H29   H     H_    0.972845 0.162310 0.381600 0.292264
H30   H     H_    0.144659 0.338583 0.438439 0.246060
H31   H     H_    0.006615 0.228379 0.484655 0.273823
C43   C     C_3   0.985248 0.679977 0.545111 -0.091645
C44   C     C_3   0.080287 0.730584 0.597962 -0.676903
H32   H     H_    0.066555 0.640494 0.628891 0.241431
H33   H     H_    0.214966 0.758504 0.587747 0.274461
H34   H     H_    0.027138 0.837652 0.618413 0.292279
H35   H     H_    0.993403 0.771625 0.515352 0.273828
H36   H     H_    0.855339 0.661416 0.561560 0.246076

loop_
_geom_bond_atom_site_label_1
_geom_bond_atom_site_label_2
_geom_bond_distance
_ccdc_geom_bond_type
C20   H4    1.082856 S    
N3    N4    1.275728 D    
C18   C35   1.528795 S    
C15   C17   1.404226 A    
C41   C42   1.523821 S    
C33   H10   1.111815 S    
C27   H5    1.081964 S    
N5    O13   1.301367 A    
O5    C3    1.307305 A    
C44   H33   1.099259 S    
O1    C1    1.293906 A    
C1    C31   1.418361 S    
C7    C9    1.393397 A    
C12   C14   1.414947 A    
C20   C22   1.394510 A    
C43   H35   1.102498 S    
C19   C29   1.400234 A    
C5    C13   1.410565 A    
C20   C30   1.400236 A    
C34   H8    1.107111 S    
C42   H27   1.099252 S    
O4    Zn1   2.017758 S    
C39   H25   1.106592 S    
C36   H13   1.105745 S    
C31   N7    1.434827 S    
C11   C12   1.403475 A    
C3    C23   1.459906 S    
C35   H16   1.111815 S    
C41   H30   1.085191 S    
C21   C37   1.518256 S    
Zn1   N4    2.059860 S    
C8    O12   1.350491 S    
C34   H9    1.110447 S    
C28   H6    1.081956 S    
Zn2   N3    2.059858 S    
C9    C15   1.397042 A    
C10   C16   1.397039 A    
C21   C23   1.419883 A    
O2    C2    1.293905 A    
C22   C24   1.419885 A    
C2    C32   1.418344 S    
C38   H19   1.111331 S    
N1    C30   1.441393 S    
C43   C44   1.523812 S    
C24   C26   1.416538 A    
N2    C29   1.441391 S    
C33   H11   1.105044 S    
C26   N6    1.442518 S    
C25   C27   1.394725 A    
C6    C14   1.410582 A    
C44   H34   1.108029 S    
C26   C28   1.394720 A    
C17   C33   1.528795 S    
N5    O14   1.301653 A    
N4    C43   1.443809 S    
O4    C2    1.309225 A    
C7    O11   1.350485 S    
N7    O17   1.299921 A    
C40   H23   1.109318 S    
C39   C40   1.526246 S    
C27   C29   1.397491 A    
C15   H1    1.078748 S    
C34   H7    1.105737 S    
C31   C32   1.361306 D    
C25   N5    1.442484 S    
O7    Zn2   2.018788 S    
N7    O18   1.301425 A    
O7    C3    1.315782 A    
C28   C30   1.397495 A    
O6    C4    1.307329 A    
C36   H14   1.110448 S    
N3    C41   1.443816 S    
C35   H15   1.105038 S    
N8    O20   1.301426 A    
C23   C25   1.416543 A    
C41   H31   1.102506 S    
O3    Zn2   2.017757 S    
O8    C4    1.315767 A    
C38   H18   1.108820 S    
C8    C10   1.393380 A    
C22   C39   1.518194 S    
C42   H28   1.111019 S    
C9    C11   1.401278 A    
C10   C12   1.401278 A    
O1    Zn1   2.010178 S    
C37   H21   1.106578 S    
C13   C18   1.425900 A    
C5    N1    1.373666 A    
O6    Zn2   2.001529 S    
N6    O16   1.301671 A    
C38   H17   1.109384 S    
O3    C1    1.309233 A    
O8    Zn1   2.018787 S    
C40   H24   1.111272 S    
C5    O9    1.347326 S    
C6    O10   1.347323 S    
C42   H29   1.108025 S    
C44   H32   1.111020 S    
C35   C36   1.530232 S    
C16   C18   1.404213 A    
C37   C38   1.526268 S    
C19   H3    1.082854 S    
C43   H36   1.085186 S    
C33   C34   1.530232 S    
C37   H20   1.112098 S    
N1    C7    1.368505 A    
N2    C8    1.368504 A    
C11   C13   1.414944 A    
C19   C21   1.394504 A    
N8    O19   1.299928 A    
O2    Zn2   2.010179 S    
C32   N8    1.434819 S    
C40   H22   1.108827 S    
C39   H26   1.112088 S    
O5    Zn1   2.001529 S    
N6    O15   1.301375 A    
C16   H2    1.078749 S    
C14   C17   1.425908 A    
C6    N2    1.373665 A    
C36   H12   1.107113 S    
C4    C24   1.459921 S    
