data_str_m3_o4_o10_f0_pcu.sym.94
_audit_creation_date              2012-12-10T20:25:47-0500
_audit_creation_method            fapswitch 2.2
_symmetry_space_group_name_H-M    P1
_symmetry_Int_Tables_number       1
_space_group_crystal_system       triclinic
_cell_length_a                    8.578584
_cell_length_b                    10.713831
_cell_length_c                    9.870381
_cell_angle_alpha                 89.844425
_cell_angle_beta                  98.105327
_cell_angle_gamma                 89.470185
_cell_volume                      898.073732013

loop_
_atom_site_label
_atom_site_type_symbol
_atom_type_description
_atom_site_fract_x
_atom_site_fract_y
_atom_site_fract_z
_atom_type_partial_charge
C1    C     C_R   0.498217 0.260132 0.499780 0.876572
C2    C     C_R   0.472176 0.936020 0.374003 -0.212441
C3    C     C_R   0.508704 0.871412 0.498211 -0.082032
C4    C     C_R   0.561284 0.935394 0.618128 0.090596
C5    C     C_3   0.511754 0.926978 0.757206 -0.511621
C6    C     C_3   0.508050 0.069134 0.757113 -0.198164
C7    C     C_R   0.362856 0.486868 0.054528 0.232832
C8    C     C_R   0.633622 0.523753 0.088120 -0.130191
C9    C     C_R   0.633622 0.523786 0.944324 -0.116220
C10   C     C_R   0.362955 0.486345 0.912026 0.221222
C11   C     C_3   0.257063 0.376552 0.894728 -0.530530
C12   C     C_R   0.201620 0.507291 0.465002 0.949329
C13   C     C_3   0.255306 0.378402 0.048347 -0.531532
C14   C     C_R   0.499443 0.739790 0.499570 0.849620
C15   C     C_R   0.797862 0.510728 0.534958 0.932157
C16   C     C_2   0.036488 0.508526 0.448456 -0.423546
C17   C     C_2   0.958046 0.547846 0.549062 -0.080344
C18   C     C_R   0.559379 0.062796 0.618183 0.065246
C19   C     C_R   0.505055 0.128081 0.498674 -0.112113
C20   C     C_R   0.468769 0.064569 0.374513 -0.235055
H1    H     H_    0.980030 0.458184 0.359377 0.144325
H2    H     H_    0.742121 0.541123 0.903775 0.148656
H3    H     H_    0.141158 0.399387 0.834501 0.195941
H4    H     H_    0.315927 0.292600 0.859303 0.212886
H5    H     H_    0.138983 0.405192 0.077254 0.195610
H6    H     H_    0.311427 0.294729 0.102236 0.210597
H7    H     H_    0.429656 0.113408 0.279457 0.154562
H8    H     H_    0.437047 0.887992 0.278233 0.169877
H9    H     H_    0.393455 0.885009 0.755237 0.195632
H10   H     H_    0.605499 0.884137 0.832956 0.208010
H11   H     H_    0.387158 0.108767 0.752557 0.146990
H12   H     H_    0.742205 0.540969 0.155012 0.150220
N1    N     N_R   0.498950 0.499140 0.142680 -0.109473
N2    N     N_R   0.498950 0.499180 0.857030 -0.106175
O1    O     O_R   0.500020 0.316790 0.614690 -0.610889
O2    O     O_R   0.500000 0.316760 0.385350 -0.631236
O3    O     O_R   0.271760 0.500010 0.587850 -0.618853
O4    O     O_R   0.271740 0.499970 0.358500 -0.620271
O5    O     O_R   0.500000 0.683240 0.614650 -0.636291
O6    O     O_R   0.499980 0.683210 0.385310 -0.622347
O7    O     O_R   0.728260 0.500030 0.641500 -0.632111
O8    O     O_R   0.728240 0.499990 0.412150 -0.632603
Zn1   Zn    Zn3+2 0.500010 0.500020 0.653130 0.929567
Zn2   Zn    Zn3+2 0.499990 0.499980 0.346870 0.928932
C21   C     C_3   0.021047 0.638378 0.663477 -0.388802
C22   C     C_3   0.914789 0.754397 0.665692 -0.370601
C23   C     C_3   0.988871 0.850765 0.768103 -0.907868
H13   H     H_    0.013153 0.809175 0.872212 0.263492
H14   H     H_    0.100200 0.885744 0.737410 0.256587
H15   H     H_    0.906540 0.930790 0.770839 0.258949
H16   H     H_    0.893471 0.797809 0.562193 0.224184
H17   H     H_    0.800038 0.727610 0.695948 0.246688
H18   H     H_    0.028844 0.589789 0.763629 0.196046
H19   H     H_    0.139399 0.673542 0.651336 0.236918
C24   C     C_R   0.626170 0.125662 0.868294 0.202320
C25   C     C_R   0.776032 0.165247 0.844054 -0.110192
C26   C     C_R   0.882601 0.213138 0.950524 -0.178409
C27   C     C_R   0.840384 0.225985 0.081151 -0.119405
C28   C     C_R   0.691511 0.189067 0.105927 -0.112313
C29   C     C_R   0.585165 0.138126 0.000502 -0.183669
H20   H     H_    0.812740 0.157646 0.743949 0.116120
H21   H     H_    0.998437 0.239010 0.931430 0.150374
H22   H     H_    0.923102 0.264050 0.163260 0.120507
H23   H     H_    0.659567 0.199423 0.207215 0.157750
H24   H     H_    0.470704 0.108427 0.021680 0.115982

loop_
_geom_bond_atom_site_label_1
_geom_bond_atom_site_label_2
_ccdc_geom_bond_type
O3    Zn1   S    
C7    C10   A    
O5    Zn1   S    
C24   C25   A    
O4    Zn2   S    
C16   H1    S    
C20   H7    S    
C11   C13   S    
C29   H24   S    
C15   O8    A    
C19   C20   A    
C7    C13   S    
C6    C24   S    
C4    C18   A    
C2    C3    A    
C28   H23   S    
C21   H18   S    
C28   C29   A    
C10   N2    A    
C21   C22   S    
O7    Zn1   S    
C13   H5    S    
C26   C27   A    
C9    N2    A    
C3    C14   S    
O8    Zn2   S    
C24   C29   A    
C4    C5    S    
C11   H3    S    
C17   C21   S    
C21   H19   S    
C6    H11   S    
C23   H15   S    
C5    H9    S    
C8    N1    A    
C12   O4    A    
C5    C6    S    
C6    C18   S    
C13   H6    S    
O2    Zn2   S    
C1    C19   S    
C10   C11   S    
C7    N1    A    
C14   O6    A    
C3    C4    A    
C8    H12   S    
C16   C17   D    
C22   H17   S    
C11   H4    S    
O6    Zn2   S    
O1    Zn1   S    
C25   C26   A    
C15   O7    A    
C23   H14   S    
C9    H2    S    
C12   O3    A    
C27   H22   S    
C15   C17   S    
C1    O1    A    
C22   C23   S    
C18   C19   A    
C2    H8    S    
C26   H21   S    
C27   C28   A    
C25   H20   S    
N1    Zn2   S    
C2    C20   A    
C22   H16   S    
C5    H10   S    
N2    Zn1   S    
C12   C16   S    
C1    O2    A    
C14   O5    A    
C8    C9    A    
C23   H13   S    
