data_str_m2_o10_o14_f0_pcu.sym.88
_audit_creation_date              2012-12-10T16:43:27-0500
_audit_creation_method            fapswitch 2.2
_symmetry_space_group_name_H-M    P1
_symmetry_Int_Tables_number       1
_space_group_crystal_system       triclinic
_cell_length_a                    10.741674
_cell_length_b                    8.682376
_cell_length_c                    7.496709
_cell_angle_alpha                 103.131796
_cell_angle_beta                  94.633437
_cell_angle_gamma                 93.039866
_cell_volume                      676.82141105

loop_
_atom_site_label
_atom_site_type_symbol
_atom_type_description
_atom_site_fract_x
_atom_site_fract_y
_atom_site_fract_z
_atom_type_partial_charge
Br1   Br    Br    0.339343 0.306274 0.903714 -0.411591
C1    C     C_R   0.496145 0.199786 0.453125 0.892697
C2    C     C_R   0.504051 0.800206 0.546846 0.831847
C3    C     C_R   0.737353 0.506418 0.499415 0.765202
C4    C     C_R   0.154378 0.772763 0.734836 -0.157486
C5    C     C_R   0.100661 0.899088 0.844299 -0.109526
C6    C     C_R   0.971107 0.901038 0.840189 -0.136954
C7    C     C_R   0.894480 0.776499 0.726825 -0.177848
C8    C     C_R   0.946889 0.645546 0.617174 0.096765
C9    C     C_R   0.078533 0.643692 0.621123 0.088284
C10   C     C_R   0.129859 0.514998 0.505921 -0.082177
C11   C     C_R   0.053047 0.395323 0.384370 -0.171991
C12   C     C_R   0.924732 0.397013 0.380818 -0.200014
C13   C     C_R   0.871553 0.518449 0.498768 -0.085802
C14   C     C_2   0.494025 0.031557 0.427145 -0.363620
C15   C     C_2   0.506286 0.968384 0.572802 -0.346405
C16   C     C_R   0.263073 0.504659 0.502276 0.794106
Cu1   Cu    Cu3+1 0.513920 0.517380 0.684380 1.000113
Cu2   Cu    Cu3+1 0.486080 0.482620 0.315620 1.011879
H1    H     H_    0.092861 0.298332 0.294076 0.158202
H2    H     H_    0.599431 0.621784 0.050893 0.191411
H3    H     H_    0.255262 0.779326 0.738488 0.154234
H4    H     H_    0.159811 0.996831 0.930994 0.167102
H5    H     H_    0.929768 0.000429 0.923479 0.138278
H6    H     H_    0.794411 0.785852 0.723667 0.141618
H7    H     H_    0.866561 0.300705 0.289184 0.149304
H8    H     H_    0.482308 0.959383 0.287038 0.180081
H9    H     H_    0.518184 0.040480 0.712889 0.200510
N1    N     N_2   0.465100 0.456430 0.038520 0.043094
N2    N     N_2   0.534900 0.543570 0.961480 -0.171850
O1    O     O_R   0.509050 0.286130 0.619770 -0.537927
O2    O     O_R   0.485540 0.256780 0.308360 -0.570192
O3    O     O_R   0.331410 0.514680 0.655740 -0.543647
O4    O     O_R   0.307900 0.485330 0.344330 -0.554974
O5    O     O_R   0.514460 0.743220 0.691640 -0.605581
O6    O     O_R   0.490950 0.713870 0.380230 -0.591676
O7    O     O_R   0.692100 0.514670 0.655670 -0.586881
O8    O     O_R   0.668590 0.485320 0.344260 -0.598587

loop_
_geom_bond_atom_site_label_1
_geom_bond_atom_site_label_2
_ccdc_geom_bond_type
C15   H9    S    
C10   C11   A    
C5    C6    A    
C1    C14   S    
Cu2   O8    S    
Cu1   O5    S    
C14   H8    S    
C2    O5    A    
C8    C13   A    
C9    C10   A    
C11   H1    S    
Br1   N1    S    
C7    C8    A    
C6    C7    A    
C12   C13   A    
C3    O7    A    
C7    H6    S    
N1    N2    D    
C16   O3    A    
C2    O6    A    
Cu1   N2    S    
Cu2   O2    S    
C4    H3    S    
C8    C9    A    
Cu1   O7    S    
C3    O8    A    
Cu2   O6    S    
C3    C13   S    
C4    C5    A    
Cu1   O3    S    
C12   H7    S    
C16   O4    A    
C5    H4    S    
C14   C15   D    
Cu2   N1    S    
C4    C9    A    
C11   C12   A    
C1    O2    A    
Cu1   Cu2   S    
H2    N2    S    
C10   C16   S    
Cu1   O1    S    
C2    C15   S    
C6    H5    S    
C1    O1    A    
Cu2   O4    S    
