data_str_m2_o14_o19_f0_pcu.sym.79
_audit_creation_date              2012-10-26T20:01:54-0400
_audit_creation_method            fapswitch 2.2
_symmetry_space_group_name_H-M    P1
_symmetry_Int_Tables_number       1
_space_group_crystal_system       triclinic
_cell_length_a                    11.769626
_cell_length_b                    10.915892
_cell_length_c                    9.598082
_cell_angle_alpha                 89.571635
_cell_angle_beta                  88.080534
_cell_angle_gamma                 99.277883
_cell_volume                      1216.20467013

loop_
_atom_site_label
_atom_site_type_symbol
_atom_type_description
_atom_site_fract_x
_atom_site_fract_y
_atom_site_fract_z
_atom_type_partial_charge
C1    C     C_R   0.503227 0.262348 0.500238 0.510024
C2    C     C_R   0.465713 0.865707 0.507957 0.002834
C3    C     C_R   0.658864 0.660499 0.149505 -0.065215
C4    C     C_R   0.283468 0.497147 0.501799 0.534644
C5    C     C_R   0.739241 0.750483 0.096010 -0.160471
C6    C     C_R   0.746652 0.778096 0.956892 0.020856
C7    C     C_R   0.676119 0.698000 0.858793 0.258344
C8    C     C_R   0.584817 0.590662 0.920149 0.101766
C9    C     C_R   0.581618 0.582313 0.072278 0.132049
C10   C     C_R   0.417590 0.424823 0.075995 0.154814
C11   C     C_R   0.420119 0.424685 0.928263 0.048675
C12   C     C_R   0.575159 0.066979 0.868932 0.263138
C13   C     C_R   0.481185 0.733294 0.501473 0.642117
C14   C     C_R   0.713390 0.485290 0.498079 0.607935
C15   C     C_1   0.160999 0.493338 0.504197 0.009643
C16   C     C_1   0.058151 0.489637 0.501719 -0.011767
C17   C     C_1   0.937833 0.485819 0.497122 0.000245
C18   C     C_1   0.835237 0.484207 0.495074 0.041057
C19   C     C_R   0.580583 0.125501 0.738741 -0.046648
C20   C     C_3   0.828656 0.901292 0.918904 -0.181020
C21   C     C_3   0.903922 0.973659 0.028752 -0.326437
C22   C     C_3   0.976258 0.089728 0.961043 -0.435511
C23   C     C_R   0.517884 0.945863 0.883837 -0.092645
C24   C     C_3   0.315120 0.348643 0.153218 -0.236505
C25   C     C_3   0.263997 0.224406 0.089464 -0.337958
C26   C     C_3   0.182888 0.147069 0.196995 -0.411051
C27   C     C_R   0.474694 0.880183 0.768194 -0.110002
C28   C     C_R   0.489241 0.934491 0.632888 0.012025
C29   C     C_R   0.526036 0.063818 0.623288 -0.021456
C30   C     C_R   0.503114 0.127217 0.501102 -0.046976
C31   C     C_R   0.458749 0.058944 0.385831 -0.085512
C32   C     C_R   0.439251 0.929111 0.387406 0.248252
Cu1   Cu    Cu3+1 0.499990 0.499990 0.640660 1.006727
Cu2   Cu    Cu3+1 0.500010 0.500010 0.359340 1.016727
H1    H     H_    0.434441 0.107481 0.295754 0.202557
H2    H     H_    0.996650 0.162677 0.039933 0.157762
H3    H     H_    0.849455 0.003979 0.114061 0.226863
H4    H     H_    0.962570 0.914622 0.073603 0.170874
H5    H     H_    0.892277 0.885916 0.836737 0.227169
H6    H     H_    0.773599 0.967702 0.883897 0.226255
H7    H     H_    0.915567 0.780107 0.607104 0.364138
H8    H     H_    0.789563 0.275480 0.055096 0.369399
H9    H     H_    0.363783 0.711435 0.099662 0.349872
H10   H     H_    0.230501 0.125490 0.289583 0.175092
H11   H     H_    0.113462 0.198643 0.232550 0.138134
H12   H     H_    0.355274 0.365098 0.872394 0.110918
H13   H     H_    0.143604 0.058164 0.150877 0.204924
H14   H     H_    0.214044 0.240730 0.996948 0.139654
H15   H     H_    0.333447 0.171996 0.056788 0.239744
H16   H     H_    0.340696 0.324431 0.256815 0.212750
H17   H     H_    0.245842 0.406456 0.164445 0.146380
H18   H     H_    0.628233 0.218583 0.729347 0.182073
H19   H     H_    0.509477 0.901217 0.984624 0.216051
H20   H     H_    0.426009 0.788847 0.788249 0.145528
H21   H     H_    0.656598 0.662601 0.258471 0.223294
H22   H     H_    0.792180 0.804018 0.170971 0.143752
H23   H     H_    0.057213 0.066097 0.913614 0.151349
H24   H     H_    0.929526 0.129741 0.877860 0.209819
N1    N     N_R   0.501070 0.501210 0.147910 -0.219322
N2    N     N_R   0.501110 0.501290 0.852040 -0.260090
O1    O     O_R   0.499990 0.319640 0.618810 -0.528660
O2    O     O_2   0.739408 0.890290 0.669244 -0.357953
O3    O     O_3   0.873832 0.724481 0.680622 -0.558731
O4    O     O_2   0.553848 0.229652 0.069058 -0.301290
O5    O     O_2   0.652235 0.057014 0.127913 -0.313900
O6    O     O_3   0.760760 0.235800 0.967843 -0.559659
O7    O     O_2   0.247459 0.776836 0.323846 -0.301984
O8    O     O_2   0.317574 0.943266 0.155437 -0.341971
O9    O     O_3   0.422427 0.755402 0.161311 -0.523069
O10   O     O_R   0.500000 0.319660 0.381240 -0.502057
O11   O     O_R   0.337190 0.500000 0.618790 -0.525032
O12   O     O_R   0.337200 0.500030 0.381210 -0.512797
O13   O     O_R   0.500000 0.680340 0.618760 -0.478901
O14   O     O_R   0.500010 0.680360 0.381190 -0.434759
O15   O     O_R   0.662800 0.499970 0.618790 -0.424761
O16   O     O_R   0.662810 0.500000 0.381210 -0.518205
O17   O     O_2   0.696128 0.711191 0.543416 -0.261841
S1    S     S_3+6 0.737191 0.752762 0.682244 -0.005416
S2    S     S_3+6 0.634793 0.147232 0.014698 -0.036695
S3    S     S_3+6 0.353304 0.851326 0.255069 -0.009957

loop_
_geom_bond_atom_site_label_1
_geom_bond_atom_site_label_2
_ccdc_geom_bond_type
O8    S3    D    
O5    S2    D    
C14   C18   S    
C5    H22   S    
C22   H23   S    
C27   H20   S    
C26   H10   S    
C7    C8    A    
O17   S1    D    
O6    S2    S    
C12   C23   A    
C28   C29   A    
C30   C31   A    
C20   H6    S    
C15   C16   T    
C12   S2    S    
C2    C32   A    
C2    C13   S    
C26   H11   S    
C3    H21   S    
C19   H18   S    
Cu1   O15   S    
C21   H4    S    
C8    C9    A    
C23   H19   S    
C23   C27   A    
Cu2   O10   S    
C3    C5    A    
C24   H17   S    
H9    O9    S    
C21   C22   S    
Cu1   Cu2   S    
C24   H16   S    
C24   C25   S    
C20   H5    S    
C16   C17   S    
C10   C24   S    
C25   C26   S    
C9    N1    A    
C14   O16   A    
C29   C30   A    
C3    C9    A    
C32   S3    S    
C31   C32   A    
C17   C18   T    
C20   C21   S    
C25   H14   S    
C26   H13   S    
Cu2   O14   S    
C7    S1    S    
Cu1   O13   S    
C13   O13   A    
Cu1   N2    S    
Cu2   N1    S    
O4    S2    D    
C31   H1    S    
H7    O3    S    
C11   N2    A    
C19   C29   A    
Cu2   O12   S    
C4    O12   A    
C22   H2    S    
O2    S1    D    
O7    S3    D    
C11   H12   S    
C1    O1    A    
C22   H24   S    
C6    C7    A    
C6    C20   S    
C1    O10   A    
C14   O15   A    
C4    C15   S    
C10   N1    A    
C8    N2    A    
C5    C6    A    
C12   C19   A    
C1    C30   S    
C25   H15   S    
C10   C11   A    
Cu1   O11   S    
C21   H3    S    
C13   O14   A    
Cu1   O1    S    
C27   C28   A    
H8    O6    S    
O9    S3    S    
C2    C28   A    
C4    O11   A    
Cu2   O16   S    
O3    S1    S    
