data_str_m9_o16_o22_f0_sra.sym.10
_audit_creation_date              2012-12-11T15:11:41-0500
_audit_creation_method            fapswitch 2.2
_symmetry_space_group_name_H-M    P1
_symmetry_Int_Tables_number       1
_space_group_crystal_system       triclinic
_cell_length_a                    20.168761
_cell_length_b                    7.098217
_cell_length_c                    13.469186
_cell_angle_alpha                 89.998192
_cell_angle_beta                  103.603465
_cell_angle_gamma                 90.001296
_cell_volume                      1874.18443285

loop_
_atom_site_label
_atom_site_type_symbol
_atom_type_description
_atom_site_fract_x
_atom_site_fract_y
_atom_site_fract_z
_atom_type_partial_charge
O1    O     O_R   0.449830 0.506740 0.599960 -0.536517
O2    O     O_R   0.550170 0.006740 0.400040 -0.536519
O3    O     O_R   0.588980 0.179860 0.596720 -0.548527
O4    O     O_R   0.411020 0.679860 0.403280 -0.548530
C1    C     C_R   0.616470 0.344515 0.618739 0.667117
C2    C     C_R   0.383531 0.844515 0.381259 0.667115
O5    O     O_R   0.452740 0.177340 0.612040 -0.538640
O6    O     O_R   0.547260 0.677340 0.387960 -0.538639
O7    O     O_R   0.412960 0.002070 0.415460 -0.540372
O8    O     O_R   0.587040 0.502070 0.584540 -0.540376
C3    C     C_R   0.436523 0.345730 0.638623 0.692742
C4    C     C_R   0.563477 0.845736 0.361378 0.692741
O9    O     O_3   0.487110 0.337570 0.435490 -0.373557
O10   O     O_3   0.512890 0.837570 0.564510 -0.373556
V1    V     V_3+5 0.502390 0.064650 0.511970 1.391330
V2    V     V_3+5 0.497610 0.564650 0.488030 1.391327
C5    C     C_R   0.608761 0.858420 0.106850 -0.162204
C6    C     C_R   0.391238 0.358164 0.893153 -0.162206
H1    H     H_    0.515244 0.852885 0.156645 0.099509
H2    H     H_    0.484756 0.352608 0.843358 0.099512
H3    H     H_    0.582389 0.859652 0.026829 0.111727
H4    H     H_    0.417611 0.359274 0.973175 0.111727
C7    C     C_R   0.603204 0.853535 0.283817 -0.027783
C8    C     C_R   0.396797 0.353503 0.716185 -0.027786
C9    C     C_R   0.931972 0.857984 0.319023 -0.169057
C10   C     C_R   0.068028 0.358161 0.680975 -0.169053
C11   C     C_R   0.896663 0.854148 0.395955 -0.121463
C12   C     C_R   0.103338 0.354395 0.604043 -0.121467
C13   C     C_R   0.825583 0.853586 0.371911 -0.166829
C14   C     C_R   0.174418 0.353769 0.628088 -0.166831
C15   C     C_R   0.787632 0.856721 0.268937 0.080469
C16   C     C_R   0.212369 0.356768 0.731063 0.080471
C17   C     C_R   0.824275 0.859373 0.190356 0.072984
C18   C     C_R   0.175726 0.359341 0.809644 0.072982
C19   C     C_R   0.714714 0.857228 0.241305 0.073052
C20   C     C_R   0.285286 0.357211 0.758697 0.073052
C21   C     C_R   0.680342 0.859290 0.136120 0.146235
C22   C     C_R   0.319658 0.359121 0.863882 0.146235
C23   C     C_R   0.717465 0.861583 0.060769 -0.216758
C24   C     C_R   0.282535 0.361344 0.939234 -0.216754
C25   C     C_R   0.788219 0.861599 0.087261 -0.207744
C26   C     C_R   0.211781 0.361433 0.912740 -0.207747
C27   C     C_R   0.674432 0.855310 0.314261 -0.215504
C28   C     C_R   0.325568 0.355370 0.685741 -0.215507
C29   C     C_R   0.570437 0.854865 0.180356 -0.177419
C30   C     C_R   0.429563 0.354668 0.819647 -0.177415
C31   C     C_R   0.896550 0.860386 0.216588 -0.073737
C32   C     C_R   0.103451 0.360421 0.783412 -0.073739
H5    H     H_    0.987260 0.859317 0.339394 0.096950
H6    H     H_    0.012741 0.359554 0.660604 0.096950
H7    H     H_    0.802144 0.850571 0.435915 0.100558
H8    H     H_    0.197857 0.350815 0.564083 0.100563
H9    H     H_    0.924623 0.852032 0.475128 0.116928
H10   H     H_    0.075379 0.352388 0.524869 0.116930
C33   C     C_3   0.238893 0.764989 0.135596 -0.324414
C34   C     C_3   0.761101 0.265031 0.864413 -0.324414
H11   H     H_    0.240199 0.843240 0.064481 0.145514
H12   H     H_    0.759803 0.343295 0.935526 0.145510
C35   C     C_3   0.311554 0.760857 0.207248 -0.386110
C36   C     C_3   0.688439 0.260926 0.792766 -0.386121
H13   H     H_    0.347559 0.837730 0.170512 0.136293
H14   H     H_    0.652444 0.337863 0.829490 0.136304
H15   H     H_    0.168316 0.600716 0.267363 0.121032
H16   H     H_    0.831682 0.100687 0.732671 0.121042
C37   C     C_3   0.186774 0.746689 0.287685 -0.322689
C38   C     C_3   0.813224 0.246655 0.712330 -0.322687
C39   C     C_3   0.213712 0.061866 0.221882 -0.314115
C40   C     C_3   0.786297 0.561862 0.778090 -0.314122
C41   C     C_3   0.187224 0.859419 0.189152 0.088922
C42   C     C_3   0.812775 0.359420 0.810848 0.088913
H17   H     H_    0.214269 0.148309 0.153087 0.138586
H18   H     H_    0.785735 0.648316 0.846876 0.138610
C43   C     C_3   0.311872 0.851166 0.312668 0.119901
C44   C     C_3   0.688129 0.351167 0.687330 0.119897
C45   C     C_3   0.259777 0.737757 0.359855 0.038214
C46   C     C_3   0.740219 0.237704 0.640166 0.038217
C47   C     C_3   0.286318 0.057401 0.291654 -0.312250
C48   C     C_3   0.713696 0.557398 0.708305 -0.312263
H19   H     H_    0.286773 0.132502 0.364222 0.138184
H20   H     H_    0.713253 0.632431 0.635719 0.138182
O11   O     O_R   0.912980 0.203550 0.915410 -0.539627
O12   O     O_R   0.087020 0.703550 0.084590 -0.539624
O13   O     O_R   0.047270 0.535570 0.887960 -0.538414
O14   O     O_R   0.952730 0.035570 0.112040 -0.538414
C49   C     C_R   0.063832 0.368225 0.861594 0.687446
C50   C     C_R   0.936168 0.868217 0.138407 0.687447
O15   O     O_R   0.911030 0.532970 0.903270 -0.546536
O16   O     O_R   0.088970 0.032970 0.096730 -0.546538
O17   O     O_R   0.949820 0.708150 0.099970 -0.536014
O18   O     O_R   0.050180 0.208150 0.900030 -0.536015
C51   C     C_R   0.883770 0.365166 0.881759 0.657408
C52   C     C_R   0.116230 0.865166 0.118242 0.657405
O19   O     O_3   0.012900 0.375230 0.064480 -0.372816
O20   O     O_3   0.987100 0.875230 0.935520 -0.372816
V3    V     V_3+5 0.997610 0.648190 0.988040 1.395807
V4    V     V_3+5 0.002390 0.148190 0.011960 1.395801
H21   H     H_    0.329532 0.612317 0.217606 0.138211
H22   H     H_    0.670442 0.112397 0.782434 0.138190
H23   H     H_    0.276049 0.587303 0.365677 0.123230
H24   H     H_    0.723943 0.087257 0.634377 0.123252
H25   H     H_    0.178811 0.132496 0.263130 0.136634
H26   H     H_    0.821207 0.632467 0.736844 0.136626
H27   H     H_    0.321388 0.136275 0.253982 0.132917
H28   H     H_    0.678625 0.636323 0.745948 0.132936
H29   H     H_    0.149686 0.812820 0.326653 0.134428
H30   H     H_    0.850311 0.312769 0.673353 0.134434
H31   H     H_    0.691582 0.863200 0.980504 0.117143
H32   H     H_    0.308417 0.362851 0.019499 0.117138
C53   C     C_3   0.258473 0.799890 0.469029 -0.816006
H33   H     H_    0.223714 0.706519 0.499495 0.212999
H34   H     H_    0.309928 0.788420 0.521008 0.211793
H35   H     H_    0.239945 0.946861 0.470283 0.216720
C54   C     C_3   0.741527 0.299760 0.530979 -0.816013
H36   H     H_    0.776279 0.206343 0.500531 0.213001
H37   H     H_    0.690071 0.288291 0.479003 0.211799
H38   H     H_    0.760065 0.446718 0.529693 0.216712
H39   H     H_    0.696487 0.853954 0.395308 0.092122
H40   H     H_    0.303515 0.354135 0.604693 0.092128
H41   H     H_    0.814490 0.863034 0.025827 0.110721
H42   H     H_    0.185509 0.362814 0.974174 0.110724
H43   H     H_    0.222392 0.618442 0.113022 0.141282
H44   H     H_    0.777590 0.118479 0.886995 0.141271

loop_
_geom_bond_atom_site_label_1
_geom_bond_atom_site_label_2
_ccdc_geom_bond_type
C22   C24   A    
C33   H43   S    
O4    V2    S    
C7    C29   A    
O15   C51   A    
C11   C13   A    
C42   C51   S    
O1    C3    A    
O2    C4    A    
C2    O7    A    
H15   C37   S    
C7    C27   A    
C23   C25   A    
O5    C3    A    
C4    C7    S    
C44   C46   S    
C16   C20   A    
C19   C21   A    
C5    C29   A    
C33   C35   S    
C10   H6    S    
C48   H20   S    
C40   H18   S    
C17   C31   A    
C3    C8    S    
O12   C52   A    
C36   H14   S    
O14   V4    S    
C1    C44   S    
O16   C52   A    
C18   C26   A    
C39   C47   S    
C15   C17   A    
C41   C52   S    
C19   C27   A    
C9    C31   A    
C10   C32   A    
C24   H32   S    
C54   H38   S    
C24   C26   A    
O13   V3    S    
O19   V3    S    
C13   C15   A    
C43   C45   S    
O20   V3    S    
C38   H30   S    
C6    C30   A    
C37   H29   S    
C47   H19   S    
C40   C48   S    
C35   H13   S    
C45   C53   S    
C48   H28   S    
C31   C50   S    
O4    C2    A    
C53   H35   S    
O11   V4    S    
C12   H10   S    
O5    V1    S    
C5    H3    S    
H1    C29   S    
C34   C36   S    
O15   V3    S    
O16   V4    S    
C39   C41   S    
H16   C38   S    
O17   V3    S    
C23   H31   S    
O10   V1    S    
C28   H40   S    
O6    C4    A    
C38   C46   S    
C45   H23   S    
C46   C54   S    
O1    V2    S    
C5    C21   A    
C25   H41   S    
O20   V4    S    
O2    V1    S    
C33   C41   S    
C27   H39   S    
C40   C42   S    
O13   C49   A    
O19   V4    S    
C34   C42   S    
C33   H11   S    
C35   H21   S    
C15   C19   A    
C20   C28   A    
C9    C11   A    
C20   C22   A    
O3    V1    S    
C39   H25   S    
C2    C43   S    
C54   H36   S    
C13   H7    S    
C37   C41   S    
C14   H8    S    
O12   V3    S    
C6    H4    S    
C10   C12   A    
C40   H26   S    
O3    C1    A    
C50   O17   A    
C34   H44   S    
C49   O18   A    
C11   H9    S    
O18   V4    S    
C46   H24   S    
C36   H22   S    
C37   C45   S    
C8    C30   A    
C53   H34   S    
C6    C22   A    
C17   C25   A    
C12   C14   A    
C21   C23   A    
O8    V2    S    
C53   H33   S    
C14   C16   A    
C26   H42   S    
C38   C42   S    
C8    C28   A    
C36   C44   S    
C34   H12   S    
C39   H17   S    
O7    V1    S    
C35   C43   S    
C9    H5    S    
C47   H27   S    
O11   C51   A    
C1    O8    A    
C18   C32   A    
O6    V2    S    
C44   C48   S    
O9    V2    S    
C43   C47   S    
C32   C49   S    
O14   C50   A    
H2    C30   S    
C16   C18   A    
C54   H37   S    
