data_str_m3_o14_o24_f0_pcu.sym.88
_audit_creation_date              2012-12-10T17:49:44-0500
_audit_creation_method            fapswitch 2.2
_symmetry_space_group_name_H-M    P1
_symmetry_Int_Tables_number       1
_space_group_crystal_system       triclinic
_cell_length_a                    10.51927
_cell_length_b                    10.673047
_cell_length_c                    9.930122
_cell_angle_alpha                 90.108059
_cell_angle_beta                  90.015266
_cell_angle_gamma                 92.066829
_cell_volume                      1114.15390201

loop_
_atom_site_label
_atom_site_type_symbol
_atom_type_description
_atom_site_fract_x
_atom_site_fract_y
_atom_site_fract_z
_atom_type_partial_charge
C1    C     C_R   0.504978 0.260840 0.500017 0.838004
C2    C     C_R   0.603867 0.070266 0.585097 0.105484
C3    C     C_R   0.516522 0.129019 0.499821 -0.067498
C4    C     C_R   0.257680 0.498581 0.500051 0.872909
C5    C     C_R   0.435984 0.061371 0.413073 -0.217710
C6    C     C_R   0.436337 0.933517 0.413427 -0.198826
C7    C     C_R   0.516636 0.872539 0.501137 -0.077212
C8    C     C_R   0.331702 0.336278 0.139573 -0.149570
C9    C     C_R   0.248230 0.256029 0.069305 -0.202793
C10   C     C_R   0.248119 0.256026 0.929852 -0.189822
C11   C     C_R   0.331567 0.336202 0.859792 -0.148934
C12   C     C_3   0.959662 0.493271 0.370847 -0.174963
C13   C     C_R   0.416990 0.419346 0.927566 0.164740
C14   C     C_R   0.417031 0.419386 0.072071 0.172588
C15   C     C_R   0.579629 0.576938 0.071631 -0.107674
C16   C     C_R   0.506207 0.739604 0.500355 0.870126
C17   C     C_R   0.579646 0.576856 0.928652 -0.101734
C18   C     C_R   0.742586 0.499550 0.499814 0.886862
C19   C     C_3   0.041918 0.500888 0.628459 -0.198126
C20   C     C_3   0.954804 0.395852 0.566771 -0.243960
C21   C     C_3   0.877768 0.497177 0.498702 -0.002958
C22   C     C_3   0.964095 0.599651 0.557988 0.465006
C23   C     C_3   0.039071 0.391929 0.439115 -0.159958
C24   C     C_3   0.046894 0.598765 0.431492 -0.246642
C25   C     C_3   0.123003 0.497382 0.500297 -0.038047
C26   C     C_R   0.693268 0.138737 0.665515 -0.234330
C27   C     C_R   0.775930 0.077790 0.750667 -0.289844
C28   C     C_R   0.774017 0.946748 0.755340 0.529505
C29   C     C_R   0.690050 0.878344 0.671875 -0.150969
C30   C     C_R   0.603115 0.938843 0.587006 -0.013085
H1    H     H_    0.915415 0.312851 0.621501 0.148119
H2    H     H_    0.078347 0.505810 0.733385 0.162756
H3    H     H_    0.088302 0.682160 0.378478 0.145206
H4    H     H_    0.922764 0.489461 0.266089 0.163760
H5    H     H_    0.075246 0.306626 0.390189 0.130726
H6    H     H_    0.369923 0.107670 0.347553 0.145382
H7    H     H_    0.702028 0.239649 0.662802 0.179514
H8    H     H_    0.842166 0.132987 0.812071 0.135992
H9    H     H_    0.907062 0.944381 0.890877 0.320320
H10   H     H_    0.999170 0.757492 0.644243 0.346380
H11   H     H_    0.695781 0.777778 0.673906 0.207794
H12   H     H_    0.370713 0.881732 0.347863 0.156525
H13   H     H_    0.644761 0.639877 0.125338 0.158469
H14   H     H_    0.326783 0.330304 0.246418 0.194561
H15   H     H_    0.183448 0.193241 0.123584 0.141568
H16   H     H_    0.183185 0.193269 0.875429 0.146312
H17   H     H_    0.326499 0.330126 0.752910 0.203152
H18   H     H_    0.644888 0.639650 0.875294 0.172969
N1    N     N_R   0.498800 0.498800 0.142780 -0.126193
N2    N     N_R   0.498760 0.498720 0.857170 -0.128639
O1    O     O_R   0.500000 0.316780 0.614690 -0.646137
O2    O     O_3   0.921188 0.707832 0.619453 -0.768932
O3    O     O_R   0.499990 0.316750 0.385360 -0.633179
O4    O     O_R   0.313960 0.499980 0.614650 -0.641840
O5    O     O_R   0.313940 0.499960 0.385310 -0.634675
O6    O     O_R   0.500010 0.683250 0.614640 -0.625417
O7    O     O_R   0.500000 0.683220 0.385310 -0.611743
O8    O     O_R   0.686060 0.500040 0.614690 -0.615777
O9    O     O_R   0.686040 0.500020 0.385350 -0.627900
O10   O     O_3   0.853733 0.882771 0.839014 -0.765630
Zn1   Zn    Zn3+2 0.500010 0.500020 0.653130 0.936697
Zn2   Zn    Zn3+2 0.499990 0.499980 0.346870 0.939290

loop_
_geom_bond_atom_site_label_1
_geom_bond_atom_site_label_2
_ccdc_geom_bond_type
C17   N2    A    
C10   H16   S    
C16   O6    A    
C26   H7    S    
C9    H15   S    
C6    C7    A    
O4    Zn1   S    
C18   C21   S    
C11   C13   A    
C9    C10   A    
C12   C24   S    
C11   H17   S    
C19   C20   S    
O1    Zn1   S    
C17   H18   S    
C2    C30   A    
C29   H11   S    
O8    Zn1   S    
C28   O10   S    
C2    C3    A    
C15   H13   S    
O7    Zn2   S    
C2    C26   A    
C7    C30   A    
H10   O2    S    
C13   C14   A    
C24   C25   S    
C1    O1    A    
C12   C23   S    
C26   C27   A    
C29   C30   A    
H9    O10   S    
O5    Zn2   S    
C28   C29   A    
C24   H3    S    
C4    C25   S    
C23   H5    S    
C16   O7    A    
C15   N1    A    
C4    O5    A    
C5    C6    A    
C19   C25   S    
C22   C24   S    
C14   N1    A    
C10   C11   A    
C19   H2    S    
C27   H8    S    
C12   H4    S    
C13   N2    A    
C5    H6    S    
C3    C5    A    
C18   O9    A    
C19   C22   S    
C20   C21   S    
O3    Zn2   S    
C22   O2    S    
C23   C25   S    
C6    H12   S    
C27   C28   A    
C15   C17   A    
N2    Zn1   S    
C1    O3    A    
O6    Zn1   S    
C7    C16   S    
O9    Zn2   S    
C8    C14   A    
N1    Zn2   S    
C4    O4    A    
C21   C22   S    
C20   C23   S    
C12   C21   S    
C18   O8    A    
C8    H14   S    
C8    C9    A    
C1    C3    S    
C20   H1    S    
