data_str_m2_o9_o16_f0_pcu.sym.132
_audit_creation_date              2012-12-10T19:44:26-0500
_audit_creation_method            fapswitch 2.2
_symmetry_space_group_name_H-M    P1
_symmetry_Int_Tables_number       1
_space_group_crystal_system       triclinic
_cell_length_a                    10.774806
_cell_length_b                    12.325716
_cell_length_c                    13.167728
_cell_angle_alpha                 116.762398
_cell_angle_beta                  77.3168
_cell_angle_gamma                 101.213223
_cell_volume                      1514.14212184

loop_
_atom_site_label
_atom_site_type_symbol
_atom_type_description
_atom_site_fract_x
_atom_site_fract_y
_atom_site_fract_z
_atom_type_partial_charge
C1    C     C_R   0.514314 0.855016 0.286619 0.775127
C2    C     C_R   0.643554 0.905037 0.846769 -0.150987
C3    C     C_R   0.039645 0.974156 0.579118 -0.200163
C4    C     C_R   0.129467 0.999957 0.496306 -0.069524
C5    C     C_R   0.090203 0.027365 0.415601 0.004135
C6    C     C_R   0.960423 0.026571 0.419051 -0.217709
C7    C     C_R   0.870811 0.000587 0.501884 -0.034319
C8    C     C_R   0.910215 0.976241 0.584012 0.068044
C9    C     C_R   0.247776 0.166935 0.345985 -0.073531
C10   C     C_R   0.338615 0.186224 0.260179 -0.138465
C11   C     C_R   0.361127 0.090435 0.150810 -0.076503
C12   C     C_R   0.737083 0.000383 0.501105 0.794513
C13   C     C_R   0.291521 0.975611 0.126547 -0.121439
C14   C     C_R   0.200852 0.955888 0.212223 -0.186256
C15   C     C_R   0.181017 0.050504 0.323384 0.104974
C16   C     C_R   0.302280 0.282341 0.011288 0.153732
C17   C     C_R   0.452355 0.227359 0.834844 -0.092370
C18   C     C_R   0.632214 0.807584 0.094289 -0.212361
C19   C     C_R   0.678703 0.722210 0.987248 -0.128888
C20   C     C_R   0.625169 0.601337 0.948489 -0.155302
C21   C     C_R   0.517351 0.563711 0.014033 0.053587
C22   C     C_R   0.462758 0.653864 0.120155 0.042757
C23   C     C_R   0.481253 0.144967 0.713491 0.808208
C24   C     C_R   0.462853 0.439473 0.977555 0.053123
C25   C     C_R   0.355068 0.406441 0.046467 0.054576
C26   C     C_R   0.297150 0.498139 0.144854 -0.219509
C27   C     C_R   0.344495 0.620414 0.178675 0.150478
C28   C     C_R   0.509812 0.347223 0.872171 -0.191865
C29   C     C_R   0.352952 0.193754 0.906467 -0.179550
C30   C     C_R   0.529694 0.773350 0.163814 -0.094469
C31   C     C_R   0.702095 0.340202 0.320927 -0.100058
C32   C     C_R   0.326708 0.759469 0.645686 0.075369
C33   C     C_R   0.287787 0.661772 0.675462 -0.257489
C34   C     C_R   0.263021 0.999154 0.497681 0.786196
C35   C     C_R   0.352305 0.557655 0.618979 -0.212769
C36   C     C_R   0.458320 0.550405 0.532187 -0.007092
C37   C     C_R   0.493534 0.652477 0.503947 0.297198
C38   C     C_R   0.530624 0.446484 0.472945 -0.064490
C39   C     C_R   0.633137 0.444128 0.383000 0.073043
C40   C     C_R   0.662404 0.544232 0.355539 -0.253510
C41   C     C_R   0.596864 0.646330 0.416327 -0.201621
C42   C     C_R   0.505107 0.343873 0.498942 0.008413
C43   C     C_R   0.668417 0.241925 0.350430 0.027249
C44   C     C_R   0.679742 0.025911 0.862577 -0.191765
C45   C     C_R   0.768351 0.054282 0.779663 0.004216
C46   C     C_R   0.818848 0.956413 0.677771 0.000735
C47   C     C_R   0.781873 0.835239 0.663394 -0.160827
C48   C     C_R   0.694529 0.809068 0.747601 0.215904
Cu1   Cu    Cu3+1 0.529370 0.098270 0.475420 0.951469
Cu2   Cu    Cu3+1 0.470630 0.901730 0.524580 0.921914
H1    H     H_    0.575836 0.886024 0.912396 0.148229
H2    H     H_    0.431273 0.105656 0.084523 0.132149
H3    H     H_    0.307975 0.901859 0.041429 0.128199
H4    H     H_    0.147212 0.866640 0.192394 0.144849
H5    H     H_    0.307509 0.100464 0.877029 0.155829
H6    H     H_    0.209333 0.476819 0.194057 0.183071
H7    H     H_    0.587654 0.365810 0.813414 0.151976
H8    H     H_    0.682794 0.898832 0.126039 0.163219
H9    H     H_    0.671898 0.540596 0.866795 0.143543
H10   H     H_    0.761183 0.748731 0.936120 0.169798
H11   H     H_    0.638430 0.097533 0.940860 0.198805
H12   H     H_    0.718934 0.161370 0.304257 0.144478
H13   H     H_    0.736873 0.545796 0.286201 0.199491
H14   H     H_    0.430618 0.338781 0.566575 0.130011
H15   H     H_    0.276011 0.839839 0.689815 0.122890
H16   H     H_    0.317233 0.484727 0.645246 0.146439
H17   H     H_    0.207183 0.666667 0.742445 0.151693
H18   H     H_    0.630906 0.718588 0.390688 0.208392
H19   H     H_    0.821298 0.761104 0.586067 0.140822
H20   H     H_    0.070700 0.955635 0.642239 0.140568
H21   H     H_    0.928998 0.044842 0.355940 0.146703
H22   H     H_    0.231490 0.241687 0.430588 0.126789
H23   H     H_    0.391087 0.275586 0.278138 0.137460
N1    N     N_R   0.573890 0.246290 0.438210 -0.186544
N2    N     N_R   0.426890 0.754320 0.561170 -0.205518
O1    O     O_R   0.536940 0.972510 0.318130 -0.575130
O2    O     O_R   0.487330 0.806530 0.359650 -0.602932
O3    O     O_R   0.705160 0.082990 0.479250 -0.571864
O4    O     O_R   0.655550 0.917010 0.520760 -0.599886
O5    O     O_R   0.512670 0.193470 0.640350 -0.578886
O6    O     O_R   0.463060 0.027490 0.681870 -0.586032
O7    O     O_R   0.344450 0.082990 0.479240 -0.575141
O8    O     O_R   0.294840 0.917010 0.520750 -0.602457
N3    N     N_3   0.191665 0.244791 0.075989 -0.594655
H24   H     H_    0.114758 0.286953 0.079156 0.241057
H25   H     H_    0.209342 0.274211 0.159767 0.228719
N4    N     N_3   0.260383 0.706951 0.263210 -0.582541
H26   H     H_    0.283728 0.792897 0.263168 0.203436
H27   H     H_    0.262697 0.711882 0.344047 0.262839
C49   C     C_2   0.808020 0.328284 0.224366 0.818899
O9    O     O_2   0.895115 0.410720 0.233862 -0.617601
O10   O     O_R   0.810577 0.219221 0.123843 -0.769668
H28   H     H_    0.886501 0.221167 0.063399 0.343068
C50   C     C_2   0.806609 0.185952 0.804421 0.795267
O11   O     O_2   0.880039 0.216205 0.734245 -0.602066
O12   O     O_R   0.758854 0.276630 0.910089 -0.766387
H29   H     H_    0.791323 0.362357 0.917313 0.335696
N5    N     N_3   0.659340 0.685811 0.735074 -0.614856
H30   H     H_    0.560011 0.667848 0.739714 0.232969
H31   H     H_    0.698671 0.624259 0.653913 0.222681

loop_
_geom_bond_atom_site_label_1
_geom_bond_atom_site_label_2
_ccdc_geom_bond_type
N4    H26   S    
C17   C29   A    
C35   C36   A    
C9    H22   S    
Cu2   O4    S    
C32   N2    A    
C7    C8    A    
C28   H7    S    
C26   C27   A    
C17   C23   S    
C40   H13   S    
C31   C43   A    
C1    C30   S    
C36   C37   A    
N3    H25   S    
C38   C42   A    
C5    C6    A    
C10   H23   S    
C12   O4    A    
C16   N3    S    
C1    O2    A    
Cu1   O3    S    
C18   C19   A    
C47   H19   S    
C11   H2    S    
C18   H8    S    
C19   C20   A    
C2    C44   A    
C12   O3    A    
C18   C30   A    
C23   O5    A    
C22   C30   A    
C9    C10   A    
C43   N1    A    
C37   N2    A    
C21   C22   A    
C37   C41   A    
C17   C28   A    
C6    H21   S    
C45   C50   S    
Cu2   O8    S    
C41   H18   S    
C13   H3    S    
C7    C12   S    
C4    C34   S    
C42   N1    A    
C3    H20   S    
N3    H24   S    
C3    C8    A    
C10   C11   A    
C39   C40   A    
C29   H5    S    
C35   H16   S    
C2    C48   A    
C16   C29   A    
C45   C46   A    
Cu1   O7    S    
C27   N4    S    
C49   O10   S    
C47   C48   A    
C31   C49   S    
O12   H29   S    
Cu1   O1    S    
C24   C25   A    
C20   H9    S    
C50   O12   S    
C40   C41   A    
C14   H4    S    
N5    H30   S    
N5    H31   S    
C22   C27   A    
N4    H27   S    
C44   H11   S    
C34   O8    A    
C3    C4    A    
Cu2   O2    S    
C42   H14   S    
C44   C45   A    
C33   H17   S    
C16   C25   A    
C46   C47   A    
C23   O6    A    
Cu1   N1    S    
C1    O1    A    
C24   C28   A    
C4    C5    A    
C26   H6    S    
C6    C7    A    
C19   H10   S    
C48   N5    S    
Cu1   O5    S    
C32   C33   A    
C36   C38   A    
C25   C26   A    
Cu2   N2    S    
C11   C13   A    
C49   O9    D    
C38   C39   A    
O10   H28   S    
C33   C35   A    
C31   C39   A    
C9    C15   A    
C50   O11   D    
C8    C46   S    
C5    C15   S    
C2    H1    S    
C20   C21   A    
Cu2   O6    S    
Cu1   Cu2   S    
C21   C24   A    
C14   C15   A    
C34   O7    A    
C13   C14   A    
C43   H12   S    
C32   H15   S    
