data_str_m9_o16_o16_f0_sra.sym.73
_audit_creation_date              2012-12-11T15:06:43-0500
_audit_creation_method            fapswitch 2.2
_symmetry_space_group_name_H-M    P1
_symmetry_Int_Tables_number       1
_space_group_crystal_system       triclinic
_cell_length_a                    7.246914
_cell_length_b                    14.826551
_cell_length_c                    22.622974
_cell_angle_alpha                 90.084643
_cell_angle_beta                  89.115574
_cell_angle_gamma                 92.081989
_cell_volume                      2428.86974931

loop_
_atom_site_label
_atom_site_type_symbol
_atom_type_description
_atom_site_fract_x
_atom_site_fract_y
_atom_site_fract_z
_atom_type_partial_charge
O1    O     O_R   0.390810 0.844810 0.447340 -0.542112
O2    O     O_R   0.109190 0.155190 0.947340 -0.527829
O3    O     O_R   0.890810 0.655190 0.552660 -0.540424
O4    O     O_R   0.609190 0.344810 0.052660 -0.541020
O5    O     O_R   0.720550 0.655820 0.440420 -0.544130
O6    O     O_R   0.779450 0.344180 0.940420 -0.542095
O7    O     O_R   0.220550 0.844180 0.559580 -0.554144
O8    O     O_R   0.279450 0.155820 0.059580 -0.543374
C1    C     C_R   0.549640 0.626537 0.425955 0.717307
C2    C     C_R   0.951910 0.374471 0.926916 0.715601
C3    C     C_R   0.053348 0.873577 0.573510 0.724968
C4    C     C_R   0.444122 0.127417 0.074915 0.741953
O9    O     O_R   0.720530 0.844130 0.440420 -0.529830
O10   O     O_R   0.779470 0.155870 0.940420 -0.536165
O11   O     O_R   0.220530 0.655870 0.559580 -0.530432
O12   O     O_R   0.279470 0.344130 0.059580 -0.532209
O13   O     O_R   0.890830 0.844810 0.552660 -0.525410
O14   O     O_R   0.609170 0.155190 0.052660 -0.538370
O15   O     O_R   0.390830 0.655190 0.447340 -0.521502
O16   O     O_R   0.109170 0.344810 0.947340 -0.518478
C5    C     C_R   0.555775 0.874122 0.426571 0.664312
C6    C     C_R   0.947114 0.128192 0.924891 0.654914
C7    C     C_R   0.048317 0.628460 0.575069 0.677168
C8    C     C_R   0.450050 0.373230 0.073918 0.682317
O17   O     O_3   0.557310 0.749980 0.536820 -0.377594
O18   O     O_3   0.942690 0.250020 0.036820 -0.385079
O19   O     O_3   0.057310 0.750020 0.463180 -0.373287
O20   O     O_3   0.442690 0.249980 0.963180 -0.368883
V1    V     V_3+5 0.832160 0.749980 0.493170 1.440409
V2    V     V_3+5 0.667840 0.250020 0.993170 1.421917
V3    V     V_3+5 0.332160 0.750020 0.506830 1.427732
V4    V     V_3+5 0.167840 0.249980 0.006830 1.445417
C9    C     C_R   0.153315 0.594331 0.865301 0.086072
C10   C     C_R   0.388935 0.399086 0.364797 0.101160
C11   C     C_R   0.357945 0.896037 0.144179 0.083225
C12   C     C_R   0.998792 0.109891 0.632255 0.095664
H1    H     H_    0.250048 0.712076 0.777014 0.140303
H2    H     H_    0.315700 0.277350 0.277682 0.141939
H3    H     H_    0.363614 0.771259 0.231461 0.143753
H4    H     H_    0.979658 0.236755 0.718844 0.141923
C13   C     C_R   0.979170 0.453155 0.886605 -0.179684
C14   C     C_R   0.527725 0.549047 0.384346 -0.177920
C15   C     C_R   0.437256 0.053086 0.119448 -0.180251
C16   C     C_R   0.046948 0.950435 0.614964 -0.174672
C17   C     C_R   0.927296 0.477202 0.599100 -0.149020
C18   C     C_R   0.542785 0.530720 0.094348 -0.145779
C19   C     C_R   0.623734 0.034387 0.402561 -0.176043
C20   C     C_R   0.941200 0.965606 0.902381 -0.146475
C21   C     C_R   0.841906 0.416943 0.638429 -0.152399
C22   C     C_R   0.600820 0.599498 0.132154 -0.153328
C23   C     C_R   0.637784 0.106975 0.363636 -0.145975
C24   C     C_R   0.956475 0.891969 0.865006 -0.133239
C25   C     C_R   0.862709 0.427588 0.698912 -0.162041
C26   C     C_R   0.585842 0.589142 0.193171 -0.167396
C27   C     C_R   0.592284 0.096119 0.304301 -0.164657
C28   C     C_R   0.982598 0.904231 0.804574 -0.161852
C29   C     C_R   0.971146 0.500102 0.721986 0.113414
C30   C     C_R   0.512771 0.508063 0.218462 0.113860
C31   C     C_R   0.532572 0.011032 0.281913 0.109559
C32   C     C_R   0.990829 0.991699 0.779558 0.109127
C33   C     C_R   0.046812 0.566134 0.681160 0.068006
C34   C     C_R   0.455595 0.436862 0.179027 0.068085
C35   C     C_R   0.515886 0.937004 0.322651 0.078384
C36   C     C_R   0.974205 0.067322 0.818688 0.072381
C37   C     C_R   0.002515 0.509970 0.784206 0.042843
C38   C     C_R   0.496928 0.495029 0.281374 0.041358
C39   C     C_R   0.486034 0.997290 0.220850 0.039478
C40   C     C_R   0.009952 0.006090 0.716975 0.046354
C41   C     C_R   0.108932 0.586147 0.804481 0.058836
C42   C     C_R   0.419166 0.411756 0.303195 0.058214
C43   C     C_R   0.418930 0.910201 0.202743 0.067657
C44   C     C_R   0.998104 0.095119 0.694365 0.057695
C45   C     C_R   0.173089 0.651985 0.763340 -0.179926
C46   C     C_R   0.369795 0.342586 0.263002 -0.177944
C47   C     C_R   0.410858 0.838651 0.243635 -0.180702
C48   C     C_R   0.983234 0.167855 0.734168 -0.175076
C49   C     C_R   0.142297 0.642292 0.703168 -0.220021
C50   C     C_R   0.388250 0.354746 0.202499 -0.217084
C51   C     C_R   0.458288 0.851741 0.302066 -0.209172
C52   C     C_R   0.974646 0.154377 0.794914 -0.198039
C53   C     C_R   0.939633 0.444178 0.826428 -0.299475
C54   C     C_R   0.550849 0.562649 0.323205 -0.304415
C55   C     C_R   0.505043 0.066382 0.176970 -0.322462
C56   C     C_R   0.035032 0.934678 0.675974 -0.296170
C57   C     C_R   0.080657 0.530208 0.906426 0.447921
C58   C     C_R   0.449766 0.466152 0.405124 0.450684
C59   C     C_R   0.347902 0.970135 0.105565 0.401008
C60   C     C_R   0.035296 0.038555 0.593007 0.421246
C61   C     C_R   0.021106 0.554793 0.619175 -0.079529
C62   C     C_R   0.471510 0.448684 0.116691 -0.083679
C63   C     C_R   0.560186 0.949390 0.383233 -0.089126
C64   C     C_R   0.953545 0.053613 0.880810 -0.073444
H5    H     H_    0.869500 0.382086 0.813628 0.128433
H6    H     H_    0.604727 0.628235 0.309788 0.128099
H7    H     H_    0.566556 0.131950 0.186590 0.134319
H8    H     H_    0.045224 0.865568 0.689777 0.123301
H9    H     H_    0.910989 0.466509 0.552310 0.113300
H10   H     H_    0.559169 0.540310 0.047136 0.116877
H11   H     H_    0.662131 0.044646 0.448263 0.136396
H12   H     H_    0.918467 0.953890 0.948567 0.118681
H13   H     H_    0.789080 0.378605 0.726280 0.111336
H14   H     H_    0.634395 0.645827 0.219133 0.113470
H15   H     H_    0.604291 0.155772 0.277177 0.114167
H16   H     H_    0.990819 0.843499 0.778706 0.114263
H17   H     H_    0.753347 0.362985 0.621945 0.113108
H18   H     H_    0.660781 0.661375 0.114036 0.117544
H19   H     H_    0.684451 0.172574 0.379623 0.132096
H20   H     H_    0.947324 0.824487 0.883027 0.128654
H21   H     H_    0.197252 0.694577 0.673800 0.122030
H22   H     H_    0.346909 0.298977 0.174097 0.112784
H23   H     H_    0.447003 0.793966 0.331290 0.113710
H24   H     H_    0.963378 0.212967 0.823204 0.102584
O21   O     O_3   0.129385 0.538110 0.965337 -0.576270
C65   C     C_3   0.973740 0.558296 0.001006 0.105546
H25   H     H_    0.008602 0.541310 0.047230 0.124174
H26   H     H_    0.848958 0.515422 0.990987 0.101499
C66   C     C_3   0.931850 0.659276 0.999287 -0.347237
H27   H     H_    0.887233 0.681060 0.043978 0.161090
H28   H     H_    0.058340 0.700247 0.987889 0.208295
C67   C     C_3   0.778732 0.679684 0.956075 -0.790723
H29   H     H_    0.821287 0.664154 0.910009 0.232864
H30   H     H_    0.747164 0.752253 0.958785 0.226584
H31   H     H_    0.650825 0.639637 0.967346 0.225435
O22   O     O_3   0.416728 0.452282 0.464979 -0.576632
C68   C     C_3   0.584425 0.440392 0.494815 0.086915
H32   H     H_    0.550771 0.442631 0.542832 0.124150
H33   H     H_    0.686108 0.496923 0.487004 0.116074
C69   C     C_3   0.670328 0.348657 0.481766 -0.366523
H34   H     H_    0.734905 0.323873 0.522436 0.164666
H35   H     H_    0.562684 0.297820 0.469309 0.219388
C70   C     C_3   0.820657 0.354323 0.433763 -0.778939
H36   H     H_    0.763076 0.371776 0.390330 0.233192
H37   H     H_    0.884466 0.287644 0.429727 0.219628
H38   H     H_    0.929947 0.405340 0.445609 0.237621
O23   O     O_3   0.252405 0.961133 0.053366 -0.576556
C71   C     C_3   0.062769 0.975808 0.065028 0.145082
H39   H     H_    0.016484 0.025019 0.032097 0.141258
H40   H     H_    0.032253 0.006705 0.109140 0.096020
C72   C     C_3   0.949232 0.887292 0.058995 -0.396334
H41   H     H_    0.987137 0.852550 0.017382 0.208297
H42   H     H_    0.976504 0.842217 0.096391 0.206292
C73   C     C_3   0.743973 0.903302 0.060854 -0.808339
H43   H     H_    0.704735 0.952086 0.026498 0.237028
H44   H     H_    0.709405 0.930180 0.105135 0.242454
H45   H     H_    0.665591 0.838537 0.054003 0.241719
O24   O     O_3   0.040257 0.054211 0.532552 -0.581581
C74   C     C_3   0.224380 0.053027 0.510362 0.096394
H46   H     H_    0.216291 0.033820 0.462960 0.126030
H47   H     H_    0.309412 0.001142 0.531094 0.121136
C75   C     C_3   0.322751 0.146408 0.513905 -0.340312
H48   H     H_    0.412863 0.155896 0.474171 0.158667
H49   H     H_    0.221318 0.200578 0.513325 0.216654
C76   C     C_3   0.443962 0.156362 0.568432 -0.775775
H50   H     H_    0.560871 0.110080 0.565104 0.231461
H51   H     H_    0.364178 0.141140 0.609568 0.239906
H52   H     H_    0.500404 0.226677 0.571517 0.212735
C77   C     C_3   0.285683 0.668904 0.886194 -0.765689
H53   H     H_    0.417557 0.666624 0.860660 0.207848
H54   H     H_    0.224069 0.735542 0.880011 0.198547
H55   H     H_    0.322006 0.662856 0.933365 0.238080
C78   C     C_3   0.286738 0.314902 0.387714 -0.800081
H56   H     H_    0.152916 0.305967 0.364883 0.209934
H57   H     H_    0.370753 0.254984 0.379400 0.199532
H58   H     H_    0.254008 0.317780 0.435647 0.240654
C79   C     C_3   0.314350 0.801784 0.121468 -0.797724
H59   H     H_    0.435489 0.760398 0.128308 0.208466
H60   H     H_    0.194383 0.770490 0.145812 0.197754
H61   H     H_    0.287138 0.799896 0.073357 0.239864
C80   C     C_3   0.949958 0.200226 0.607585 -0.785958
H62   H     H_    0.815521 0.218413 0.627288 0.195628
H63   H     H_    0.058748 0.252082 0.618265 0.218100
H64   H     H_    0.931143 0.199515 0.559082 0.242052

loop_
_geom_bond_atom_site_label_1
_geom_bond_atom_site_label_2
_ccdc_geom_bond_type
C30   C34   A    
O1    C5    A    
C77   H53   S    
C54   H6    S    
C27   C31   A    
O19   V1    S    
C15   C55   A    
C80   H62   S    
O3    C7    A    
C74   H46   S    
C14   C54   A    
C44   C48   A    
C10   C78   S    
O15   V3    S    
C69   H34   S    
C78   H56   S    
O23   C71   S    
C35   C51   A    
C12   C60   A    
C39   C55   A    
C12   C80   S    
C79   H59   S    
O9    V1    S    
C74   H47   S    
C1    O15   A    
O24   C74   S    
C4    C15   S    
C66   H28   S    
C56   H8    S    
O13   V1    S    
O4    C8    A    
C72   C73   S    
C37   C41   A    
C12   C44   A    
C27   H15   S    
O1    V3    S    
C19   H11   S    
O2    V4    S    
C10   C58   A    
O3    V1    S    
C9    C57   A    
C31   C39   A    
C36   C52   A    
C11   C59   A    
C30   C38   A    
C67   H30   S    
C75   C76   S    
O2    C6    A    
C68   C69   S    
C7    C61   S    
C41   C45   A    
C14   C58   A    
H3    C47   S    
C76   H51   S    
C17   C61   A    
C10   C42   A    
C23   C27   A    
C67   H31   S    
C9    C41   A    
C70   H38   S    
O11   C7    A    
C18   H10   S    
C11   C43   A    
O12   C8    A    
C26   H14   S    
C2    C13   S    
C80   H63   S    
C73   H45   S    
O10   V2    S    
C71   C72   S    
C78   H57   S    
C33   C61   A    
C65   H25   S    
O5    V1    S    
C20   H12   S    
O7    V3    S    
O8    V4    S    
C59   O23   S    
C74   C75   S    
C28   H16   S    
C71   H40   S    
C66   C67   S    
C25   H13   S    
C25   C29   A    
O18   V4    S    
C19   C23   A    
C16   C56   A    
O11   V3    S    
H4    C48   S    
C69   H35   S    
C40   C44   A    
C40   C56   A    
C77   H54   S    
O7    C3    A    
C42   C46   A    
C75   H49   S    
C38   C54   A    
C53   H5    S    
C37   C53   A    
C17   C21   A    
O8    C4    A    
C13   C53   A    
C52   H24   S    
C26   C30   A    
C1    C14   S    
O9    C5    A    
C3    C16   S    
C50   H22   S    
C22   C26   A    
C55   H7    S    
C76   H52   S    
C49   H21   S    
C32   C40   A    
O14   V2    S    
C23   H19   S    
O6    V2    S    
C79   H61   S    
C33   C49   A    
C58   O22   S    
C68   H32   S    
C80   H64   S    
C73   H44   S    
O12   V4    S    
C36   C64   A    
C4    O14   A    
C70   H36   S    
C69   C70   S    
C78   H58   S    
C67   H29   S    
C68   H33   S    
O21   C65   S    
C5    C63   S    
C65   H26   S    
H1    C45   S    
C3    O13   A    
C45   C49   A    
C75   H48   S    
C19   C63   A    
O17   V3    S    
C34   C50   A    
C48   C52   A    
O5    C1    A    
C71   H39   S    
C70   H37   S    
C8    C62   S    
O6    C2    A    
C21   H17   S    
C72   H41   S    
C29   C33   A    
C18   C62   A    
C77   H55   S    
C13   C57   A    
C18   C22   A    
C31   C35   A    
C51   H23   S    
C32   C36   A    
C15   C59   A    
O10   C6    A    
C57   O21   S    
O16   V4    S    
C66   H27   S    
C43   C47   A    
C72   H42   S    
C38   C42   A    
C2    O16   A    
C21   C25   A    
C34   C62   A    
O20   V2    S    
C11   C79   S    
H2    C46   S    
C39   C43   A    
C9    C77   S    
C65   C66   S    
C28   C32   A    
C20   C24   A    
C24   H20   S    
C79   H60   S    
C20   C64   A    
C35   C63   A    
C22   H18   S    
C6    C64   S    
C73   H43   S    
C17   H9    S    
C60   O24   S    
C76   H50   S    
C16   C60   A    
C47   C51   A    
O4    V2    S    
C24   C28   A    
O22   C68   S    
C29   C37   A    
C46   C50   A    
