data_str_m2_o18_o24_f0_pcu.sym.151
_audit_creation_date              2012-12-10T17:50:12-0500
_audit_creation_method            fapswitch 2.2
_symmetry_space_group_name_H-M    P1
_symmetry_Int_Tables_number       1
_space_group_crystal_system       triclinic
_cell_length_a                    10.671858
_cell_length_b                    14.764117
_cell_length_c                    14.75326
_cell_angle_alpha                 64.64687
_cell_angle_beta                  104.248356
_cell_angle_gamma                 103.719221
_cell_volume                      2012.85275015

loop_
_atom_site_label
_atom_site_type_symbol
_atom_type_description
_atom_site_fract_x
_atom_site_fract_y
_atom_site_fract_z
_atom_type_partial_charge
C1    C     C_R   0.479102 0.119954 0.311558 0.789946
C2    C     C_R   0.513570 0.880666 0.687495 0.845850
C3    C     C_R   0.431792 0.285742 0.170464 0.349763
C4    C     C_R   0.516700 0.713268 0.829639 0.350812
C5    C     C_R   0.429831 0.356554 0.067843 0.040776
C6    C     C_R   0.458803 0.637418 0.913188 -0.008963
C7    C     C_R   0.453470 0.324156 0.996710 0.040488
C8    C     C_R   0.408819 0.669291 0.973198 0.070948
C9    C     C_R   0.412651 0.460265 0.033748 0.111047
C10   C     C_R   0.447148 0.531422 0.938269 0.052328
C11   C     C_R   0.457489 0.494005 0.867594 -0.218447
C12   C     C_R   0.358368 0.495648 0.088509 -0.127347
C13   C     C_R   0.458675 0.391789 0.896153 -0.150891
C14   C     C_R   0.357059 0.598123 0.058839 -0.203849
C15   C     C_R   0.700901 0.279655 0.679880 -0.191094
C16   C     C_R   0.292493 0.717559 0.324177 -0.200127
C17   C     C_R   0.676850 0.201983 0.646107 0.582890
C18   C     C_R   0.326175 0.799517 0.352518 0.590962
C19   C     C_R   0.518343 0.285246 0.509396 -0.003119
C20   C     C_R   0.472929 0.710874 0.496074 -0.026729
C21   C     C_R   0.538146 0.366666 0.542851 -0.036549
C22   C     C_R   0.439972 0.623466 0.470663 -0.034505
C23   C     C_R   0.259491 0.999669 0.499772 0.823342
C24   C     C_R   0.740364 0.000646 0.499686 0.860668
C25   C     C_R   0.630615 0.361011 0.631849 0.034713
C26   C     C_R   0.342769 0.627059 0.384622 0.041380
C27   C     C_R   0.469679 0.452731 0.491661 0.102529
C28   C     C_R   0.501376 0.534092 0.526117 0.100439
C29   C     C_R   0.591518 0.522935 0.616076 -0.296736
C30   C     C_R   0.367568 0.458318 0.409258 -0.257434
C31   C     C_R   0.652468 0.437184 0.670565 0.018652
C32   C     C_R   0.300768 0.541481 0.358697 0.010678
C33   C     C_3   0.005033 0.924359 0.474282 -0.061795
C34   C     C_3   0.994495 0.076348 0.524265 -0.055926
C35   C     C_3   0.931448 0.014500 0.408057 0.369729
C36   C     C_3   0.067888 0.986178 0.590500 0.363534
C37   C     C_3   0.877074 0.001592 0.500251 -0.114131
C38   C     C_3   0.122527 0.999087 0.498432 -0.108342
C39   C     C_3   0.950340 0.910255 0.568287 -0.279735
C40   C     C_3   0.049184 0.090444 0.430239 -0.289583
C41   C     C_R   0.464632 0.187673 0.201624 -0.204743
C42   C     C_R   0.494405 0.814068 0.792975 -0.146982
C43   C     C_R   0.475497 0.225175 0.026203 -0.123129
C44   C     C_R   0.405412 0.771932 0.945104 -0.137038
C45   C     C_R   0.486403 0.157551 0.128044 -0.083012
C46   C     C_R   0.441566 0.844789 0.853127 -0.101181
Cu1   Cu    Cu3+1 0.465750 0.918270 0.475680 0.987019
Cu2   Cu    Cu3+1 0.534250 0.081730 0.524320 0.977790
H1    H     H_    0.547133 0.714813 0.558983 0.170176
H2    H     H_    0.448245 0.283303 0.443903 0.165863
H3    H     H_    0.777073 0.274525 0.744734 0.216601
H4    H     H_    0.227432 0.727155 0.252889 0.206349
H5    H     H_    0.612355 0.578335 0.649181 0.141268
H6    H     H_    0.332547 0.395999 0.385378 0.132312
H7    H     H_    0.909640 0.837652 0.625362 0.178877
H8    H     H_    0.090004 0.163046 0.373219 0.161180
H9    H     H_    0.469675 0.366335 0.840045 0.174225
H10   H     H_    0.313752 0.621838 0.102769 0.140221
H11   H     H_    0.493846 0.202865 0.970025 0.211086
H12   H     H_    0.365297 0.794288 0.991936 0.195051
H13   H     H_    0.461284 0.542698 0.788650 0.193868
H14   H     H_    0.306747 0.445944 0.150204 0.179461
N1    N     N_R   0.585750 0.204560 0.560800 -0.231499
N2    N     N_R   0.414250 0.795440 0.439200 -0.227961
O1    O     O_R   0.454850 0.022100 0.338110 -0.600888
O2    O     O_R   0.545150 0.977900 0.661890 -0.628208
O3    O     O_R   0.512700 0.160150 0.379180 -0.531741
O4    O     O_R   0.487300 0.839850 0.620820 -0.535136
O5    O     O_R   0.287930 0.931000 0.479440 -0.600139
O6    O     O_R   0.712070 0.069000 0.520560 -0.598714
O7    O     O_R   0.345780 0.069050 0.520520 -0.591689
O8    O     O_R   0.654220 0.930950 0.479480 -0.570826
O9    O     O_3   0.855374 0.028866 0.312482 -0.736555
H15   H     H_    0.917696 0.039872 0.267526 0.323179
O10   O     O_3   0.142869 0.971612 0.686361 -0.748910
H16   H     H_    0.079965 0.960614 0.730873 0.327803
O11   O     O_3   0.270708 0.884477 0.287542 -0.728228
H17   H     H_    0.251061 0.915114 0.328721 0.350990
O12   O     O_3   0.744707 0.122220 0.706314 -0.738787
H18   H     H_    0.745016 0.082722 0.667870 0.364177
C47   C     C_2   0.008591 0.840361 0.444129 0.416828
H19   H     H_    0.975835 0.848441 0.365759 0.086509
O13   O     O_2   0.051463 0.763692 0.506987 -0.512526
C48   C     C_2   0.991210 0.160409 0.554415 0.418777
H20   H     H_    0.021936 0.151639 0.633102 0.086204
O14   O     O_2   0.950684 0.237895 0.491159 -0.501201
O15   O     O_3   0.602216 0.693668 0.785881 -0.763068
H21   H     H_    0.651441 0.640374 0.839893 0.327106
O16   O     O_3   0.412275 0.314655 0.242302 -0.747977
H22   H     H_    0.342657 0.263210 0.277718 0.299335
C49   C     C_2   0.416958 0.950083 0.821535 0.494789
H23   H     H_    0.402436 0.001390 0.742546 0.132307
O17   O     O_2   0.409479 0.980700 0.884653 -0.494380
C50   C     C_2   0.531714 0.059901 0.155313 0.496674
H24   H     H_    0.586078 0.021911 0.229846 0.125762
O18   O     O_2   0.511318 0.021574 0.093290 -0.488406
C51   C     C_2   0.736147 0.431184 0.769290 0.330353
H25   H     H_    0.790925 0.500098 0.777402 0.096839
O19   O     O_2   0.737551 0.351467 0.844045 -0.542077
C52   C     C_2   0.183518 0.532030 0.282242 0.367147
H26   H     H_    0.178173 0.483655 0.242623 0.062097
O20   O     O_2   0.088299 0.571695 0.267842 -0.509395

loop_
_geom_bond_atom_site_label_1
_geom_bond_atom_site_label_2
_ccdc_geom_bond_type
C25   C31   A    
C38   C40   S    
O15   H21   S    
C26   C32   A    
C34   C37   S    
O9    H15   S    
C23   O5    A    
C47   H19   S    
C24   O6    A    
C4    O15   S    
O11   H17   S    
C30   H6    S    
C33   C39   S    
C4    C42   A    
C34   C40   S    
C28   C29   A    
C19   C21   A    
C48   O14   D    
C2    O4    A    
C33   C35   S    
C15   C25   A    
C13   H9    S    
C17   O12   S    
C42   C46   A    
Cu1   O5    S    
C51   O19   D    
C39   H7    S    
C19   N1    A    
C40   H8    S    
C1    O1    A    
C7    C43   A    
C9    C10   A    
C43   H11   S    
C21   C27   A    
C22   C28   A    
C27   C30   A    
C34   C48   S    
C45   C50   S    
C47   O13   D    
C44   C46   A    
C51   H25   S    
C16   C26   A    
C14   H10   S    
C16   H4    S    
C48   H20   S    
C4    C6    A    
Cu2   O6    S    
Cu1   N2    S    
C5    C7    A    
Cu2   N1    S    
C6    C8    A    
C46   C49   S    
C11   H13   S    
C32   C52   S    
C37   C39   S    
C20   N2    A    
O10   H16   S    
C5    C9    A    
C20   H1    S    
C36   O10   S    
C23   O7    A    
C49   O17   D    
C12   H14   S    
Cu1   Cu2   S    
C2    C42   S    
C52   O20   D    
C24   C37   S    
C50   O18   D    
C43   C45   A    
C1    C41   S    
C20   C22   A    
C15   H3    S    
Cu2   O7    S    
Cu1   O4    S    
C49   H23   S    
C24   O8    A    
C15   C17   A    
C21   C25   A    
C35   O9    S    
C8    C14   A    
C35   C37   S    
C36   C39   S    
C8    C44   A    
C12   C14   A    
C3    C5    A    
C6    C10   A    
C2    O2    A    
C23   C38   S    
C33   C38   S    
C3    O16   S    
C36   C38   S    
C35   C40   S    
C29   C31   A    
C17   N1    A    
C30   C32   A    
C11   C13   A    
C19   H2    S    
C18   N2    A    
C29   H5    S    
C44   H12   S    
C18   O11   S    
C52   H26   S    
C1    O3    A    
C34   C36   S    
C31   C51   S    
Cu2   O3    S    
C50   H24   S    
C9    C12   A    
Cu1   O8    S    
C3    C41   A    
C10   C11   A    
O12   H18   S    
C7    C13   A    
C16   C18   A    
C22   C26   A    
C27   C28   A    
C41   C45   A    
Cu2   O2    S    
O16   H22   S    
C33   C47   S    
Cu1   O1    S    
