data_str_m9_o1_o16_f0_sra.sym.13
_audit_creation_date              2012-12-11T15:47:01-0500
_audit_creation_method            fapswitch 2.2
_symmetry_space_group_name_H-M    P1
_symmetry_Int_Tables_number       1
_space_group_crystal_system       triclinic
_cell_length_a                    20.226931
_cell_length_b                    7.256195
_cell_length_c                    13.568685
_cell_angle_alpha                 89.933007
_cell_angle_beta                  103.198942
_cell_angle_gamma                 89.913384
_cell_volume                      1938.87009459

loop_
_atom_site_label
_atom_site_type_symbol
_atom_type_description
_atom_site_fract_x
_atom_site_fract_y
_atom_site_fract_z
_atom_type_partial_charge
O1    O     O_R   0.449560 0.506810 0.599700 -0.527849
O2    O     O_R   0.550440 0.006810 0.400300 -0.533087
O3    O     O_R   0.587960 0.180060 0.595760 -0.543720
O4    O     O_R   0.412040 0.680060 0.404240 -0.538285
C1    C     C_R   0.614587 0.344001 0.617942 0.707436
C2    C     C_R   0.385450 0.844224 0.381817 0.709252
O5    O     O_R   0.452380 0.177430 0.611700 -0.538707
O6    O     O_R   0.547620 0.677430 0.388300 -0.534141
O7    O     O_R   0.413900 0.001890 0.416350 -0.539384
O8    O     O_R   0.586100 0.501890 0.583650 -0.540326
C3    C     C_R   0.436433 0.345831 0.637631 0.754000
C4    C     C_R   0.564345 0.845417 0.363318 0.755592
O9    O     O_3   0.487530 0.337490 0.435890 -0.377093
O10   O     O_3   0.512470 0.837490 0.564110 -0.378681
V1    V     V_3+5 0.502310 0.064660 0.511890 1.522876
V2    V     V_3+5 0.497690 0.564660 0.488110 1.537793
C5    C     C_R   0.610951 0.824084 0.112133 0.310851
C6    C     C_R   0.389450 0.390218 0.887981 0.312388
H1    H     H_    0.520018 0.793014 0.166132 0.173759
H2    H     H_    0.481127 0.406386 0.834548 0.172789
H3    H     H_    0.694775 0.851611 0.984175 0.172439
H4    H     H_    0.305090 0.375959 0.015671 0.170646
C7    C     C_R   0.605937 0.850831 0.287972 -0.162538
C8    C     C_R   0.394605 0.355412 0.712649 -0.161948
C9    C     C_R   0.932938 0.841178 0.315773 -0.184516
C10   C     C_R   0.067208 0.376327 0.683098 -0.184375
C11   C     C_R   0.898402 0.811046 0.392335 0.032801
C12   C     C_R   0.102016 0.403149 0.606411 0.030331
C13   C     C_R   0.827160 0.808125 0.367927 -0.144993
C14   C     C_R   0.173130 0.409045 0.631692 -0.158362
C15   C     C_R   0.789363 0.847992 0.268608 0.087438
C16   C     C_R   0.210773 0.371316 0.731269 0.090174
C17   C     C_R   0.825522 0.861236 0.190566 0.075495
C18   C     C_R   0.174444 0.361008 0.809201 0.078438
C19   C     C_R   0.716584 0.860071 0.242996 -0.000920
C20   C     C_R   0.283556 0.358295 0.757024 -0.005037
C21   C     C_R   0.682137 0.845848 0.138993 0.055561
C22   C     C_R   0.318016 0.373743 0.860970 0.055881
C23   C     C_R   0.719374 0.854353 0.063777 -0.134943
C24   C     C_R   0.280579 0.370770 0.936082 -0.136703
C25   C     C_R   0.789488 0.868857 0.089070 -0.195984
C26   C     C_R   0.210396 0.357635 0.910806 -0.198165
C27   C     C_R   0.676459 0.885714 0.316052 -0.083261
C28   C     C_R   0.323620 0.329071 0.684237 -0.069417
C29   C     C_R   0.574302 0.817154 0.187143 -0.154793
C30   C     C_R   0.426499 0.388885 0.813325 -0.157959
C31   C     C_R   0.897293 0.859870 0.215435 -0.093637
C32   C     C_R   0.102613 0.362431 0.784018 -0.093399
H5    H     H_    0.988018 0.840521 0.333288 0.150947
H6    H     H_    0.012152 0.376381 0.665174 0.150004
H7    H     H_    0.802110 0.768229 0.426754 0.167145
H8    H     H_    0.198153 0.450231 0.573178 0.173785
H9    H     H_    0.815398 0.878021 0.027666 0.123644
H10   H     H_    0.184405 0.351847 0.972223 0.122878
C33   C     C_R   0.210552 0.015757 0.248740 0.264080
C34   C     C_R   0.787616 0.519840 0.754675 0.276501
C35   C     C_R   0.277064 0.009935 0.307203 -0.187615
C36   C     C_R   0.722082 0.511217 0.693144 -0.137642
H11   H     H_    0.297236 0.130323 0.350323 0.198813
H12   H     H_    0.701825 0.631224 0.648933 0.177633
C37   C     C_R   0.316693 0.850487 0.313241 -0.095500
C38   C     C_R   0.683177 0.350647 0.686620 -0.090936
C39   C     C_R   0.289066 0.695925 0.256045 -0.085261
C40   C     C_R   0.710830 0.196979 0.744894 -0.140060
H13   H     H_    0.318375 0.570304 0.258396 0.149837
H14   H     H_    0.681811 0.071124 0.742671 0.148589
C41   C     C_R   0.223521 0.702163 0.193737 -0.140734
C42   C     C_R   0.776142 0.204098 0.807723 -0.137788
H15   H     H_    0.204891 0.581954 0.148766 0.158402
H16   H     H_    0.794890 0.084426 0.853271 0.165385
C43   C     C_R   0.182898 0.861268 0.188695 -0.099227
C44   C     C_R   0.816246 0.363791 0.813266 -0.098375
O11   O     O_R   0.913920 0.203370 0.916260 -0.536744
O12   O     O_R   0.086080 0.703370 0.083740 -0.540004
O13   O     O_R   0.047620 0.535540 0.888290 -0.539231
O14   O     O_R   0.952380 0.035540 0.111710 -0.533744
C45   C     C_R   0.063441 0.368355 0.862202 0.685290
C46   C     C_R   0.936377 0.868414 0.137439 0.689254
O15   O     O_R   0.912040 0.532780 0.904220 -0.517868
O16   O     O_R   0.087960 0.032780 0.095780 -0.517546
O17   O     O_R   0.949550 0.708160 0.099720 -0.539313
O18   O     O_R   0.050450 0.208160 0.900280 -0.534908
C47   C     C_R   0.885569 0.365973 0.882117 0.707155
C48   C     C_R   0.114056 0.865266 0.118724 0.705408
O19   O     O_3   0.012480 0.375300 0.064060 -0.365731
O20   O     O_3   0.987520 0.875300 0.935940 -0.362505
V3    V     V_3+5 0.997690 0.648180 0.988110 1.519378
V4    V     V_3+5 0.002310 0.148180 0.011890 1.535851
Br1   Br    Br    0.560488 0.797185 0.974354 -0.525196
Br2   Br    Br    0.439935 0.417741 0.025701 -0.528266
C49   C     C_2   0.704725 0.973682 0.415774 0.755541
O21   O     O_2   0.740020 0.111523 0.420210 -0.533796
O22   O     O_R   0.691508 0.898763 0.504254 -0.669447
H17   H     H_    0.714365 0.970016 0.566941 0.311973
C50   C     C_2   0.294430 0.246470 0.583657 0.738948
O23   O     O_2   0.305135 0.317310 0.507022 -0.564098
O24   O     O_R   0.253571 0.089633 0.576964 -0.645155
H18   H     H_    0.235673 0.047709 0.504571 0.319010
C51   C     C_2   0.937023 0.777346 0.497455 0.841202
O25   O     O_2   0.996413 0.825252 0.523956 -0.553274
O26   O     O_R   0.906032 0.688311 0.566286 -0.632227
H19   H     H_    0.938447 0.668646 0.634444 0.318453
C52   C     C_2   0.064174 0.429532 0.499972 0.840618
O27   O     O_2   0.004024 0.388752 0.474481 -0.549599
O28   O     O_R   0.097148 0.501093 0.428323 -0.636817
H20   H     H_    0.065702 0.514655 0.358861 0.316041
Br3   Br    Br    0.161167 0.237442 0.262762 -0.539189
Br4   Br    Br    0.832729 0.751804 0.750246 -0.567683

loop_
_geom_bond_atom_site_label_1
_geom_bond_atom_site_label_2
_ccdc_geom_bond_type
C36   C38   A    
C14   C16   A    
C39   H13   S    
O26   H19   S    
C7    C29   A    
C11   C13   A    
C50   O23   D    
O1    C3    A    
O16   C48   A    
O2    C4    A    
C2    O7    A    
O15   V3    S    
O24   H18   S    
C23   C25   A    
O5    C3    A    
C4    C7    S    
C11   C51   S    
O22   H17   S    
C16   C20   A    
C2    C37   S    
C19   C21   A    
C5    C29   A    
C10   H6    S    
O18   V4    S    
C35   H11   S    
C36   H12   S    
C46   O17   A    
C3    C8    S    
C7    C27   A    
C37   C39   A    
C34   Br4   S    
C38   C40   A    
C34   C44   A    
C18   C26   A    
C15   C17   A    
C33   C43   A    
O12   V3    S    
C19   C27   A    
C9    C31   A    
C10   C32   A    
C24   C26   A    
O6    V2    S    
C22   C24   A    
C13   C15   A    
C6    C30   A    
C39   C41   A    
C6    Br2   S    
C5    Br1   S    
O4    C2    A    
O12   C48   A    
C49   O21   D    
O20   V3    S    
O5    V1    S    
C27   C49   S    
C33   Br3   S    
C41   H15   S    
C40   H14   S    
C32   C45   S    
O4    V2    S    
O11   V4    S    
C49   O22   S    
C51   O25   D    
H3    C23   S    
C42   C44   A    
H4    C24   S    
H1    C29   S    
C52   O28   S    
O1    V2    S    
C5    C21   A    
O2    V1    S    
O13   C45   A    
C25   H9    S    
O17   V3    S    
O13   V3    S    
C51   O26   S    
C33   C35   A    
C17   C31   A    
C15   C19   A    
C20   C28   A    
C18   C32   A    
C40   C42   A    
O3    V1    S    
C43   C48   S    
C13   H7    S    
O19   V4    S    
O14   V4    S    
O14   C46   A    
O3    C1    A    
C50   O24   S    
C35   C37   A    
C9    C11   A    
O28   H20   S    
C10   C12   A    
C8    C30   A    
C20   C22   A    
C6    C22   A    
C17   C25   A    
C1    O8    A    
O16   V4    S    
C28   C50   S    
O8    V2    S    
C26   H10   S    
O15   C47   A    
C12   C52   S    
C14   H8    S    
C45   O18   A    
C8    C28   A    
C12   C14   A    
C34   C36   A    
C1    C38   S    
C41   C43   A    
O7    V1    S    
C9    H5    S    
C44   C47   S    
C21   C23   A    
O9    V2    S    
C52   O27   D    
C42   H16   S    
O10   V1    S    
C31   C46   S    
O11   C47   A    
H2    C30   S    
O6    C4    A    
C16   C18   A    
