data_str_m4_o1_o4_f0_acs.sym.39
_audit_creation_date              2013-03-05T15:45:59-0500
_audit_creation_method            fapswitch 2.2
_symmetry_space_group_name_H-M    P1
_symmetry_Int_Tables_number       1
_space_group_crystal_system       triclinic
_cell_length_a                    19.01349
_cell_length_b                    10.955487
_cell_length_c                    18.831509
_cell_angle_alpha                 90.351625
_cell_angle_beta                  90.11456
_cell_angle_gamma                 89.827575
_cell_volume                      3922.54246045

loop_
_atom_site_label
_atom_site_type_symbol
_atom_site_description
_atom_site_fract_x
_atom_site_fract_y
_atom_site_fract_z
_atom_type_partial_charge
O1    O     O_R   0.787510 0.042610 0.670410 -0.447650
O2    O     O_R   0.212490 0.042610 0.329590 -0.448918
O3    O     O_R   0.287510 0.542610 0.670410 -0.448574
O4    O     O_R   0.712490 0.542610 0.329590 -0.446005
O5    O     O_R   0.765670 0.292090 0.675090 -0.494157
O6    O     O_R   0.234330 0.292090 0.324910 -0.479242
O7    O     O_R   0.265670 0.792090 0.675090 -0.488654
O8    O     O_R   0.734330 0.792090 0.324910 -0.479956
C1    C     C_R   0.730472 0.376962 0.646111 0.541634
C2    C     C_R   0.286252 0.336387 0.361713 0.534321
C3    C     C_R   0.230467 0.876951 0.646105 0.553980
C4    C     C_R   0.786253 0.836385 0.361713 0.534258
O9    O     O_R   0.670220 0.409020 0.668560 -0.524766
O10   O     O_R   0.329780 0.409020 0.331440 -0.513176
O11   O     O_R   0.170220 0.909020 0.668560 -0.518435
O12   O     O_R   0.829780 0.909020 0.331440 -0.513553
O13   O     O_R   0.556580 0.251590 0.674980 -0.476049
O14   O     O_R   0.443420 0.251590 0.325020 -0.507585
O15   O     O_R   0.056580 0.751590 0.674980 -0.475318
O16   O     O_R   0.943420 0.751590 0.325020 -0.506672
C5    C     C_R   0.531155 0.154359 0.646944 0.557460
C6    C     C_R   0.435342 0.150457 0.360752 0.536007
C7    C     C_R   0.031154 0.654359 0.646944 0.556515
C8    C     C_R   0.935336 0.650456 0.360750 0.536634
O17   O     O_R   0.545890 0.049670 0.670030 -0.519536
O18   O     O_R   0.454110 0.049670 0.329970 -0.488108
O19   O     O_R   0.045890 0.549670 0.670030 -0.518652
O20   O     O_R   0.954110 0.549670 0.329970 -0.486861
O21   O     O_R   0.681340 0.957860 0.676500 -0.519787
O22   O     O_R   0.318660 0.957860 0.323500 -0.534816
O23   O     O_R   0.181340 0.457860 0.676500 -0.517073
O24   O     O_R   0.818660 0.457860 0.323500 -0.533704
C9    C     C_R   0.742503 0.966164 0.648739 0.560381
C10   C     C_R   0.258051 0.972141 0.353682 0.531895
C11   C     C_R   0.242501 0.466170 0.648737 0.561923
C12   C     C_R   0.758057 0.472162 0.353691 0.534876
O25   O     O_R   0.787380 0.044010 0.830940 -0.519883
O26   O     O_R   0.212620 0.044010 0.169060 -0.519046
O27   O     O_R   0.287380 0.544010 0.830940 -0.528070
O28   O     O_R   0.712620 0.544010 0.169060 -0.521387
O29   O     O_R   0.765540 0.293390 0.823910 -0.492765
O30   O     O_R   0.234460 0.293390 0.176090 -0.476617
O31   O     O_R   0.265540 0.793390 0.823910 -0.478892
O32   O     O_R   0.734460 0.793390 0.176090 -0.481761
C13   C     C_R   0.729678 0.380978 0.852046 0.551927
C14   C     C_R   0.270844 0.378039 0.146812 0.571219
C15   C     C_R   0.211886 0.835912 0.860408 0.557765
C16   C     C_R   0.770063 0.879940 0.147914 0.565265
O33   O     O_R   0.670090 0.410410 0.829090 -0.528429
O34   O     O_R   0.329910 0.410410 0.170910 -0.527193
O35   O     O_R   0.170090 0.910410 0.829090 -0.520336
O36   O     O_R   0.829910 0.910410 0.170910 -0.529275
O37   O     O_R   0.556450 0.252890 0.823790 -0.510988
O38   O     O_R   0.443550 0.252890 0.176210 -0.511864
O39   O     O_R   0.056450 0.752890 0.823790 -0.535185
O40   O     O_R   0.943550 0.752890 0.176210 -0.514434
C17   C     C_R   0.531495 0.156577 0.853354 0.570210
C18   C     C_R   0.468364 0.156190 0.146640 0.578827
C19   C     C_R   0.029761 0.655482 0.852123 0.552544
C20   C     C_R   0.965277 0.656046 0.144872 0.582158
O41   O     O_R   0.545750 0.051070 0.830560 -0.443651
O42   O     O_R   0.454250 0.051070 0.169440 -0.437373
O43   O     O_R   0.045750 0.551070 0.830560 -0.440263
O44   O     O_R   0.954250 0.551070 0.169440 -0.436245
O45   O     O_R   0.681210 0.959150 0.825320 -0.498664
O46   O     O_R   0.318790 0.959150 0.174680 -0.500686
O47   O     O_R   0.181210 0.459150 0.825320 -0.493239
O48   O     O_R   0.818790 0.459150 0.174680 -0.502559
C21   C     C_R   0.742023 0.972121 0.854778 0.543136
C22   C     C_R   0.257283 0.966307 0.147805 0.539588
C23   C     C_R   0.242803 0.468882 0.853474 0.539511
C24   C     C_R   0.758272 0.471354 0.145300 0.540358
Cr1   Cr    Cr6+3 0.771950 0.169480 0.750100 1.088370
Cr2   Cr    Cr6+3 0.228050 0.169480 0.249900 1.092334
Cr3   Cr    Cr6+3 0.271950 0.669480 0.750100 1.090161
Cr4   Cr    Cr6+3 0.728050 0.669480 0.249900 1.088981
Cr5   Cr    Cr6+3 0.614930 0.323340 0.749170 1.055468
Cr6   Cr    Cr6+3 0.385070 0.323340 0.250830 1.028265
Cr7   Cr    Cr6+3 0.114930 0.823340 0.749170 1.051190
Cr8   Cr    Cr6+3 0.885070 0.823340 0.250830 1.024487
Cr9   Cr    Cr6+3 0.616590 0.010620 0.750610 1.080327
Cr10  Cr    Cr6+3 0.383410 0.010620 0.249390 1.070898
Cr11  Cr    Cr6+3 0.116590 0.510620 0.750610 1.081483
Cr12  Cr    Cr6+3 0.883410 0.510620 0.249390 1.070207
O49   O     O_3   0.667820 0.167810 0.749960 -0.276509
O50   O     O_3   0.332180 0.167810 0.250040 -0.309554
O51   O     O_3   0.167820 0.667810 0.749960 -0.296221
O52   O     O_3   0.832180 0.667810 0.250040 -0.309834
C25   C     C_R   0.448731 0.155374 0.437300 -0.004173
C26   C     C_R   0.490318 0.160592 0.581414 0.037945
C27   C     C_R   0.948722 0.655370 0.437300 -0.004354
C28   C     C_R   0.990314 0.660592 0.581415 0.036802
C29   C     C_R   0.471963 0.261780 0.469880 -0.033586
C30   C     C_R   0.493010 0.264464 0.539846 0.073561
C31   C     C_R   0.971960 0.761773 0.469878 -0.033473
C32   C     C_R   0.993009 0.764460 0.539844 0.073955
C33   C     C_R   0.457374 0.055956 0.552553 -0.138806
C34   C     C_R   0.437387 0.053209 0.480641 -0.144581
C35   C     C_R   0.957361 0.555961 0.552558 -0.140109
C36   C     C_R   0.937374 0.553211 0.480644 -0.144555
C37   C     C_3   0.527712 0.347039 0.447908 -0.206788
C38   C     C_3   0.552812 0.347511 0.524404 -0.210792
C39   C     C_3   0.027707 0.847027 0.447901 -0.206896
C40   C     C_3   0.052812 0.847500 0.524396 -0.210648
H1    H     H_    0.452697 0.973242 0.583370 0.159237
H2    H     H_    0.417921 0.969143 0.457894 0.150572
H3    H     H_    0.952679 0.473253 0.583379 0.158528
H4    H     H_    0.917907 0.469146 0.457899 0.150463
H5    H     H_    0.003209 0.934418 0.431417 0.218723
H6    H     H_    0.104702 0.802014 0.531485 0.124711
H7    H     H_    0.503216 0.434431 0.431423 0.218797
H8    H     H_    0.604703 0.302030 0.531496 0.125428
H9    H     H_    0.565833 0.305161 0.410142 0.174409
H10   H     H_    0.547342 0.437500 0.551211 0.231461
H11   H     H_    0.065825 0.805147 0.410131 0.174060
H12   H     H_    0.047346 0.937492 0.551202 0.231520
C41   C     C_R   0.699562 0.867443 0.539381 -0.160605
C42   C     C_R   0.293064 0.855798 0.459444 -0.187795
C43   C     C_R   0.199560 0.367452 0.539379 -0.160080
C44   C     C_R   0.793074 0.355829 0.459457 -0.188157
H13   H     H_    0.647378 0.859724 0.561856 0.180032
H14   H     H_    0.329770 0.802960 0.427721 0.154427
H15   H     H_    0.147375 0.359734 0.561853 0.180345
H16   H     H_    0.829771 0.302978 0.427730 0.154284
C45   C     C_R   0.708052 0.846254 0.467161 -0.111971
C46   C     C_R   0.293610 0.842393 0.532759 -0.152439
C47   C     C_R   0.208051 0.346258 0.467160 -0.111963
C48   C     C_R   0.793623 0.342421 0.532772 -0.151223
H17   H     H_    0.663102 0.821278 0.435111 0.213636
H18   H     H_    0.326845 0.772841 0.556108 0.184057
H19   H     H_    0.163102 0.321278 0.435109 0.213711
H20   H     H_    0.826850 0.272855 0.556117 0.184347
C49   C     C_R   0.773456 0.864792 0.435797 -0.032156
C50   C     C_R   0.249217 0.914867 0.574867 -0.027168
C51   C     C_R   0.273455 0.364797 0.435796 -0.032226
C52   C     C_R   0.749236 0.414902 0.574882 -0.025789
C53   C     C_R   0.829827 0.906543 0.476387 -0.127103
C54   C     C_R   0.206239 0.002226 0.543630 -0.127432
C55   C     C_R   0.329825 0.406550 0.476387 -0.127216
C56   C     C_R   0.706271 0.502283 0.543652 -0.127541
H21   H     H_    0.879326 0.927205 0.451402 0.159635
H22   H     H_    0.172340 0.057594 0.577001 0.183381
H23   H     H_    0.379325 0.427208 0.451403 0.159629
H24   H     H_    0.672382 0.557657 0.577029 0.182318
C57   C     C_R   0.823578 0.921894 0.548919 0.202023
C58   C     C_R   0.196945 0.004947 0.470713 0.188303
C59   C     C_R   0.323576 0.421900 0.548919 0.202212
C60   C     C_R   0.696969 0.505004 0.470735 0.188213
C61   C     C_R   0.756691 0.908018 0.580539 -0.001348
C62   C     C_R   0.245776 0.937080 0.427394 0.004202
C63   C     C_R   0.256689 0.408025 0.580537 -0.000397
C64   C     C_R   0.745790 0.437122 0.427411 0.003322
C65   C     C_R   0.496163 0.049029 0.963047 0.201029
C66   C     C_R   0.504890 0.049114 0.036544 0.195591
C67   C     C_R   0.998600 0.542696 0.961842 0.202682
C68   C     C_R   0.004895 0.550215 0.035435 0.193935
C69   C     C_R   0.496042 0.160396 0.074163 -0.018635
C70   C     C_R   0.503600 0.160519 0.925879 -0.013488
C71   C     C_R   0.985078 0.659924 0.069957 -0.030295
C72   C     C_R   0.996152 0.653118 0.922323 -0.011597
C73   C     C_R   0.494115 0.270526 0.036879 -0.193588
C74   C     C_R   0.503436 0.270685 0.963664 -0.191160
C75   C     C_R   0.965430 0.761515 0.029057 -0.202254
C76   C     C_R   0.976046 0.760335 0.956149 -0.199886
H25   H     H_    0.485054 0.355903 0.064469 0.138179
H26   H     H_    0.510642 0.356172 0.936424 0.134733
H27   H     H_    0.944914 0.843614 0.053804 0.149828
H28   H     H_    0.968978 0.841938 0.925853 0.125217
C77   C     C_R   0.810065 0.987128 0.967944 0.004130
C78   C     C_R   0.173137 0.911973 0.052853 0.013388
C79   C     C_R   0.314422 0.471511 0.963744 0.004073
C80   C     C_R   0.686598 0.471755 0.034896 0.009287
C81   C     C_R   0.802450 0.998477 0.041379 -0.003319
C82   C     C_R   0.165579 0.911588 0.978767 -0.004078
C83   C     C_R   0.307472 0.485737 0.037060 -0.002107
C84   C     C_R   0.691061 0.488529 0.961718 0.005492
C85   C     C_R   0.753810 0.921525 0.076183 0.037806
C86   C     C_R   0.221294 0.861933 0.936546 0.023557
C87   C     C_R   0.257184 0.413046 0.073079 0.038150
C88   C     C_R   0.744613 0.425132 0.923822 0.030870
C89   C     C_R   0.702910 0.859046 0.036401 -0.108657
C90   C     C_R   0.285434 0.832138 0.968786 -0.128211
C91   C     C_R   0.207091 0.347199 0.033640 -0.098495
C92   C     C_R   0.802050 0.377452 0.960637 -0.136969
H29   H     H_    0.665527 0.798968 0.061533 0.181120
H30   H     H_    0.328741 0.795404 0.938258 0.185640
H31   H     H_    0.169582 0.288023 0.059457 0.190594
H32   H     H_    0.843385 0.329430 0.933214 0.186773
C93   C     C_R   0.700471 0.872335 0.963344 -0.152199
C94   C     C_R   0.296694 0.860654 0.039543 -0.159193
C95   C     C_R   0.205217 0.356510 0.960154 -0.134214
C96   C     C_R   0.806087 0.390854 0.033583 -0.164878
H33   H     H_    0.657126 0.833959 0.933890 0.176032
H34   H     H_    0.349317 0.854148 0.060843 0.187911
H35   H     H_    0.163782 0.311849 0.930644 0.185785
H36   H     H_    0.854677 0.367930 0.060219 0.180799
C97   C     C_R   0.753956 0.934359 0.928156 0.017413
C98   C     C_R   0.241322 0.902967 0.081522 0.018201
C99   C     C_R   0.257145 0.422187 0.924766 0.014791
C100  C     C_R   0.747869 0.433393 0.071777 0.018957
C101  C     C_3   0.877810 0.031995 0.934121 -0.347232
H37   H     H_    0.923127 0.024257 0.971024 0.111032
H38   H     H_    0.891551 0.976259 0.886791 0.157731
H39   H     H_    0.872658 0.128882 0.918608 0.176898
C102  C     C_3   0.109935 0.927901 0.100873 -0.353439
H40   H     H_    0.065483 0.876655 0.079369 0.125588
H41   H     H_    0.119715 0.889027 0.154352 0.157799
H42   H     H_    0.094992 0.025709 0.105588 0.167702
C103  C     C_3   0.383446 0.506191 0.928700 -0.347640
H43   H     H_    0.428023 0.496757 0.966191 0.110199
H44   H     H_    0.394846 0.444561 0.883063 0.160307
H45   H     H_    0.382353 0.602580 0.911082 0.177055
C104  C     C_3   0.617060 0.496671 0.071964 -0.352918
H46   H     H_    0.572330 0.484877 0.034986 0.110631
H47   H     H_    0.608968 0.431288 0.116038 0.152814
H48   H     H_    0.614680 0.592146 0.091894 0.178208
C105  C     C_3   0.847275 0.090590 0.081457 -0.347045
H49   H     H_    0.818063 0.129355 0.127429 0.153632
H50   H     H_    0.897559 0.048732 0.099080 0.161414
H51   H     H_    0.861180 0.167626 0.046944 0.135544
C106  C     C_3   0.103327 0.978522 0.946430 -0.353100
H52   H     H_    0.074237 0.918554 0.910049 0.168304
H53   H     H_    0.064990 0.014698 0.985399 0.126056
H54   H     H_    0.122659 0.059113 0.916883 0.174753
C107  C     C_3   0.354659 0.576858 0.075261 -0.345900
H55   H     H_    0.325870 0.622188 0.119460 0.155377
H56   H     H_    0.403097 0.531609 0.095117 0.162282
H57   H     H_    0.372032 0.649981 0.039190 0.142206
C108  C     C_3   0.638928 0.573771 0.925828 -0.348062
H58   H     H_    0.664034 0.621225 0.880540 0.150182
H59   H     H_    0.591703 0.523100 0.907630 0.161543
H60   H     H_    0.620625 0.645665 0.963061 0.143334
N1    N     N_R   0.884630 0.957899 0.588820 0.080906
O53   O     O_R   0.900904 0.902261 0.647519 -0.337076
O54   O     O_R   0.925395 0.043811 0.565328 -0.358159
N2    N     N_R   0.136274 0.072633 0.444328 0.068257
O55   O     O_R   0.102745 0.037923 0.387513 -0.341015
O56   O     O_R   0.102751 0.146744 0.486781 -0.390530
N3    N     N_R   0.384628 0.457884 0.588822 0.080756
O57   O     O_R   0.400891 0.402243 0.647524 -0.335648
O58   O     O_R   0.425399 0.543793 0.565339 -0.358756
N4    N     N_R   0.636292 0.572683 0.444360 0.068021
O59   O     O_R   0.602760 0.537975 0.387546 -0.339679
O60   O     O_R   0.602761 0.646765 0.486824 -0.391007
N5    N     N_R   0.480045 0.936978 0.926295 0.106940
O61   O     O_R   0.522801 0.844242 0.929180 -0.339732
O62   O     O_R   0.427379 0.933674 0.882084 -0.346067
N6    N     N_R   0.521814 0.937472 0.072937 0.101843
O63   O     O_R   0.482898 0.840855 0.065177 -0.343440
O64   O     O_R   0.571031 0.937373 0.121048 -0.352134
N7    N     N_R   0.993094 0.424872 0.927521 0.101137
O65   O     O_R   0.035647 0.336045 0.943425 -0.338766
O66   O     O_R   0.947684 0.408576 0.876555 -0.360826
N8    N     N_R   0.029555 0.446606 0.074976 0.109309
O67   O     O_R   0.992175 0.347413 0.077536 -0.330703
O68   O     O_R   0.082083 0.459670 0.118720 -0.350894

loop_
_geom_bond_atom_site_label_1
_geom_bond_atom_site_label_2
_geom_bond_distance
_ccdc_geom_bond_type
C18   O42   1.261355 A    
C70   C74   1.397299 A    
Cr11  O51   1.981149 S    
C17   C70   1.466446 S    
O4    C12   1.245380 A    
C49   C53   1.391988 A    
C29   C30   1.376406 A    
O39   C19   1.300899 A    
O20   Cr12  2.068819 S    
O5    Cr1   1.958452 S    
C37   H9    1.112517 S    
C101  H37   1.109238 S    
C38   H8    1.112148 S    
C31   C32   1.376411 A    
C20   C71   1.461775 S    
C28   C32   1.386288 A    
C106  H54   1.110424 S    
C52   C56   1.389225 A    
C56   C60   1.384622 A    
O26   C22   1.264447 A    
C73   C74   1.390451 A    
C10   C62   1.461942 S    
O1    C9    1.264507 A    
N7    O65   1.299690 A    
C102  H40   1.091895 S    
C105  H51   1.101521 S    
O7    C3    1.269362 A    
C55   C59   1.380486 A    
C108  H58   1.110880 S    
C73   H25   1.080706 S    
C96   H36   1.080057 S    
C43   C63   1.404813 A    
C53   C57   1.380491 A    
C95   C99   1.396210 A    
C108  H60   1.107085 S    
O25   C21   1.255197 A    
C21   C97   1.461930 S    
C42   H14   1.083527 S    
C67   C72   1.424782 A    
C79   C103  1.520437 S    
C85   C89   1.400411 A    
C102  H42   1.110810 S    
O46   Cr10  1.947932 S    
C46   H18   1.083209 S    
C45   C49   1.393733 A    
C72   C76   1.385899 A    
O21   C9    1.279690 A    
O8    Cr4   1.947019 S    
C107  H57   1.105191 S    
O23   Cr11  1.946833 S    
N2    O55   1.299811 A    
C42   C62   1.401864 A    
C90   H30   1.080517 S    
C65   C70   1.419053 A    
O32   Cr4   1.953061 S    
C1    O9    1.269712 A    
O44   Cr12  2.072973 S    
O17   Cr9   2.070995 S    
C79   C99   1.418539 A    
C13   C88   1.460435 S    
C107  H56   1.109920 S    
C58   C62   1.439345 A    
C3    O11   1.269694 A    
O11   Cr7   2.078556 S    
N3    O57   1.301907 A    
C68   N8    1.438227 S    
C31   C39   1.476345 S    
C65   N5    1.439040 S    
N8    O68   1.301038 A    
C92   C96   1.382604 A    
O6    Cr2   1.947019 S    
O27   Cr3   2.077149 S    
C27   C36   1.406700 A    
C81   C105  1.519090 S    
N1    O53   1.301914 A    
C82   C86   1.429979 A    
C26   C33   1.413201 A    
O47   C23   1.288994 A    
O2    Cr2   2.073961 S    
O48   C24   1.282750 A    
C33   C34   1.405958 A    
C33   H1    1.083045 S    
C23   C99   1.464445 S    
O2    C10   1.245382 A    
C44   C48   1.389330 A    
C56   H24   1.082984 S    
C50   C54   1.389252 A    
O42   Cr10  2.072973 S    
Cr5   O49   1.976040 S    
C15   C86   1.470809 S    
O18   Cr10  2.068819 S    
C106  H53   1.106240 S    
C74   H26   1.079804 S    
N5    O61   1.300595 A    
Cr8   O52   1.981095 S    
C60   N4    1.457572 S    
C101  H38   1.108519 S    
C41   C61   1.404821 A    
C82   C106  1.518837 S    
C11   C63   1.455430 S    
O34   Cr6   2.068869 S    
C46   C50   1.400909 A    
Cr7   O51   1.976040 S    
C16   C85   1.460398 S    
N6    O64   1.301209 A    
C26   C30   1.386290 A    
C67   C68   1.392729 A    
C87   C91   1.404948 A    
C5    C26   1.458508 S    
C102  H41   1.110953 S    
O31   Cr3   1.940653 S    
O24   Cr12  1.954106 S    
O16   Cr8   1.950046 S    
C58   N2    1.457578 S    
C44   C64   1.401866 A    
C36   H4    1.079457 S    
O22   C10   1.294591 A    
N2    O56   1.302142 A    
O48   Cr12  1.947932 S    
C37   C38   1.516611 S    
C4    O12   1.286299 A    
C76   H28   1.071453 S    
C2    C51   1.448427 S    
C78   C102  1.514389 S    
C67   N7    1.444034 S    
C2    O10   1.286298 A    
C3    C50   1.452232 S    
C29   C37   1.476368 S    
C89   C93   1.385009 A    
C89   H29   1.081837 S    
O15   C7    1.281523 A    
C12   C64   1.461981 S    
C96   C100  1.398480 A    
C83   C87   1.422075 A    
C105  H49   1.111001 S    
C104  H46   1.105487 S    
C77   C101  1.522291 S    
O13   C5    1.281519 A    
Cr4   O52   1.979903 S    
O28   Cr4   2.065921 S    
C92   H32   1.075620 S    
O12   Cr8   2.067252 S    
Cr12  O52   1.975916 S    
O22   Cr10  1.954106 S    
C59   C63   1.414324 A    
O5    C1    1.269357 A    
N8    O67   1.301462 A    
C38   H10   1.109539 S    
C93   H33   1.077514 S    
C24   C100  1.456499 S    
C106  H52   1.096396 S    
O39   Cr7   1.957387 S    
C19   C72   1.469875 S    
C84   C88   1.421616 A    
N4    O60   1.302147 A    
C35   C36   1.405987 A    
O3    C11   1.264504 A    
C75   H27   1.082494 S    
O8    C4    1.298641 A    
O13   Cr5   1.945823 S    
C103  H43   1.107014 S    
C53   H21   1.078302 S    
C55   H23   1.078294 S    
N3    O58   1.301223 A    
O7    Cr3   1.958452 S    
O47   Cr11  1.950789 S    
Cr2   O50   1.979903 S    
O15   Cr7   1.945823 S    
N1    O54   1.301246 A    
O35   Cr7   2.063253 S    
Cr1   O49   1.980011 S    
C86   C90   1.399818 A    
O30   Cr2   1.953061 S    
C66   C69   1.416027 A    
Cr3   O51   1.980011 S    
O14   Cr6   1.950046 S    
C66   N6    1.440910 S    
O21   Cr9   1.946833 S    
C7    O19   1.259614 A    
C4    C49   1.448436 S    
N5    O62   1.301431 A    
C45   H17   1.080230 S    
O30   C14   1.286171 A    
O37   Cr5   1.957387 S    
O38   C18   1.282885 A    
C101  H39   1.106640 S    
C71   C75   1.406550 A    
C40   H6    1.112158 S    
C105  H50   1.110163 S    
C41   H13   1.083220 S    
C80   C104  1.519553 S    
C8    C27   1.464043 S    
C69   C73   1.400021 A    
C78   C98   1.406777 A    
C88   C92   1.394311 A    
O3    Cr3   2.060378 S    
N6    O63   1.300632 A    
C94   C98   1.394319 A    
C8    O20   1.293505 A    
C77   C97   1.424410 A    
O26   Cr2   2.065921 S    
C104  H48   1.109929 S    
C93   C97   1.395472 A    
C7    C28   1.458530 S    
C32   C40   1.488613 S    
C5    O17   1.259611 A    
C48   H20   1.083210 S    
O37   C17   1.288298 A    
C59   N3    1.436383 S    
O28   C24   1.257070 A    
C107  H55   1.110918 S    
C57   N1    1.436397 S    
O14   C6    1.309396 A    
C19   O43   1.248390 A    
C14   C87   1.465261 S    
C68   C71   1.413457 A    
C60   C64   1.439365 A    
C47   C51   1.393726 A    
O31   C15   1.313824 A    
C18   C69   1.464811 S    
C34   H2    1.079475 S    
O6    C2    1.298642 A    
C15   O35   1.282818 A    
O24   C12   1.294592 A    
C17   O41   1.259475 A    
C91   C95   1.388611 A    
C78   C82   1.402236 A    
C43   H15   1.083217 S    
C37   H7    1.109215 S    
C35   H3    1.083044 S    
C14   O34   1.261484 A    
O25   Cr1   2.077149 S    
C39   H11   1.112530 S    
C83   C107  1.520851 S    
O29   C13   1.287527 A    
C20   O44   1.260563 A    
C25   C34   1.406695 A    
C39   H5    1.109215 S    
C51   C55   1.391986 A    
O1    Cr1   2.060378 S    
C40   H12   1.109545 S    
C47   H19   1.080223 S    
C48   C52   1.400907 A    
O40   Cr8   1.947929 S    
C65   C66   1.393652 A    
C104  H47   1.110898 S    
C108  H59   1.109630 S    
O32   C16   1.284659 A    
C9    C61   1.455446 S    
O9    Cr5   2.078556 S    
Cr10  O50   1.975916 S    
Cr6   O50   1.981095 S    
O46   C22   1.275738 A    
C79   C83   1.394967 A    
C54   C58   1.384606 A    
O45   C21   1.289310 A    
C84   C108  1.520171 S    
N4    O59   1.299799 A    
C54   H22   1.082981 S    
C103  H44   1.110951 S    
C6    C25   1.464028 S    
O33   Cr5   2.063253 S    
C13   O33   1.253805 A    
C80   C100  1.419009 A    
O23   C11   1.279684 A    
O10   Cr6   2.067252 S    
C25   C29   1.386969 A    
C42   C46   1.389337 A    
C95   H35   1.079868 S    
O4    Cr4   2.073961 S    
C75   C76   1.388102 A    
N7    O66   1.301529 A    
C44   H16   1.083529 S    
C94   H34   1.079539 S    
O29   Cr1   1.940653 S    
O19   Cr11  2.070995 S    
C1    C52   1.452198 S    
O40   C20   1.278763 A    
C16   O36   1.261870 A    
C57   C61   1.414334 A    
C30   C38   1.488618 S    
C27   C31   1.386964 A    
C22   C98   1.456296 S    
C6    O18   1.293498 A    
O43   Cr11  2.067283 S    
C39   C40   1.516623 S    
C77   C81   1.395500 A    
O45   Cr9   1.950789 S    
O41   Cr9   2.067283 S    
C90   C94   1.383119 A    
C81   C85   1.417553 A    
O36   Cr8   2.068869 S    
C41   C45   1.387935 A    
C103  H45   1.108941 S    
O16   C8    1.309399 A    
Cr9   O49   1.981149 S    
C91   H31   1.083200 S    
C80   C84   1.394157 A    
C28   C35   1.413205 A    
O38   Cr6   1.947929 S    
O27   C23   1.259286 A    
C43   C47   1.387929 A    
