data_str_m9_o4_o17_f0_sra.sym.18
_audit_creation_date              2012-12-11T17:01:15-0500
_audit_creation_method            fapswitch 2.2
_symmetry_space_group_name_H-M    P1
_symmetry_Int_Tables_number       1
_space_group_crystal_system       triclinic
_cell_length_a                    19.472292
_cell_length_b                    7.103976
_cell_length_c                    17.60894
_cell_angle_alpha                 90.275056
_cell_angle_beta                  108.764948
_cell_angle_gamma                 89.673489
_cell_volume                      2306.33316975

loop_
_atom_site_label
_atom_site_type_symbol
_atom_type_description
_atom_site_fract_x
_atom_site_fract_y
_atom_site_fract_z
_atom_type_partial_charge
O1    O     O_R   0.413720 0.494330 0.415730 -0.532494
O2    O     O_R   0.586280 0.994330 0.584270 -0.539257
O3    O     O_R   0.560210 0.819300 0.430070 -0.548405
O4    O     O_R   0.439790 0.319300 0.569930 -0.537302
C1    C     C_R   0.580418 0.654967 0.413774 0.721686
C2    C     C_R   0.420437 0.155938 0.587422 0.717578
O5    O     O_R   0.412670 0.823730 0.406310 -0.546279
O6    O     O_R   0.587330 0.323730 0.593690 -0.540925
O7    O     O_R   0.437690 0.998790 0.560340 -0.544223
O8    O     O_R   0.562310 0.498790 0.439660 -0.534429
C3    C     C_R   0.385342 0.655324 0.383548 0.712354
C4    C     C_R   0.615132 0.155533 0.615526 0.712236
O9    O     O_3   0.508380 0.662350 0.550560 -0.373670
O10   O     O_3   0.491620 0.162350 0.449440 -0.372310
V1    V     V_3+5 0.498450 0.935370 0.490620 1.382221
V2    V     V_3+5 0.501550 0.435370 0.509380 1.419736
C5    C     C_R   0.734363 0.999641 0.688716 0.086005
C6    C     C_R   0.265630 0.503212 0.309914 0.089921
C7    C     C_R   0.685611 0.149546 0.680764 -0.149924
C8    C     C_R   0.315953 0.647703 0.316249 -0.148359
C9    C     C_R   0.705538 0.295313 0.737661 -0.249233
C10   C     C_R   0.298772 0.785085 0.255577 -0.245501
H1    H     H_    0.669474 0.414051 0.733143 0.168908
H2    H     H_    0.336879 0.896687 0.258103 0.146089
C11   C     C_R   0.768242 0.281431 0.805103 0.385985
C12   C     C_R   0.235883 0.770547 0.187852 0.378299
C13   C     C_R   0.816407 0.126277 0.814551 -0.166873
C14   C     C_R   0.185692 0.622780 0.181777 -0.137850
C15   C     C_R   0.798285 0.988582 0.754242 -0.002870
C16   C     C_R   0.202526 0.490621 0.243722 -0.005992
C17   C     C_3   0.785696 0.785815 0.765075 -0.333038
C18   C     C_3   0.212611 0.284125 0.236427 -0.349827
C19   C     C_3   0.719049 0.795405 0.691727 -0.394526
C20   C     C_3   0.278297 0.295841 0.311053 -0.391028
H3    H     H_    0.772211 0.769146 0.821026 0.237098
H4    H     H_    0.226852 0.250522 0.181771 0.246817
H5    H     H_    0.828844 0.691931 0.758092 0.186599
H6    H     H_    0.167279 0.201568 0.243542 0.175567
H7    H     H_    0.667920 0.767048 0.704786 0.183828
H8    H     H_    0.329751 0.256521 0.300663 0.190461
H9    H     H_    0.725270 0.717533 0.639395 0.160653
H10   H     H_    0.269819 0.228148 0.364109 0.157932
C21   C     C_R   0.317037 0.019526 0.621622 -0.255271
C22   C     C_R   0.686846 0.770599 0.379720 -0.252584
C23   C     C_R   0.373633 0.150350 0.639386 -0.126773
C24   C     C_R   0.627831 0.647023 0.362875 -0.120515
C25   C     C_R   0.383470 0.276216 0.704930 -0.053569
C26   C     C_R   0.614348 0.520815 0.297449 -0.053428
C27   C     C_R   0.335188 0.270934 0.750628 0.063171
C28   C     C_R   0.662801 0.513561 0.252039 0.066361
C29   C     C_R   0.277848 0.139447 0.731045 0.069631
C30   C     C_R   0.722644 0.637800 0.270332 0.069126
C31   C     C_R   0.269299 0.013717 0.666417 0.104767
C32   C     C_R   0.733973 0.767149 0.334076 0.103716
C33   C     C_R   0.343057 0.393476 0.815920 -0.197705
C34   C     C_R   0.652579 0.386070 0.188174 -0.202892
C35   C     C_R   0.295939 0.385721 0.860806 -0.121164
C36   C     C_R   0.701241 0.377068 0.145347 -0.113917
C37   C     C_R   0.238686 0.255610 0.842330 0.017595
C38   C     C_R   0.761515 0.497860 0.163278 0.017667
C39   C     C_R   0.229199 0.132486 0.776421 -0.006344
C40   C     C_R   0.771365 0.632520 0.224981 -0.012949
C41   C     C_R   0.171639 0.001549 0.755812 0.065898
C42   C     C_R   0.831373 0.756201 0.243922 0.071369
C43   C     C_R   0.164216 0.878712 0.690259 -0.160496
C44   C     C_R   0.841087 0.884281 0.308119 -0.151529
C45   C     C_R   0.212560 0.884171 0.646782 -0.191672
C46   C     C_R   0.792970 0.889940 0.352113 -0.190125
C47   C     C_R   0.191466 0.245704 0.888685 0.323780
C48   C     C_R   0.811896 0.484924 0.121051 0.334911
C49   C     C_R   0.132054 0.119746 0.866935 -0.180771
C50   C     C_R   0.869247 0.617282 0.135178 -0.189837
C51   C     C_R   0.122519 0.996786 0.800356 -0.106551
C52   C     C_R   0.881154 0.745845 0.199957 -0.086642
H11   H     H_    0.309301 0.923590 0.571465 0.122755
H12   H     H_    0.696515 0.868818 0.429398 0.121398
H13   H     H_    0.385840 0.497099 0.833270 0.148999
H14   H     H_    0.607267 0.289919 0.170953 0.147139
H15   H     H_    0.304996 0.484479 0.909922 0.192434
H16   H     H_    0.690113 0.274718 0.097336 0.190463
H17   H     H_    0.121017 0.776503 0.671677 0.138906
H18   H     H_    0.885950 0.981684 0.325224 0.135959
H19   H     H_    0.205187 0.786983 0.597169 0.120924
H20   H     H_    0.802345 0.990205 0.400952 0.121657
O11   O     O_R   0.937800 0.775460 0.060470 -0.535218
O12   O     O_R   0.062200 0.275460 0.939530 -0.525745
O13   O     O_R   0.087350 0.441340 0.093710 -0.539060
O14   O     O_R   0.912650 0.941340 0.906290 -0.544118
C53   C     C_R   0.116135 0.609960 0.114430 0.782736
C54   C     C_R   0.884553 0.110748 0.884202 0.771393
O15   O     O_R   0.939820 0.446010 0.069950 -0.516566
O16   O     O_R   0.060180 0.946010 0.930050 -0.531078
O17   O     O_R   0.913690 0.271230 0.915700 -0.507959
O18   O     O_R   0.086310 0.771230 0.084300 -0.518575
C55   C     C_R   0.918744 0.613681 0.085206 0.796725
C56   C     C_R   0.081544 0.113595 0.915296 0.797198
O19   O     O_3   0.991670 0.603050 0.949510 -0.373983
O20   O     O_3   0.008330 0.103050 0.050490 -0.372687
V3    V     V_3+5 0.001550 0.329940 0.009370 1.587532
V4    V     V_3+5 0.998450 0.829940 0.990630 1.578271
Cl1   Cl    Cl    0.210209 0.381713 0.978013 -0.652540
Cl2   Cl    Cl    0.805979 0.289460 0.056262 -0.634775
C57   C     C_R   0.060220 0.865723 0.775086 0.095706
C58   C     C_R   0.993065 0.927708 0.723179 -0.163531
C59   C     C_R   0.936954 0.799042 0.691589 -0.121521
C60   C     C_R   0.947375 0.608697 0.712292 -0.124924
C61   C     C_R   0.013769 0.546857 0.764982 -0.098963
C62   C     C_R   0.070239 0.674688 0.796202 -0.070807
H21   H     H_    0.984934 0.074140 0.705571 0.097162
H22   H     H_    0.885543 0.846556 0.650543 0.116255
H23   H     H_    0.903975 0.509087 0.687503 0.100041
H24   H     H_    0.021725 0.399498 0.780567 0.090957
H25   H     H_    0.122176 0.624862 0.835235 0.144607
C63   C     C_R   0.953005 0.836893 0.232877 0.085790
C64   C     C_R   0.961791 0.030203 0.223162 -0.083643
C65   C     C_R   0.027999 0.116387 0.263456 -0.126517
C66   C     C_R   0.085338 0.010166 0.313640 -0.110914
C67   C     C_R   0.077664 0.816628 0.321117 -0.118106
C68   C     C_R   0.011675 0.730172 0.281021 -0.165086
H26   H     H_    0.916951 0.114413 0.186794 0.156998
H27   H     H_    0.034516 0.265856 0.256837 0.095562
H28   H     H_    0.135706 0.077546 0.347202 0.102657
H29   H     H_    0.122317 0.734358 0.359328 0.110131
H30   H     H_    0.005380 0.581316 0.289610 0.099851
Cl3   Cl    Cl    0.776498 0.444260 0.882429 -0.668076
Cl4   Cl    Cl    0.228655 0.920101 0.106083 -0.656478
C69   C     C_R   0.446897 0.403482 0.729850 0.082882
C70   C     C_R   0.439915 0.592514 0.705440 -0.068751
C71   C     C_R   0.498237 0.715956 0.735255 -0.093919
C72   C     C_R   0.563256 0.651862 0.790102 -0.125596
C73   C     C_R   0.570197 0.464008 0.814835 -0.108336
C74   C     C_R   0.512481 0.339553 0.784331 -0.162010
H31   H     H_    0.389190 0.644087 0.664349 0.102344
H32   H     H_    0.492833 0.861747 0.716756 0.107358
H33   H     H_    0.608085 0.747947 0.813831 0.134298
H34   H     H_    0.620148 0.414836 0.858023 0.187712
H35   H     H_    0.518169 0.194844 0.804614 0.116119
C75   C     C_R   0.545870 0.412450 0.271244 0.077385
C76   C     C_R   0.481511 0.501622 0.225237 -0.150575
C77   C     C_R   0.417888 0.397760 0.193975 -0.092655
C78   C     C_R   0.418309 0.204542 0.208283 -0.126779
C79   C     C_R   0.481702 0.115701 0.255960 -0.095555
C80   C     C_R   0.545543 0.219186 0.287399 -0.080990
H36   H     H_    0.481129 0.650315 0.212004 0.109493
H37   H     H_    0.368502 0.466454 0.157790 0.170406
H38   H     H_    0.369337 0.124329 0.182356 0.167277
H39   H     H_    0.481555 0.966524 0.267874 0.103752
H40   H     H_    0.594841 0.148682 0.322783 0.107881

loop_
_geom_bond_atom_site_label_1
_geom_bond_atom_site_label_2
_ccdc_geom_bond_type
C44   C46   A    
C59   H22   S    
C41   C43   A    
C45   H19   S    
C2    C23   S    
C13   C15   A    
C5    C15   A    
C61   H24   S    
C35   H15   S    
C72   H33   S    
O1    C3    A    
O2    C4    A    
C70   C71   A    
C2    O7    A    
C63   C64   A    
C25   C27   A    
C68   H30   S    
O5    C3    A    
C19   H7    S    
C20   H8    S    
C18   H4    S    
C7    C9    A    
C26   C28   A    
C75   C80   A    
C58   H21   S    
C33   H13   S    
C35   C37   A    
C32   C46   A    
C60   C61   A    
C36   C38   A    
C64   C65   A    
C52   C63   S    
O16   C56   A    
C34   H14   S    
C65   C66   A    
C13   C54   S    
C38   C40   A    
C12   Cl4   S    
C53   O18   A    
C47   C49   A    
C11   Cl3   S    
C67   C68   A    
C40   C42   A    
C69   C74   A    
C50   C55   S    
C78   C79   A    
C21   C31   A    
C30   C32   A    
C27   C29   A    
C20   H10   S    
C28   C30   A    
C61   C62   A    
C17   C19   S    
C57   C62   A    
C6    C16   A    
C18   H6    S    
O17   V3    S    
C6    C8    A    
C63   C68   A    
C36   H16   S    
O5    V1    S    
O6    V2    S    
C38   C48   A    
C5    C19   S    
C58   C59   A    
O19   V3    S    
C22   C24   A    
O13   V3    S    
C60   H23   S    
C23   C25   A    
C21   H11   S    
C80   H40   S    
C24   C26   A    
C3    C8    S    
C37   C39   A    
C65   H27   S    
C46   H20   S    
C77   C78   A    
O4    C2    A    
C73   H34   S    
C49   C51   A    
C49   C56   S    
C41   C51   A    
C43   C45   A    
C74   H35   S    
C27   C33   A    
C28   C34   A    
C17   H5    S    
C29   C31   A    
C42   C44   A    
C62   H25   S    
O4    V2    S    
C66   H28   S    
O12   V3    S    
C44   H18   S    
C21   C23   A    
C76   H36   S    
C43   H17   S    
O18   V4    S    
O6    C4    A    
C39   C41   A    
O1    V2    S    
O2    V1    S    
C6    C20   S    
O14   V4    S    
O12   C56   A    
C78   H38   S    
C37   C47   A    
C50   C52   A    
C8    C10   A    
O20   V3    S    
O20   V4    S    
C9    H1    S    
C14   C53   S    
C17   H3    S    
C73   C74   A    
O19   V4    S    
O3    V1    S    
O16   V4    S    
C54   O17   A    
C71   C72   A    
C59   C60   A    
C9    C11   A    
C79   C80   A    
C79   H39   S    
O14   C54   A    
O3    C1    A    
C77   H37   S    
C48   C50   A    
C76   C77   A    
C48   Cl2   S    
C25   C69   S    
C47   Cl1   S    
C11   C13   A    
C1    C24   S    
C12   C14   A    
C26   C75   S    
C19   H9    S    
C33   C35   A    
C72   C73   A    
O7    V1    S    
C1    O8    A    
C15   C17   S    
O11   V4    S    
C30   C40   A    
C70   H31   S    
C16   C18   S    
C29   C39   A    
O11   C55   A    
C4    C7    S    
C14   C16   A    
C5    C7    A    
C34   C36   A    
C10   H2    S    
C67   H29   S    
C31   C45   A    
C75   C76   A    
O15   C55   A    
C71   H32   S    
C22   C32   A    
C51   C57   S    
C64   H26   S    
C10   C12   A    
O9    V2    S    
C57   C58   A    
O13   C53   A    
C42   C52   A    
O10   V1    S    
O8    V2    S    
C22   H12   S    
O15   V3    S    
C66   C67   A    
C69   C70   A    
C18   C20   S    
