data_str_m12_o9_o11_f0_bcu.sym.49
_audit_creation_date              2012-12-11T17:39:35-0500
_audit_creation_method            fapswitch 2.2
_symmetry_space_group_name_H-M    P1
_symmetry_Int_Tables_number       1
_space_group_crystal_system       triclinic
_cell_length_a                    15.148889
_cell_length_b                    15.157608
_cell_length_c                    14.966847
_cell_angle_alpha                 107.98098
_cell_angle_beta                  110.248366
_cell_angle_gamma                 109.906867
_cell_volume                      2653.69127381

loop_
_atom_site_label
_atom_site_type_symbol
_atom_type_description
_atom_site_fract_x
_atom_site_fract_y
_atom_site_fract_z
_atom_type_partial_charge
C1    C     C_R   0.911426 0.911450 0.713896 -0.114341
C2    C     C_R   0.909797 0.686984 0.446512 -0.136789
C3    C     C_R   0.702610 0.789944 0.197675 -0.145107
C4    C     C_R   0.090877 0.300962 0.502180 -0.158456
C5    C     C_R   0.298867 0.997719 0.590747 -0.137933
C6    C     C_R   0.646496 0.695078 0.194185 0.184647
C7    C     C_R   0.357340 0.052016 0.554659 0.066866
C8    C     C_R   0.002933 0.679611 0.467780 0.046117
C9    C     C_R   0.999674 0.950984 0.176830 0.069605
C10   C     C_R   0.475376 0.675342 0.321751 -0.126938
C11   C     C_R   0.497872 0.781423 0.367288 -0.113577
C12   C     C_R   0.000187 0.306151 0.449396 0.053602
C13   C     C_R   0.508625 0.830571 0.469795 0.102088
C14   C     C_R   0.495090 0.771500 0.525006 -0.166448
C15   C     C_R   0.474431 0.666075 0.479956 -0.100726
C16   C     C_R   0.244879 0.215136 0.810623 -0.019105
C17   C     C_R   0.464648 0.618019 0.378345 -0.106812
C18   C     C_R   0.448369 0.954782 0.532196 -0.237342
C19   C     C_R   0.453392 0.053593 0.560966 0.059161
C20   C     C_R   0.541055 0.144114 0.580391 0.088520
C21   C     C_R   0.624996 0.132900 0.571632 -0.152555
C22   C     C_R   0.617483 0.032573 0.539081 0.044407
C23   C     C_R   0.277803 0.316271 0.822773 0.161059
C24   C     C_R   0.527775 0.941653 0.516983 0.029076
C25   C     C_R   0.553097 0.300411 0.546482 0.483640
C26   C     C_R   0.546471 0.394121 0.571776 -0.198850
C27   C     C_R   0.530353 0.435836 0.658153 -0.191092
C28   C     C_R   0.736398 0.049986 0.458952 -0.139265
C29   C     C_R   0.522515 0.385076 0.720878 -0.065222
C30   C     C_R   0.532432 0.293818 0.698717 -0.165540
C31   C     C_R   0.545712 0.249163 0.610325 -0.062267
C32   C     C_R   0.805512 0.123579 0.107467 -0.115198
C33   C     C_R   0.882220 0.222212 0.201095 -0.146752
C34   C     C_R   0.702686 0.023308 0.526348 0.047013
C35   C     C_R   0.850071 0.293412 0.245219 0.098579
C36   C     C_R   0.740414 0.266076 0.190087 -0.121845
C37   C     C_R   0.664477 0.168440 0.094282 -0.083861
C38   C     C_R   0.696797 0.096742 0.053628 -0.106490
C39   C     C_R   0.933351 0.489922 0.359665 -0.236793
C40   C     C_R   0.252653 0.311111 0.722413 -0.127209
C41   C     C_R   0.009045 0.585426 0.457628 0.070561
C42   C     C_R   0.085956 0.588696 0.547185 0.018392
C43   C     C_R   0.083778 0.495269 0.536766 -0.236791
C44   C     C_R   0.005193 0.398962 0.441610 0.068887
C45   C     C_R   0.704313 0.699075 0.290245 -0.136500
C46   C     C_R   0.930278 0.394591 0.349967 0.032011
C47   C     C_R   0.276386 0.729804 0.695285 -0.188315
C48   C     C_R   0.350492 0.820056 0.797876 -0.113106
C49   C     C_R   0.313114 0.864708 0.862577 -0.097015
C50   C     C_R   0.201561 0.818799 0.824980 -0.121459
C51   C     C_R   0.127048 0.728973 0.722136 -0.116178
C52   C     C_R   0.741874 0.961125 0.555340 -0.110273
C53   C     C_R   0.164050 0.684535 0.656164 0.110180
C54   C     C_2   0.449170 0.414708 0.986455 0.518876
C55   C     C_2   0.356287 0.409017 0.925564 -0.396033
C56   C     C_R   0.299544 0.087694 0.497480 -0.117727
C57   C     C_2   0.530347 0.508209 0.089277 -0.237041
C58   C     C_2   0.546451 0.604846 0.104321 -0.292608
C59   C     C_R   0.406095 0.171295 0.120797 -0.013977
C60   C     C_R   0.308948 0.076552 0.075075 -0.196098
C61   C     C_R   0.209132 0.074504 0.035456 0.105177
C62   C     C_R   0.208384 0.169346 0.044502 -0.137416
C63   C     C_R   0.305841 0.264041 0.090537 -0.166164
C64   C     C_R   0.908786 0.213324 0.415213 -0.113859
C65   C     C_R   0.404573 0.264959 0.128648 -0.013738
C66   C     C_R   0.102977 0.957971 0.082651 -0.234314
C67   C     C_R   0.092376 0.780713 0.529689 -0.111709
C68   C     C_R   0.002248 0.908533 0.075241 0.051624
C69   C     C_R   0.907900 0.841465 0.970465 0.093016
C70   C     C_R   0.917287 0.841212 0.880989 -0.152441
C71   C     C_R   0.011763 0.920388 0.897036 0.062647
C72   C     C_R   0.107935 0.978201 0.000160 0.006503
C73   C     C_R   0.787538 0.693509 0.983005 -0.153506
C74   C     C_R   0.686555 0.623277 0.962975 -0.053895
C75   C     C_R   0.595651 0.630491 0.909760 -0.147321
C76   C     C_R   0.092100 0.997969 0.799449 -0.173165
C77   C     C_R   0.605139 0.708292 0.877238 -0.207542
C78   C     C_R   0.909399 0.938871 0.188100 -0.131239
C79   C     C_R   0.706198 0.780841 0.896861 -0.055460
C80   C     C_R   0.799033 0.772381 0.950376 0.005978
C81   C     C_R   0.005008 0.945607 0.808928 0.069340
C82   C     C_2   0.710683 0.864504 0.862836 0.921084
C83   C     C_R   0.091313 0.026677 0.279580 -0.125362
Cl1   Cl    Cl    0.561756 0.245579 0.429572 -0.743573
Cl2   Cl    Cl    0.486764 0.317350 0.944164 -0.761344
H1    H     H_    0.828657 0.855637 0.686852 0.099614
H2    H     H_    0.465248 0.637145 0.242144 0.129045
H3    H     H_    0.505643 0.824764 0.322336 0.116261
H4    H     H_    0.174015 0.355024 0.528066 0.099708
H5    H     H_    0.500402 0.807254 0.602732 0.170705
H6    H     H_    0.465047 0.621368 0.523379 0.113743
H7    H     H_    0.377398 0.884812 0.512648 0.132892
H8    H     H_    0.695457 0.201545 0.588765 0.153720
H9    H     H_    0.550908 0.433190 0.522621 0.150516
H10   H     H_    0.522522 0.506682 0.675431 0.142855
H11   H     H_    0.506877 0.414820 0.785753 0.151977
H12   H     H_    0.327015 0.141142 0.467012 0.116685
H13   H     H_    0.525585 0.255369 0.748056 0.186115
H14   H     H_    0.637627 0.020401 0.980649 0.128924
H15   H     H_    0.257801 0.192630 0.873704 0.134857
H16   H     H_    0.830778 0.067895 0.077747 0.162148
H17   H     H_    0.966308 0.241824 0.240586 0.122720
H18   H     H_    0.713181 0.319185 0.222140 0.122296
H19   H     H_    0.580291 0.147708 0.052172 0.127488
H20   H     H_    0.876771 0.490207 0.291449 0.135291
H21   H     H_    0.139326 0.496969 0.607461 0.133154
H22   H     H_    0.306257 0.695911 0.645747 0.123156
H23   H     H_    0.176604 0.802578 0.560448 0.108878
H24   H     H_    0.436862 0.855266 0.827251 0.137744
H25   H     H_    0.370726 0.934529 0.941984 0.103025
H26   H     H_    0.172715 0.852556 0.875515 0.113284
H27   H     H_    0.714162 0.092553 0.417371 0.135071
H28   H     H_    0.040823 0.694285 0.693738 0.116269
H29   H     H_    0.336886 0.471508 0.951704 0.132884
H30   H     H_    0.588823 0.498479 0.146463 0.160373
H31   H     H_    0.495876 0.617619 0.043751 0.142348
H32   H     H_    0.480024 0.338454 0.165239 0.109767
H33   H     H_    0.482739 0.172606 0.152132 0.122108
H34   H     H_    0.825056 0.892073 0.126395 0.117444
H35   H     H_    0.311541 0.005415 0.072758 0.118605
H36   H     H_    0.132608 0.170186 0.017606 0.131955
H37   H     H_    0.304926 0.336901 0.097404 0.121123
H38   H     H_    0.272300 0.377016 0.704932 0.095977
H39   H     H_    0.178050 0.999863 0.158930 0.141481
H40   H     H_    0.845904 0.788448 0.800708 0.106294
H41   H     H_    0.857113 0.685951 0.023441 0.121998
H42   H     H_    0.678535 0.562462 0.987921 0.146959
H43   H     H_    0.516821 0.574821 0.892290 0.118531
H44   H     H_    0.532699 0.711872 0.836950 0.151051
H45   H     H_    0.175538 0.058483 0.302878 0.103884
H46   H     H_    0.726697 0.923872 0.603438 0.116450
H47   H     H_    0.824867 0.188168 0.363397 0.116647
H48   H     H_    0.174356 0.015446 0.845004 0.123929
H49   H     H_    0.676873 0.644375 0.319618 0.095522
H50   H     H_    0.800248 0.004797 0.873014 0.324882
H51   H     H_    0.826833 0.622311 0.404049 0.104649
H52   H     H_    0.673191 0.816611 0.140368 0.104260
H53   H     H_    0.326439 0.969956 0.647635 0.114980
H54   H     H_    0.447694 0.536062 0.342954 0.109177
N1    N     N_R   0.941940 0.944580 0.650780 -0.045216
N2    N     N_R   0.204460 0.150250 0.707090 -0.049190
N3    N     N_R   0.794270 0.003240 0.446420 -0.045744
N4    N     N_R   0.204920 0.207570 0.650770 -0.045810
N5    N     N_R   0.793810 0.945920 0.502740 -0.043263
N6    N     N_R   0.943620 0.152590 0.446420 -0.043459
N7    N     N_R   0.055110 0.000900 0.707100 -0.046344
N8    N     N_R   0.795080 0.792430 0.349230 -0.043625
N9    N     N_R   0.206190 0.054080 0.497260 -0.044697
N10   N     N_R   0.056380 0.847410 0.553580 -0.042479
N11   N     N_R   0.944890 0.999100 0.292900 -0.045521
N12   N     N_R   0.058060 0.055420 0.349220 -0.044168
N13   N     N_R   0.943200 0.791100 0.497260 -0.042533
N14   N     N_R   0.795540 0.849750 0.292910 -0.045644
N15   N     N_R   0.205730 0.996760 0.553580 -0.041317
N16   N     N_R   0.056800 0.208900 0.502740 -0.038722
Ni1   Ni    Ni4+2 0.869690 0.869690 0.500000 0.212940
Ni2   Ni    Ni4+2 0.130310 0.130310 0.500000 0.217355
Ni3   Ni    Ni4+2 0.129250 0.998840 0.629170 0.231622
Ni4   Ni    Ni4+2 0.870750 0.001160 0.370830 0.210351
O1    O     O_2   0.626363 0.854984 0.800060 -0.698017
O2    O     O_R   0.809407 0.955215 0.903347 -0.824918

loop_
_geom_bond_atom_site_label_1
_geom_bond_atom_site_label_2
_ccdc_geom_bond_type
C25   C31   A    
C66   C68   A    
C63   C65   A    
N14   Ni4   S    
C6    C45   A    
C64   N6    A    
N16   Ni2   S    
C41   C42   A    
C6    C58   S    
C27   H10   S    
C35   C36   A    
C32   H16   S    
N3    Ni4   S    
C3    C6    A    
N9    Ni2   S    
C79   C82   S    
C5    H53   S    
C39   C41   A    
C28   H27   S    
C26   C27   A    
C37   C38   A    
C36   H18   S    
C18   C24   A    
N12   Ni2   S    
C22   C24   A    
C36   C37   A    
N15   Ni3   S    
N2    N4    A    
C42   C53   S    
C30   C31   A    
C12   C64   A    
C67   H23   S    
C67   N10   A    
C10   C17   A    
C1    C81   A    
C73   H41   S    
C3    N14   A    
C27   C29   A    
C39   H20   S    
C75   H43   S    
C73   C74   A    
C14   H5    S    
C66   C72   A    
C64   H47   S    
C68   C69   A    
C23   C40   A    
C25   Cl1   S    
C60   H35   S    
C70   C71   A    
C3    H52   S    
C32   C38   A    
C4    C12   A    
C29   C30   A    
N10   Ni3   S    
C47   C53   A    
C48   H24   S    
C28   C34   A    
C59   C60   A    
C13   C14   A    
C58   H31   S    
H50   O2    S    
C61   C62   A    
N9    N15   A    
C56   H12   S    
C74   H42   S    
C70   H40   S    
C44   C46   A    
N4    Ni2   S    
C83   N12   A    
C77   C79   A    
C2    N13   A    
C22   C34   S    
C2    C8    A    
C10   H2    S    
C74   C75   A    
C33   H17   S    
N13   Ni1   S    
C8    C41   S    
C83   H45   S    
C57   H30   S    
N11   Ni4   S    
N10   N13   A    
N1    N7    A    
C5    C7    A    
C18   C19   A    
C25   C26   A    
C2    H51   S    
C13   C24   S    
C60   C61   A    
C51   C53   A    
C43   H21   S    
C56   N9    A    
C43   C44   A    
C62   C63   A    
C37   H19   S    
C82   O1    D    
C47   C48   A    
C11   H3    S    
C50   C51   A    
C45   H49   S    
C17   H54   S    
C77   H44   S    
N8    Ni1   S    
C75   C77   A    
C1    N1    A    
C9    C83   A    
C39   C46   A    
C61   C72   S    
C48   C49   A    
C55   H29   S    
C54   Cl2   S    
N1    Ni1   S    
C16   C23   A    
C47   H22   S    
C26   H9    S    
C52   N5    A    
C66   H39   S    
C28   N3    A    
C42   C43   A    
C63   H37   S    
C78   N11   A    
C4    H4    S    
C1    H1    S    
C15   C17   A    
C40   H38   S    
C54   C55   D    
C45   N8    A    
C52   H46   S    
C34   C52   A    
C51   H28   S    
C16   H15   S    
C38   H14   S    
C76   C81   A    
C29   H11   S    
C76   H48   S    
C23   C55   S    
N7    Ni3   S    
C82   O2    S    
C59   H33   S    
C30   H13   S    
C7    C19   S    
N11   N12   A    
C18   H7    S    
C32   C33   A    
C19   C20   A    
C78   H34   S    
N5    Ni1   S    
C9    C68   S    
C71   C72   A    
C12   C44   S    
C59   C65   A    
C11   C13   A    
C57   C58   D    
C21   H8    S    
N6    Ni4   S    
C50   H26   S    
C33   C35   A    
C73   C80   A    
C16   N2    A    
C7    C56   A    
C9    C78   A    
C69   C70   A    
N8    N14   A    
C10   C11   A    
C15   H6    S    
C79   C80   A    
N6    N16   A    
N2    Ni3   S    
C4    N16   A    
C20   C21   A    
C8    C67   A    
C49   C50   A    
C40   N4    A    
C76   N7    A    
C65   H32   S    
C14   C15   A    
C69   C80   S    
C21   C22   A    
C35   C46   S    
C54   C57   S    
C62   H36   S    
N3    N5    A    
C5    N15   A    
C49   H25   S    
C71   C81   S    
C20   C31   S    
