data_str_m4_o22_o24_f0_acs.sym.108
_audit_creation_date              2012-12-11T15:08:37-0500
_audit_creation_method            fapswitch 2.2
_symmetry_space_group_name_H-M    P1
_symmetry_Int_Tables_number       1
_space_group_crystal_system       triclinic
_cell_length_a                    19.606717
_cell_length_b                    11.275111
_cell_length_c                    18.692785
_cell_angle_alpha                 90.033561
_cell_angle_beta                  90.200404
_cell_angle_gamma                 89.980902
_cell_volume                      4132.34870844

loop_
_atom_site_label
_atom_site_type_symbol
_atom_type_description
_atom_site_fract_x
_atom_site_fract_y
_atom_site_fract_z
_atom_type_partial_charge
C1    C     C_R   0.273063 0.042051 0.854849 0.536938
C2    C     C_R   0.728168 0.044904 0.146675 0.537753
C3    C     C_R   0.773063 0.542051 0.854849 0.536938
C4    C     C_R   0.228168 0.544904 0.146675 0.537753
C5    C     C_3   0.522060 0.732031 0.961895 -0.108543
C6    C     C_3   0.483981 0.718777 0.033092 -0.110036
C7    C     C_3   0.022060 0.232031 0.961895 -0.108544
C8    C     C_3   0.983981 0.218777 0.033092 -0.110036
C9    C     C_3   0.315942 0.539532 0.046177 -0.234950
C10   C     C_3   0.691426 0.515544 0.958970 -0.232120
C11   C     C_3   0.815942 0.039532 0.046177 -0.234950
C12   C     C_3   0.191426 0.015544 0.958970 -0.232120
C13   C     C_3   0.323340 0.557918 0.964614 -0.233653
C14   C     C_3   0.686962 0.523469 0.041354 -0.241744
C15   C     C_3   0.823340 0.057918 0.964614 -0.233653
C16   C     C_3   0.186962 0.023469 0.041354 -0.241744
C17   C     C_3   0.186819 0.513657 0.026220 -0.214903
C18   C     C_3   0.822846 0.530336 0.974469 -0.212076
C19   C     C_3   0.686819 0.013657 0.026220 -0.214902
C20   C     C_3   0.322846 0.030336 0.974469 -0.212075
C21   C     C_3   0.235890 0.708111 0.056138 -0.255526
C22   C     C_3   0.752777 0.704128 0.944705 -0.252468
C23   C     C_3   0.735890 0.208110 0.056138 -0.255526
C24   C     C_3   0.252777 0.204128 0.944705 -0.252469
C25   C     C_3   0.243116 0.576013 0.071079 0.064020
C26   C     C_3   0.759131 0.571711 0.931047 0.061439
C27   C     C_3   0.743116 0.076013 0.071079 0.064020
C28   C     C_3   0.259131 0.071711 0.931047 0.061439
C29   C     C_3   0.256498 0.610393 0.932605 0.054453
C30   C     C_3   0.744975 0.604610 0.069512 0.058527
C31   C     C_3   0.756498 0.110393 0.932605 0.054453
C32   C     C_3   0.244974 0.104610 0.069512 0.058527
C33   C     C_3   0.199822 0.520325 0.945132 -0.255311
C34   C     C_3   0.813425 0.544102 0.055320 -0.244962
C35   C     C_3   0.699822 0.020325 0.945132 -0.255311
C36   C     C_3   0.313425 0.044102 0.055320 -0.244962
C37   C     C_3   0.236553 0.724804 0.974338 -0.225011
C38   C     C_3   0.740650 0.720950 0.025742 -0.224050
C39   C     C_3   0.736553 0.224804 0.974338 -0.225011
C40   C     C_3   0.240650 0.220950 0.025742 -0.224050
C41   C     C_3   0.516228 0.706508 0.464757 -0.222827
C42   C     C_3   0.483765 0.706486 0.535170 -0.223108
C43   C     C_3   0.016227 0.206508 0.464757 -0.222827
C44   C     C_3   0.983765 0.206486 0.535170 -0.223107
C45   C     C_R   0.442535 0.817183 0.862329 0.536460
C46   C     C_R   0.554555 0.817490 0.137336 0.538063
C47   C     C_R   0.942535 0.317183 0.862329 0.536461
C48   C     C_R   0.054555 0.317490 0.137336 0.538063
C49   C     C_3   0.564295 0.910476 0.474782 -0.242911
C50   C     C_3   0.435714 0.910486 0.525318 -0.242761
C51   C     C_3   0.064295 0.410476 0.474782 -0.242911
C52   C     C_3   0.935714 0.410486 0.525318 -0.242760
C53   C     C_3   0.442426 0.886681 0.443586 -0.256484
C54   C     C_3   0.557588 0.886581 0.556490 -0.256369
C55   C     C_3   0.942426 0.386680 0.443586 -0.256484
C56   C     C_3   0.057588 0.386581 0.556490 -0.256369
C57   C     C_3   0.513298 0.831839 0.431518 0.059509
C58   C     C_3   0.486714 0.831773 0.568509 0.059353
C59   C     C_3   0.013298 0.331839 0.431518 0.059508
C60   C     C_3   0.986714 0.331773 0.568509 0.059353
C61   C     C_3   0.178731 0.646072 0.459878 -0.257742
C62   C     C_3   0.821228 0.646020 0.540153 -0.257693
C63   C     C_3   0.678731 0.146072 0.459878 -0.257742
C64   C     C_3   0.321228 0.146020 0.540153 -0.257693
C65   C     C_3   0.182929 0.657997 0.539432 -0.234642
C66   C     C_3   0.817050 0.657971 0.460602 -0.234584
C67   C     C_3   0.682929 0.157997 0.539432 -0.234642
C68   C     C_3   0.317050 0.157971 0.460602 -0.234584
C69   C     C_3   0.249320 0.452137 0.474143 -0.223809
C70   C     C_3   0.750702 0.452091 0.525709 -0.223969
C71   C     C_3   0.749320 0.952137 0.474143 -0.223809
C72   C     C_3   0.250702 0.952091 0.525710 -0.223969
C73   C     C_3   0.302331 0.644744 0.443795 -0.017343
C74   C     C_3   0.697646 0.644675 0.556251 -0.017212
C75   C     C_3   0.802331 0.144743 0.443795 -0.017343
C76   C     C_3   0.197646 0.144676 0.556251 -0.017212
C77   C     C_3   0.238760 0.570301 0.430830 0.081471
C78   C     C_3   0.761232 0.570214 0.569148 0.081004
C79   C     C_3   0.738760 0.070301 0.430830 0.081471
C80   C     C_3   0.261232 0.070214 0.569148 0.081005
C81   C     C_3   0.250173 0.602586 0.568892 0.041350
C82   C     C_3   0.749831 0.602622 0.431096 0.041703
C83   C     C_3   0.750173 0.102586 0.568892 0.041350
C84   C     C_3   0.249831 0.102623 0.431096 0.041703
C85   C     C_3   0.243371 0.469728 0.555992 -0.278512
C86   C     C_3   0.756653 0.469749 0.443876 -0.278408
C87   C     C_3   0.743371 0.969728 0.555992 -0.278513
C88   C     C_3   0.256653 0.969750 0.443876 -0.278409
C89   C     C_R   0.262605 0.642394 0.855165 0.530163
C90   C     C_R   0.738370 0.638585 0.146337 0.528789
C91   C     C_R   0.762605 0.142394 0.855165 0.530163
C92   C     C_R   0.238370 0.138585 0.146337 0.528789
C93   C     C_3   0.313996 0.643440 0.525992 -0.204326
C94   C     C_3   0.686008 0.643483 0.474047 -0.204237
C95   C     C_3   0.813996 0.143440 0.525992 -0.204326
C96   C     C_3   0.186008 0.143483 0.474047 -0.204237
C97   C     C_R   0.274348 0.041253 0.645085 0.584028
C98   C     C_R   0.725666 0.041341 0.354893 0.582962
C99   C     C_R   0.774348 0.541253 0.645085 0.584028
C100  C     C_R   0.225666 0.541341 0.354893 0.582962
C101  C     C_R   0.466944 0.823340 0.644615 0.568524
C102  C     C_R   0.533062 0.823387 0.355395 0.567875
C103  C     C_R   0.966944 0.323340 0.644615 0.568524
C104  C     C_R   0.033062 0.323387 0.355395 0.567875
C105  C     C_R   0.260102 0.637956 0.644651 0.537020
C106  C     C_R   0.739894 0.638022 0.355354 0.535590
C107  C     C_R   0.760102 0.137956 0.644651 0.537020
C108  C     C_R   0.239894 0.138022 0.355354 0.535590
C109  C     C_3   0.471960 0.911165 0.039241 -0.108636
C110  C     C_3   0.510287 0.924550 0.967300 -0.111402
C111  C     C_3   0.971960 0.411165 0.039241 -0.108636
C112  C     C_3   0.010287 0.424550 0.967300 -0.111402
C113  C     C_3   0.429724 0.807717 0.007510 -0.160879
C114  C     C_3   0.564406 0.834584 0.992537 -0.163357
C115  C     C_3   0.929724 0.307717 0.007510 -0.160879
C116  C     C_3   0.064406 0.334585 0.992537 -0.163357
C117  C     C_3   0.468624 0.821815 0.936578 0.053248
C118  C     C_3   0.525949 0.821970 0.063885 0.059326
C119  C     C_3   0.968624 0.321815 0.936578 0.053249
C120  C     C_3   0.025949 0.321970 0.063885 0.059326
Cr1   Cr    Cr6+3 0.229620 0.836040 0.749110 1.039240
Cr2   Cr    Cr6+3 0.770380 0.836040 0.250890 1.039181
Cr3   Cr    Cr6+3 0.729620 0.336040 0.749110 1.039240
Cr4   Cr    Cr6+3 0.270380 0.336040 0.250890 1.039181
Cr5   Cr    Cr6+3 0.387630 0.990680 0.750730 1.005064
Cr6   Cr    Cr6+3 0.612370 0.990680 0.249270 1.005392
Cr7   Cr    Cr6+3 0.887630 0.490680 0.750730 1.005064
Cr8   Cr    Cr6+3 0.112370 0.490680 0.249270 1.005392
Cr9   Cr    Cr6+3 0.386020 0.676590 0.749210 1.020940
Cr10  Cr    Cr6+3 0.613980 0.676590 0.250790 1.020432
Cr11  Cr    Cr6+3 0.886020 0.176590 0.749210 1.020940
Cr12  Cr    Cr6+3 0.113980 0.176590 0.250790 1.020432
H1    H     H_    0.375369 0.791006 0.017598 0.092178
H2    H     H_    0.616165 0.839264 0.971743 0.097999
H3    H     H_    0.875369 0.291006 0.017598 0.092178
H4    H     H_    0.116165 0.339264 0.971743 0.097999
H5    H     H_    0.186774 0.741162 0.078012 0.131228
H6    H     H_    0.799678 0.752156 0.927999 0.126955
H7    H     H_    0.686774 0.241162 0.078012 0.131228
H8    H     H_    0.299678 0.252156 0.927999 0.126955
H9    H     H_    0.277477 0.758792 0.082449 0.107580
H10   H     H_    0.709326 0.739632 0.913026 0.106640
H11   H     H_    0.777477 0.258792 0.082449 0.107580
H12   H     H_    0.209326 0.239632 0.913026 0.106640
H13   H     H_    0.270579 0.797188 0.959423 0.108647
H14   H     H_    0.687934 0.748633 0.033844 0.100604
H15   H     H_    0.770579 0.297188 0.959423 0.108647
H16   H     H_    0.187934 0.248633 0.033844 0.100604
H17   H     H_    0.183357 0.746242 0.958490 0.133838
H18   H     H_    0.776381 0.787601 0.046512 0.138094
H19   H     H_    0.683357 0.246242 0.958490 0.133838
H20   H     H_    0.276380 0.287601 0.046512 0.138094
H21   H     H_    0.636205 0.054990 0.036915 0.140666
H22   H     H_    0.368363 0.083636 0.959116 0.139807
H23   H     H_    0.136205 0.554990 0.036915 0.140666
H24   H     H_    0.868362 0.583636 0.959116 0.139807
H25   H     H_    0.152093 0.546914 0.916975 0.127957
H26   H     H_    0.855705 0.599107 0.077207 0.133246
H27   H     H_    0.652093 0.046914 0.916975 0.127957
H28   H     H_    0.355705 0.099107 0.077207 0.133246
H29   H     H_    0.567317 0.685785 0.476104 0.144232
H30   H     H_    0.432668 0.685827 0.523796 0.144306
H31   H     H_    0.067317 0.185785 0.476103 0.144232
H32   H     H_    0.932668 0.185827 0.523796 0.144305
H33   H     H_    0.498690 0.631301 0.432370 0.209969
H34   H     H_    0.501305 0.631251 0.567497 0.209896
H35   H     H_    0.998690 0.131301 0.432370 0.209969
H36   H     H_    0.001305 0.131251 0.567497 0.209896
H37   H     H_    0.616158 0.899071 0.456222 0.112533
H38   H     H_    0.383854 0.899084 0.543867 0.112555
H39   H     H_    0.116158 0.399071 0.456222 0.112533
H40   H     H_    0.883854 0.399083 0.543868 0.112555
H41   H     H_    0.597549 0.824953 0.575157 0.162292
H42   H     H_    0.402475 0.825092 0.424851 0.162262
H43   H     H_    0.097549 0.324954 0.575157 0.162292
H44   H     H_    0.902475 0.325092 0.424851 0.162262
H45   H     H_    0.453453 0.985491 0.072652 0.117134
H46   H     H_    0.520930 0.010153 0.940246 0.116998
H47   H     H_    0.953453 0.485491 0.072652 0.117134
H48   H     H_    0.020930 0.510153 0.940246 0.116998
H49   H     H_    0.437363 0.970484 0.412941 0.113701
H50   H     H_    0.562658 0.970359 0.587220 0.114046
H51   H     H_    0.937363 0.470484 0.412941 0.113701
H52   H     H_    0.062658 0.470359 0.587220 0.114046
H53   H     H_    0.450757 0.003512 0.534903 0.127915
H54   H     H_    0.549258 0.003536 0.465308 0.127775
H55   H     H_    0.950757 0.503513 0.534903 0.127915
H56   H     H_    0.049257 0.503536 0.465308 0.127775
H57   H     H_    0.128886 0.611255 0.445394 0.143928
H58   H     H_    0.871089 0.611268 0.554623 0.143839
H59   H     H_    0.628886 0.111256 0.445394 0.143928
H60   H     H_    0.371089 0.111268 0.554623 0.143839
H61   H     H_    0.179015 0.735402 0.434970 0.114935
H62   H     H_    0.820897 0.735338 0.565132 0.115083
H63   H     H_    0.679016 0.235402 0.434970 0.114935
H64   H     H_    0.320897 0.235338 0.565132 0.115083
H65   H     H_    0.176910 0.751372 0.553085 0.153968
H66   H     H_    0.823054 0.751328 0.447019 0.153811
H67   H     H_    0.676910 0.251372 0.553085 0.153968
H68   H     H_    0.323054 0.251328 0.447019 0.153810
H69   H     H_    0.138087 0.614828 0.564356 0.127735
H70   H     H_    0.861900 0.614793 0.435650 0.127613
H71   H     H_    0.638087 0.114828 0.564356 0.127735
H72   H     H_    0.361901 0.114793 0.435650 0.127613
H73   H     H_    0.719581 0.879896 0.453478 0.097975
H74   H     H_    0.280459 0.879834 0.546279 0.097732
H75   H     H_    0.219581 0.379896 0.453478 0.097975
H76   H     H_    0.780459 0.379834 0.546279 0.097732
H77   H     H_    0.694064 0.936690 0.576229 0.117070
H78   H     H_    0.305965 0.936705 0.423601 0.116898
H79   H     H_    0.194064 0.436690 0.576229 0.117070
H80   H     H_    0.805965 0.436705 0.423601 0.116898
H81   H     H_    0.294281 0.736537 0.424917 0.123274
H82   H     H_    0.705663 0.736445 0.575246 0.123368
H83   H     H_    0.794282 0.236537 0.424917 0.123274
H84   H     H_    0.205663 0.236445 0.575246 0.123368
H85   H     H_    0.542404 0.656840 0.930247 0.129340
H86   H     H_    0.473916 0.632414 0.059457 0.125342
H87   H     H_    0.042404 0.156840 0.930247 0.129340
H88   H     H_    0.973916 0.132414 0.059457 0.125342
H89   H     H_    0.332781 0.728036 0.545569 0.090220
H90   H     H_    0.667233 0.728139 0.454598 0.090238
H91   H     H_    0.832782 0.228036 0.545569 0.090220
H92   H     H_    0.167233 0.228139 0.454598 0.090238
H93   H     H_    0.353527 0.575555 0.538211 0.157694
H94   H     H_    0.646503 0.575621 0.461743 0.157719
H95   H     H_    0.853528 0.075555 0.538210 0.157694
H96   H     H_    0.146503 0.075621 0.461743 0.157719
H97   H     H_    0.302349 0.424462 0.464960 0.170858
H98   H     H_    0.697686 0.424386 0.534850 0.170708
H99   H     H_    0.802348 0.924462 0.464960 0.170859
H100  H     H_    0.197686 0.924387 0.534850 0.170708
H101  H     H_    0.284407 0.421130 0.584685 0.115676
H102  H     H_    0.715633 0.421173 0.415133 0.115485
H103  H     H_    0.784407 0.921130 0.584685 0.115677
H104  H     H_    0.215633 0.921173 0.415133 0.115485
H105  H     H_    0.328907 0.447324 0.060111 0.129503
H106  H     H_    0.683807 0.425373 0.940310 0.133833
H107  H     H_    0.828907 0.947324 0.060111 0.129503
H108  H     H_    0.183807 0.925373 0.940310 0.133833
H109  H     H_    0.354245 0.594515 0.074899 0.119256
H110  H     H_    0.647576 0.564148 0.935257 0.113792
H111  H     H_    0.854245 0.094515 0.074899 0.119256
H112  H     H_    0.147576 0.064148 0.935257 0.113792
H113  H     H_    0.367126 0.616779 0.953349 0.135637
H114  H     H_    0.635944 0.559280 0.055937 0.138734
H115  H     H_    0.867126 0.116779 0.953349 0.135637
H116  H     H_    0.135944 0.059280 0.055937 0.138734
H117  H     H_    0.335098 0.471475 0.938694 0.119171
H118  H     H_    0.691227 0.434992 0.065932 0.114672
H119  H     H_    0.835098 0.971474 0.938694 0.119171
H120  H     H_    0.191227 0.934992 0.065932 0.114672
H121  H     H_    0.682495 0.924094 0.045641 0.097645
H122  H     H_    0.336042 0.940043 0.959416 0.098161
H123  H     H_    0.182495 0.424094 0.045641 0.097645
H124  H     H_    0.836042 0.440043 0.959416 0.098161
H125  H     H_    0.715289 0.933447 0.923529 0.111232
H126  H     H_    0.315521 0.956409 0.082180 0.108337
H127  H     H_    0.215289 0.433447 0.923529 0.111232
H128  H     H_    0.815521 0.456409 0.082180 0.108337
O1    O     O_R   0.214130 0.708570 0.829890 -0.526749
O2    O     O_R   0.785870 0.708570 0.170110 -0.528044
O3    O     O_R   0.714130 0.208570 0.829890 -0.526749
O4    O     O_R   0.285870 0.208570 0.170110 -0.528044
O5    O     O_R   0.446360 0.919990 0.675230 -0.511537
O6    O     O_R   0.553640 0.919990 0.324770 -0.511924
O7    O     O_R   0.946360 0.419990 0.675230 -0.511537
O8    O     O_R   0.053640 0.419990 0.324770 -0.511924
O9    O     O_R   0.457170 0.717300 0.668380 -0.498444
O10   O     O_R   0.542830 0.717300 0.331620 -0.498651
O11   O     O_R   0.957170 0.217300 0.668380 -0.498444
O12   O     O_R   0.042830 0.217300 0.331620 -0.498651
O13   O     O_R   0.320870 0.624890 0.673130 -0.512263
O14   O     O_R   0.679130 0.624890 0.326870 -0.513017
O15   O     O_R   0.820870 0.124890 0.673130 -0.512264
O16   O     O_R   0.179130 0.124890 0.326870 -0.513017
O17   O     O_3   0.334430 0.834430 0.749680 -0.306287
O18   O     O_3   0.665570 0.834430 0.250320 -0.302020
O19   O     O_3   0.834430 0.334430 0.749680 -0.306287
O20   O     O_3   0.165570 0.334430 0.250320 -0.302020
O21   O     O_R   0.236050 0.959150 0.825270 -0.505209
O22   O     O_R   0.763950 0.959150 0.174730 -0.504197
O23   O     O_R   0.736050 0.459150 0.825270 -0.505208
O24   O     O_R   0.263950 0.459150 0.174730 -0.504197
O25   O     O_R   0.332100 0.076650 0.832310 -0.532899
O26   O     O_R   0.667900 0.076650 0.167690 -0.533639
O27   O     O_R   0.832100 0.576650 0.832310 -0.532899
O28   O     O_R   0.167900 0.576650 0.167690 -0.533639
O29   O     O_R   0.446500 0.918620 0.826240 -0.502767
O30   O     O_R   0.553500 0.918620 0.173760 -0.502869
O31   O     O_R   0.946500 0.418620 0.826240 -0.502767
O32   O     O_R   0.053500 0.418620 0.173760 -0.502869
O33   O     O_R   0.457310 0.715830 0.831280 -0.511919
O34   O     O_R   0.542690 0.715830 0.168720 -0.512024
O35   O     O_R   0.957310 0.215830 0.831280 -0.511919
O36   O     O_R   0.042690 0.215830 0.168720 -0.512024
O37   O     O_R   0.321000 0.623520 0.824130 -0.521614
O38   O     O_R   0.679000 0.623520 0.175870 -0.521654
O39   O     O_R   0.821000 0.123520 0.824130 -0.521614
O40   O     O_R   0.179000 0.123520 0.175870 -0.521654
O41   O     O_R   0.213990 0.710040 0.667000 -0.520920
O42   O     O_R   0.786010 0.710040 0.333000 -0.521670
O43   O     O_R   0.713990 0.210040 0.667000 -0.520920
O44   O     O_R   0.286010 0.210040 0.333000 -0.521671
O45   O     O_R   0.235920 0.960520 0.674260 -0.452297
O46   O     O_R   0.764080 0.960520 0.325740 -0.453134
O47   O     O_R   0.735920 0.460520 0.674260 -0.452298
O48   O     O_R   0.264080 0.460520 0.325740 -0.453134
O49   O     O_R   0.331960 0.078120 0.669410 -0.542674
O50   O     O_R   0.668040 0.078120 0.330590 -0.543575
O51   O     O_R   0.831960 0.578120 0.669410 -0.542673
O52   O     O_R   0.168040 0.578120 0.330590 -0.543575
Br1   Br    Br    0.379113 0.583906 0.388798 -0.616907
Br2   Br    Br    0.620861 0.583772 0.611141 -0.615886
Br3   Br    Br    0.879113 0.083905 0.388798 -0.616907
Br4   Br    Br    0.120862 0.083772 0.611141 -0.615885

loop_
_geom_bond_atom_site_label_1
_geom_bond_atom_site_label_2
_ccdc_geom_bond_type
C82   C94   S    
C55   C59   S    
C35   H125  S    
C83   C87   S    
C73   C93   S    
C47   O31   A    
C42   C58   S    
C29   C89   S    
C16   H120  S    
C75   C95   S    
C48   C120  S    
C24   H8    S    
C57   C102  S    
Cr6   O18   S    
Cr7   O7    S    
C85   H101  S    
C59   C104  S    
Cr1   O17   S    
C5    C6    S    
Cr10  O10   S    
Cr3   O19   S    
Cr4   O4    S    
Cr12  O16   S    
C29   C33   S    
C87   H103  S    
C30   C38   S    
C77   C100  S    
C44   H36   S    
C9    C13   S    
C11   C15   S    
C5    H85   S    
C49   H54   S    
C12   C16   S    
C98   O50   A    
C99   O47   A    
C52   H55   S    
C21   H5    S    
C60   C103  S    
C107  O15   A    
C83   C107  S    
C88   H78   S    
C74   H82   S    
C111  H47   S    
C23   H11   S    
C64   H60   S    
C11   C27   S    
C16   H116  S    
Cr5   O25   S    
C50   C53   S    
C89   O37   A    
C7    C119  S    
Cr8   O28   S    
C62   H58   S    
C62   C66   S    
Cr2   O2    S    
C72   H74   S    
C20   C28   S    
C18   H124  S    
Cr12  O36   S    
C43   C44   S    
C66   C82   S    
Cr9   O33   S    
C58   C101  S    
C105  O41   A    
C92   O4    A    
C107  O43   A    
C14   H118  S    
C108  O44   A    
C19   H21   S    
C89   O1    A    
C62   H62   S    
Cr5   O49   S    
C17   H23   S    
C91   O3    A    
Cr1   O45   S    
Cr5   O5    S    
Cr2   O42   S    
C3    C26   S    
C84   C88   S    
C74   Br2   S    
Cr12  O12   S    
C110  H46   S    
C85   H79   S    
C13   H117  S    
Cr10  O34   S    
C17   C25   S    
C19   C35   S    
C76   C96   S    
C1    O21   A    
C32   C92   S    
C75   H83   S    
C95   H95   S    
C67   H71   S    
C21   H9    S    
C61   C65   S    
C12   H108  S    
C78   C99   S    
C45   O29   A    
C75   C79   S    
Cr5   O29   S    
C22   C38   S    
C67   C83   S    
C80   C97   S    
C68   H72   S    
C11   H111  S    
C69   C77   S    
C111  C112  S    
C9    H109  S    
C52   H40   S    
C71   C79   S    
C4    C25   S    
Cr4   O20   S    
C7    C8    S    
Cr10  O38   S    
Cr4   O44   S    
C96   H96   S    
C24   H12   S    
C100  O52   A    
C39   H19   S    
C49   C57   S    
C40   H20   S    
Cr11  O11   S    
Cr9   O37   S    
C38   H14   S    
C51   H56   S    
C52   C60   S    
C19   H121  S    
C61   C77   S    
C12   H112  S    
C93   H93   S    
C36   H126  S    
C47   O35   A    
C110  C114  S    
C48   O36   A    
C43   C59   S    
C112  H48   S    
C90   O38   A    
C6    H86   S    
C22   H10   S    
Cr1   O21   S    
Cr2   O18   S    
Cr4   O24   S    
Cr12  O20   S    
C81   C105  S    
C30   C34   S    
C10   C14   S    
C101  O9    A    
C95   H91   S    
C116  C120  S    
C103  O11   A    
C7    C116  S    
C69   H97   S    
C71   H73   S    
C73   Br1   S    
C33   H127  S    
C114  H2    S    
C34   H128  S    
C66   H66   S    
C113  C117  S    
C31   C91   S    
Cr6   O26   S    
C9    H105  S    
Cr4   O48   S    
C61   H61   S    
C112  C116  S    
C69   C85   S    
C45   C117  S    
C21   C25   S    
C71   H99   S    
Cr12  O40   S    
C62   C78   S    
C76   C80   S    
C42   H30   S    
C15   C31   S    
C43   H35   S    
C16   C32   S    
C97   O45   A    
C105  O13   A    
C106  O42   A    
C72   C80   S    
C115  H3    S    
C64   H64   S    
C4    O24   A    
C82   C106  S    
C90   O2    A    
C75   Br3   S    
C55   H44   S    
Cr6   O50   S    
C66   H70   S    
Cr8   O32   S    
C94   H90   S    
Cr6   O6    S    
C113  H1    S    
C46   O34   A    
Cr7   O19   S    
Cr8   O20   S    
C81   C85   S    
C13   H113  S    
C41   H29   S    
C64   C80   S    
C41   C42   S    
C74   C94   S    
Cr9   O13   S    
C18   C26   S    
C30   C90   S    
Cr11  O39   S    
C1    O25   A    
C9    C25   S    
C2    O22   A    
C3    O27   A    
C86   H102  S    
C12   C28   S    
C13   C29   S    
C86   H80   S    
C67   H67   S    
C98   O46   A    
C46   C118  S    
C73   C77   S    
Cr6   O30   S    
C106  O14   A    
C109  C118  S    
C1    C28   S    
C2    C27   S    
Cr10  O14   S    
C72   H100  S    
Cr11  O19   S    
C61   H57   S    
C52   C55   S    
C32   C36   S    
C87   H77   S    
C73   H81   S    
C17   C33   S    
C110  C117  S    
C38   H18   S    
C33   H25   S    
C69   H75   S    
C40   H16   S    
C68   C84   S    
C24   C28   S    
C53   C57   S    
C82   C86   S    
C56   C60   S    
C115  C119  S    
C50   C58   S    
C104  O12   A    
C48   O32   A    
Cr7   O27   S    
C76   H84   S    
C65   C81   S    
C76   Br4   S    
C91   O39   A    
Cr8   O8    S    
C50   H38   S    
C20   H122  S    
Cr2   O22   S    
C71   C87   S    
C15   H115  S    
C31   C35   S    
C64   C68   S    
C101  O5    A    
C102  O10   A    
C37   H17   S    
C108  O16   A    
C112  C119  S    
C116  H4    S    
C56   H52   S    
C22   H6    S    
C41   C57   S    
C109  C110  S    
C49   H37   S    
Cr5   O17   S    
C44   C60   S    
C63   H59   S    
C84   C108  S    
C94   H94   S    
C20   C36   S    
C109  H45   S    
C21   C37   S    
C22   C26   S    
C29   C37   S    
C55   H51   S    
C44   H32   S    
C70   H76   S    
C42   H34   S    
C43   H31   S    
C97   O49   A    
C5    C114  S    
C70   C78   S    
C79   C98   S    
C99   O51   A    
C10   H110  S    
C63   C79   S    
C4    O28   A    
C20   H22   S    
C92   O40   A    
C54   H41   S    
C23   H7    S    
C46   O30   A    
C11   H107  S    
C49   C54   S    
Cr3   O47   S    
C51   C56   S    
C84   C96   S    
C8    C115  S    
Cr1   O1    S    
Cr3   O3    S    
C96   H92   S    
C41   H33   S    
C54   H50   S    
Cr9   O17   S    
C23   C27   S    
C19   C27   S    
C74   C78   S    
C109  C113  S    
C2    O26   A    
C7    H87   S    
C10   C26   S    
C47   C119  S    
C14   C30   S    
C72   C88   S    
C53   H42   S    
C88   H104  S    
C63   C67   S    
C56   H43   S    
Cr7   O31   S    
Cr1   O41   S    
C5    C117  S    
C111  C120  S    
Cr10  O18   S    
Cr3   O43   S    
C70   H98   S    
C6    C113  S    
Cr11  O15   S    
C8    H88   S    
C53   H49   S    
C81   C93   S    
C83   C95   S    
Cr11  O35   S    
C18   C34   S    
C114  C118  S    
C65   H65   S    
C34   H26   S    
C10   H106  S    
C51   C59   S    
C70   C86   S    
C8    C120  S    
Cr2   O46   S    
C54   C58   S    
C17   H123  S    
C45   O33   A    
C104  O8    A    
C18   H24   S    
C111  C115  S    
Cr7   O51   S    
Cr8   O52   S    
C68   H68   S    
C51   H39   S    
Cr3   O23   S    
C15   H119  S    
C23   C39   S    
C3    O23   A    
C24   C40   S    
C31   C39   S    
C63   H63   S    
C32   C40   S    
C35   H27   S    
Cr9   O9    S    
C36   H28   S    
C103  O7    A    
C100  O48   A    
C65   H69   S    
C102  O6    A    
C39   H15   S    
C93   H89   S    
C37   H13   S    
C50   H53   S    
C6    C118  S    
C14   H114  S    
