data_str_m9_o18_o25_f0_sra.sym.64
_audit_creation_date              2012-12-11T15:32:39-0500
_audit_creation_method            fapswitch 2.2
_symmetry_space_group_name_H-M    P1
_symmetry_Int_Tables_number       1
_space_group_crystal_system       triclinic
_cell_length_a                    6.958722
_cell_length_b                    20.392561
_cell_length_c                    24.397728
_cell_angle_alpha                 89.698266
_cell_angle_beta                  90.119359
_cell_angle_gamma                 89.578606
_cell_volume                      3462.03852308

loop_
_atom_site_label
_atom_site_type_symbol
_atom_type_description
_atom_site_fract_x
_atom_site_fract_y
_atom_site_fract_z
_atom_type_partial_charge
O1    O     O_R   0.507320 0.423560 0.460500 -0.537631
O2    O     O_R   0.170760 0.556250 0.437010 -0.539724
O3    O     O_R   0.004030 0.576440 0.539500 -0.542714
C1    C     C_R   0.339371 0.576238 0.420973 0.736365
O4    O     O_R   0.177370 0.422820 0.454110 -0.538175
O5    O     O_R   0.010680 0.442050 0.556720 -0.536185
C2    C     C_R   0.346262 0.398268 0.444204 0.686908
O6    O     O_R   0.500680 0.557950 0.443280 -0.530043
O7    O     O_3   0.340380 0.506470 0.533650 -0.367077
V1    V     V_3+5 0.064130 0.498800 0.493760 1.417567
O8    O     O_R   0.681160 0.443750 0.562990 -0.539716
C3    C     C_R   0.850082 0.423450 0.578603 0.718332
O9    O     O_R   0.674560 0.577180 0.545890 -0.525939
C4    C     C_R   0.842380 0.601234 0.556470 0.752780
V2    V     V_3+5 0.564560 0.501200 0.506240 1.443486
O10   O     O_3   0.838180 0.493530 0.466350 -0.368572
C5    C     C_R   0.976681 0.837296 0.911574 -0.145261
C6    C     C_R   0.845986 0.662675 0.588129 -0.129803
C7    C     C_R   0.024179 0.719828 0.905947 -0.230010
C8    C     C_R   0.024452 0.777238 0.936774 0.390101
C9    C     C_R   0.935680 0.839294 0.855034 -0.287373
C10   C     C_R   0.941849 0.781453 0.822494 0.091878
C11   C     C_R   0.988071 0.721555 0.849409 0.078526
C12   C     C_R   0.904443 0.780714 0.764466 0.071463
C13   C     C_R   0.919702 0.720352 0.734538 0.071648
C14   C     C_R   0.967272 0.662598 0.763807 -0.185672
C15   C     C_R   0.999156 0.663329 0.819921 -0.182321
C16   C     C_R   0.850029 0.838006 0.735472 -0.189687
C17   C     C_R   0.809406 0.836579 0.679721 -0.181184
C18   C     C_R   0.823421 0.778399 0.650122 0.086155
C19   C     C_R   0.882370 0.719470 0.676564 0.093439
C20   C     C_R   0.774406 0.778760 0.594239 -0.245423
C21   C     C_R   0.783821 0.721250 0.563332 0.397267
C22   C     C_R   0.897279 0.661961 0.643877 -0.290876
H1    H     H_    0.034290 0.617510 0.840501 0.121418
H2    H     H_    0.943452 0.615410 0.660495 0.115625
H3    H     H_    0.765008 0.881740 0.659556 0.122538
H4    H     H_    0.054538 0.673555 0.926347 0.125200
H5    H     H_    0.978646 0.615290 0.744714 0.120894
H6    H     H_    0.833855 0.884997 0.754895 0.122599
C23   C     C_3   0.820191 0.301972 0.766169 -0.257060
C24   C     C_3   0.016485 0.274923 0.787471 -0.260752
H7    H     H_    0.095458 0.299950 0.820753 0.139341
H8    H     H_    0.748442 0.347264 0.781062 0.130162
H9    H     H_    0.228406 0.277232 0.710767 0.147898
C25   C     C_1   0.963431 0.120397 0.874438 -0.201185
C26   C     C_1   0.859916 0.377307 0.623782 -0.199559
C27   C     C_3   0.741744 0.231057 0.767788 0.411114
C28   C     C_3   0.934155 0.204223 0.788977 -0.002893
C29   C     C_3   0.807319 0.220228 0.708456 0.363268
C30   C     C_3   0.888615 0.290213 0.706677 0.011024
C31   C     C_3   0.999905 0.193338 0.729662 0.307751
C32   C     C_3   0.085491 0.263553 0.727219 -0.251832
C33   C     C_1   0.952167 0.157896 0.835752 -0.011141
C34   C     C_1   0.870359 0.338162 0.661258 -0.007909
C35   C     C_3   0.578693 0.782723 0.256962 -0.137127
C36   C     C_3   0.560674 0.707396 0.250471 -0.138181
H10   H     H_    0.682445 0.671920 0.250920 0.109810
H11   H     H_    0.715183 0.809813 0.262284 0.111624
H12   H     H_    0.421437 0.691734 0.162648 0.117019
C37   C     C_1   0.350811 0.621630 0.374865 -0.191558
C38   C     C_1   0.474182 0.878851 0.125484 -0.203438
C39   C     C_3   0.408871 0.782359 0.298034 -0.137203
C40   C     C_3   0.391026 0.707638 0.290938 0.169133
C41   C     C_3   0.265838 0.793039 0.249925 -0.131603
C42   C     C_3   0.435441 0.792794 0.209439 0.168410
C43   C     C_3   0.247761 0.717729 0.243413 -0.136106
C44   C     C_3   0.417636 0.718072 0.202339 -0.136348
C45   C     C_1   0.367142 0.660069 0.336817 -0.074630
C46   C     C_1   0.458820 0.840353 0.163528 -0.058660
C47   C     C_R   0.468798 0.161246 0.090049 -0.127591
C48   C     C_R   0.351226 0.336563 0.413088 -0.064945
C49   C     C_R   0.491691 0.279547 0.094379 0.437399
C50   C     C_R   0.497154 0.221343 0.064346 -0.254719
C51   C     C_R   0.435945 0.158948 0.146783 -0.214049
C52   C     C_R   0.412770 0.217248 0.178290 0.044506
C53   C     C_R   0.441382 0.277930 0.150498 -0.019345
C54   C     C_R   0.367373 0.218011 0.236183 -0.076047
C55   C     C_R   0.370003 0.279451 0.265199 -0.104063
C56   C     C_R   0.372067 0.338406 0.233799 0.382407
C57   C     C_R   0.416029 0.336887 0.178408 -0.250344
C58   C     C_R   0.310332 0.161029 0.266217 0.402247
C59   C     C_R   0.285774 0.163460 0.322867 -0.272440
C60   C     C_R   0.309203 0.221295 0.351903 0.071446
C61   C     C_R   0.357052 0.279953 0.324067 0.087198
C62   C     C_R   0.279155 0.221016 0.408825 -0.149156
C63   C     C_R   0.294560 0.278597 0.438819 -0.162198
C64   C     C_R   0.391037 0.336504 0.356690 -0.189788
H13   H     H_    0.425408 0.383328 0.156862 0.180449
H14   H     H_    0.448322 0.381103 0.339714 0.159133
H15   H     H_    0.262337 0.277948 0.482257 0.102322
H16   H     H_    0.244339 0.119015 0.344276 0.141106
H17   H     H_    0.525319 0.222929 0.020759 0.120223
H18   H     H_    0.436123 0.110766 0.164585 0.175763
H19   H     H_    0.238434 0.176392 0.430014 0.114343
O11   O     O_R   0.323550 0.942140 0.056770 -0.539309
O12   O     O_R   0.647080 0.077200 0.045890 -0.541744
O13   O     O_R   0.813610 0.057920 0.943260 -0.534491
C65   C     C_R   0.477900 0.100773 0.057152 0.716310
O14   O     O_R   0.653470 0.943760 0.063000 -0.532211
O15   O     O_R   0.820050 0.923540 0.960490 -0.533974
C66   C     C_R   0.484927 0.924105 0.079253 0.711776
O16   O     O_R   0.317110 0.076520 0.039540 -0.533425
O17   O     O_3   0.483830 0.993580 0.966380 -0.368275
V3    V     V_3+5 0.760140 0.001190 0.006240 1.418245
O18   O     O_R   0.149510 0.922740 0.954070 -0.547806
C67   C     C_R   0.981560 0.898478 0.943716 0.747323
O19   O     O_R   0.143120 0.056170 0.936970 -0.537390
C68   C     C_R   0.974021 0.075967 0.920918 0.722290
V4    V     V_3+5 0.259690 0.998700 0.993700 1.412601
O20   O     O_3   0.986130 0.006420 0.033620 -0.364689
H20   H     H_    0.723725 0.823532 0.574693 0.123030
O21   O     O_3   0.076324 0.134403 0.708458 -0.589460
C69   C     C_3   0.264583 0.124636 0.728116 0.104080
H21   H     H_    0.269090 0.126741 0.773663 0.154158
H22   H     H_    0.360428 0.162370 0.710289 0.199210
C70   C     C_3   0.336397 0.057005 0.710448 -0.308004
H23   H     H_    0.234651 0.019017 0.725152 0.198129
H24   H     H_    0.342051 0.054941 0.664954 0.193932
C71   C     C_3   0.535905 0.041912 0.733744 -0.769610
H25   H     H_    0.641757 0.078198 0.718710 0.274787
H26   H     H_    0.582844 0.992318 0.720487 0.210862
H27   H     H_    0.533002 0.042947 0.779260 0.233467
O22   O     O_3   0.685130 0.193367 0.668330 -0.586690
C72   C     C_3   0.786810 0.181660 0.619235 0.102526
H28   H     H_    0.842639 0.130444 0.619839 0.159857
H29   H     H_    0.910314 0.215434 0.612978 0.118594
C73   C     C_3   0.648743 0.190156 0.570864 -0.315631
H30   H     H_    0.529309 0.154534 0.574814 0.197423
H31   H     H_    0.586611 0.240543 0.571425 0.199783
C74   C     C_3   0.750579 0.179478 0.516241 -0.845999
H32   H     H_    0.867263 0.215834 0.510811 0.231343
H33   H     H_    0.645999 0.185641 0.482130 0.242549
H34   H     H_    0.812498 0.129178 0.514458 0.228664
O23   O     O_3   0.569554 0.204916 0.788530 -0.585886
C75   C     C_3   0.476577 0.248829 0.824227 0.054670
H35   H     H_    0.335348 0.226903 0.833431 0.153977
H36   H     H_    0.449959 0.297157 0.804099 0.117011
C76   C     C_3   0.579867 0.256145 0.879455 -0.335267
H37   H     H_    0.597378 0.207198 0.899181 0.204356
H38   H     H_    0.724199 0.277790 0.873774 0.195847
C77   C     C_3   0.464214 0.300818 0.917174 -0.842382
H39   H     H_    0.438259 0.349219 0.897288 0.230995
H40   H     H_    0.545950 0.308873 0.955412 0.241985
H41   H     H_    0.324231 0.278065 0.927540 0.232975
H42   H     H_    0.110915 0.690849 0.238040 0.108106
H43   H     H_    0.144059 0.828512 0.249651 0.110054
H44   H     H_    0.405014 0.808766 0.337684 0.111152
O24   O     O_3   0.518910 0.338996 0.067793 -0.582748
C78   C     C_3   0.715460 0.346924 0.054446 0.058007
H45   H     H_    0.722382 0.380508 0.018515 0.147524
H46   H     H_    0.787923 0.300449 0.041765 0.107976
C79   C     C_3   0.825109 0.378415 0.101939 -0.347828
H47   H     H_    0.751738 0.424721 0.114001 0.203564
H48   H     H_    0.827084 0.344649 0.137842 0.187138
C80   C     C_3   0.031617 0.393553 0.085550 -0.783311
H49   H     H_    0.110017 0.347454 0.075834 0.252266
H50   H     H_    0.105893 0.418409 0.119818 0.226537
H51   H     H_    0.034005 0.426595 0.049223 0.229670
O25   O     O_3   0.716558 0.720722 0.509945 -0.576018
C81   C     C_3   0.857926 0.747123 0.474978 0.049666
H52   H     H_    0.002986 0.725625 0.483732 0.113941
H53   H     H_    0.863261 0.801332 0.479867 0.125292
C82   C     C_3   0.805261 0.731093 0.415688 -0.261479
H54   H     H_    0.806538 0.676976 0.410275 0.199319
H55   H     H_    0.658008 0.749651 0.406492 0.197899
C83   C     C_3   0.946272 0.761820 0.375413 -0.853543
H56   H     H_    0.933762 0.816127 0.376384 0.227161
H57   H     H_    0.914046 0.744756 0.333267 0.232540
H58   H     H_    0.095867 0.747266 0.385957 0.238600
O26   O     O_3   0.322813 0.398793 0.255385 -0.583245
C84   C     C_3   0.120421 0.403341 0.259405 0.057708
H59   H     H_    0.060454 0.361764 0.283613 0.129648
H60   H     H_    0.054402 0.403447 0.217811 0.125859
C85   C     C_3   0.066881 0.467268 0.288257 -0.292822
H61   H     H_    0.136647 0.468383 0.329286 0.193905
H62   H     H_    0.120216 0.509552 0.263854 0.195749
C86   C     C_3   0.849672 0.473941 0.295405 -0.798063
H63   H     H_    0.776546 0.473375 0.254886 0.234216
H64   H     H_    0.815654 0.521055 0.315992 0.226768
H65   H     H_    0.794321 0.433133 0.321107 0.229706
O27   O     O_3   0.269812 0.102026 0.241529 -0.583944
C87   C     C_3   0.074048 0.101716 0.226147 0.050318
H66   H     H_    0.042218 0.142061 0.196379 0.130191
H67   H     H_    0.979982 0.107349 0.262798 0.127582
C88   C     C_3   0.029547 0.036208 0.198967 -0.288449
H68   H     H_    0.122597 0.029827 0.162344 0.198904
H69   H     H_    0.061052 0.995544 0.228236 0.194865
C89   C     C_3   0.819485 0.032692 0.181395 -0.802385
H70   H     H_    0.723265 0.039203 0.217267 0.231700
H71   H     H_    0.791094 0.984089 0.162955 0.233747
H72   H     H_    0.787670 0.071398 0.150492 0.232695
O28   O     O_3   0.058818 0.773543 0.992581 -0.582633
C90   C     C_3   0.257437 0.781573 0.003208 0.099788
H73   H     H_    0.269792 0.811112 0.041031 0.147621
H74   H     H_    0.335805 0.808903 0.970426 0.109448
C91   C     C_3   0.354962 0.715096 0.013574 -0.358607
H75   H     H_    0.278062 0.688615 0.046779 0.206172
H76   H     H_    0.349263 0.685089 0.975792 0.192219
C92   C     C_3   0.565073 0.723450 0.030080 -0.784855
H77   H     H_    0.644646 0.749717 0.997326 0.250529
H78   H     H_    0.632812 0.674529 0.036448 0.232043
H79   H     H_    0.575694 0.751474 0.068843 0.230329
H80   H     H_    0.903894 0.886865 0.837719 0.117275

loop_
_geom_bond_atom_site_label_1
_geom_bond_atom_site_label_2
_ccdc_geom_bond_type
O15   C67   A    
C65   O16   A    
O26   C84   S    
C39   C41   S    
C13   C19   A    
C63   H15   S    
C89   H72   S    
C49   C50   A    
C4    C6    S    
C27   O23   S    
C42   C44   S    
C7    C8    A    
C50   H17   S    
C55   C61   A    
C86   H65   S    
C1    O6    A    
C74   H34   S    
C73   H30   S    
C48   C63   A    
C69   H21   S    
O24   C78   S    
O23   C75   S    
C85   H62   S    
C31   O21   S    
C35   C36   S    
C59   H16   S    
C14   C15   A    
O13   V3    S    
O16   V4    S    
C10   C12   A    
C16   C17   A    
C60   C62   A    
O11   C66   A    
C5    C67   S    
C24   C32   S    
O5    C3    A    
C18   C19   A    
C76   C77   S    
C14   H5    S    
C90   C91   S    
O18   C67   A    
C16   H6    S    
V2    O10   S    
C5    C8    A    
O19   C68   A    
C38   C46   T    
C91   H76   S    
C23   C24   S    
C89   H71   S    
O27   C87   S    
C81   H53   S    
V4    O20   S    
O8    V2    S    
C80   H50   S    
C54   C55   A    
C59   C60   A    
C84   H60   S    
C92   H77   S    
C41   C43   S    
C78   C79   S    
C72   C73   S    
C29   C31   S    
O1    V2    S    
C11   C15   A    
C79   H48   S    
O7    V1    S    
C22   H2    S    
C21   O25   S    
O12   V3    S    
C27   C29   S    
C90   H73   S    
V3    O20   S    
C71   H25   S    
H9    C32   S    
C79   H47   S    
O13   C68   A    
O9    C4    A    
C81   H52   S    
C9    H80   S    
C82   H54   S    
C89   H70   S    
C3    C26   S    
C10   C11   A    
O17   V3    S    
C48   C64   A    
C71   H26   S    
C86   H63   S    
C85   C86   S    
C52   C53   A    
C82   C83   S    
O15   V3    S    
C47   C51   A    
C77   H41   S    
C43   C44   S    
C18   C20   A    
C40   C43   S    
C29   O22   S    
C60   C61   A    
C83   H57   S    
O12   C65   A    
C70   C71   S    
C83   H56   S    
O4    C2    A    
C62   C63   A    
C75   H35   S    
C15   H1    S    
C13   C14   A    
O11   V4    S    
C1    C37   S    
C5    C9    A    
C55   C56   A    
C30   C32   S    
C75   C76   S    
C91   C92   S    
O2    C1    A    
C51   C52   A    
C84   C85   S    
C87   H66   S    
C17   C18   A    
C7    H4    S    
C87   H67   S    
C39   H44   S    
C54   C58   A    
C86   H64   S    
C85   H61   S    
C53   C57   A    
C76   H37   S    
C28   C31   S    
C25   C33   T    
C43   H42   S    
O14   C66   A    
C90   H74   S    
O14   V3    S    
C35   C39   S    
C29   C30   S    
C40   C45   S    
C12   C13   A    
C79   C80   S    
C6    C22   A    
O3    C4    A    
C83   H58   S    
C75   H36   S    
C27   C28   S    
C64   H14   S    
C58   C59   A    
O6    V2    S    
O9    V2    S    
C72   H28   S    
C23   H8    S    
C78   H46   S    
C87   C88   S    
C41   H43   S    
C24   H7    S    
C36   C44   S    
C88   H69   S    
C74   H32   S    
O2    V1    S    
C73   C74   S    
C8    O28   S    
C2    C48   S    
C81   C82   S    
C19   C22   A    
C84   H59   S    
C7    C11   A    
C36   C40   S    
C26   C34   T    
O21   C69   S    
O18   V4    S    
C61   C64   A    
C37   C45   T    
C80   H49   S    
C20   H20   S    
C49   O24   S    
O1    C2    A    
C80   H51   S    
C12   C16   A    
C52   C54   A    
C56   C57   A    
C74   H33   S    
C73   H31   S    
O5    V1    S    
C47   C50   A    
C69   H22   S    
O8    C3    A    
C71   H27   S    
C58   O27   S    
C78   H45   S    
C35   H11   S    
C20   C21   A    
C88   C89   S    
C70   H24   S    
O7    V2    S    
C57   H13   S    
O4    V1    S    
O3    V1    S    
V1    O10   S    
C70   H23   S    
O25   C81   S    
O17   V4    S    
C76   H38   S    
C36   H10   S    
C42   C46   S    
C47   C65   S    
C92   H79   S    
C35   C42   S    
C82   H55   S    
C23   C27   S    
O19   V4    S    
C30   C34   S    
C41   C42   S    
C91   H75   S    
C6    C21   A    
C69   C70   S    
C62   H19   S    
C24   C28   S    
C39   C40   S    
H12   C44   S    
C92   H78   S    
O28   C90   S    
C25   C68   S    
C17   H3    S    
C72   H29   S    
C49   C53   A    
C77   H39   S    
C56   O26   S    
C88   H68   S    
C9    C10   A    
C23   C30   S    
C77   H40   S    
C28   C33   S    
C51   H18   S    
C31   C32   S    
O22   C72   S    
C38   C66   S    
