data_str_m2_o4_o19_f0_pcu.sym.54
_audit_creation_date              2012-10-26T20:31:22-0400
_audit_creation_method            fapswitch 2.2
_symmetry_space_group_name_H-M    P1
_symmetry_Int_Tables_number       1
_space_group_crystal_system       triclinic
_cell_length_a                    11.688777
_cell_length_b                    10.949761
_cell_length_c                    9.66542
_cell_angle_alpha                 87.596983
_cell_angle_beta                  89.139152
_cell_angle_gamma                 91.102659
_cell_volume                      1235.59855973

loop_
_atom_site_label
_atom_site_type_symbol
_atom_type_description
_atom_site_fract_x
_atom_site_fract_y
_atom_site_fract_z
_atom_type_partial_charge
C1    C     C_R   0.505927 0.262469 0.503040 0.581684
C2    C     C_R   0.401233 0.501054 0.078070 0.057075
C3    C     C_R   0.399299 0.488571 0.932592 0.345553
C4    C     C_R   0.284337 0.500306 0.500574 0.569578
C5    C     C_R   0.597838 0.481267 0.927465 0.150725
C6    C     C_3   0.717470 0.531281 0.914690 0.463740
C7    C     C_3   0.712409 0.552742 0.071419 0.149101
C8    C     C_R   0.497704 0.737411 0.497590 0.561144
C9    C     C_R   0.715663 0.500880 0.498915 0.601556
C10   C     C_1   0.162501 0.500753 0.500825 0.101939
C11   C     C_1   0.059953 0.501140 0.498771 0.067753
C12   C     C_R   0.515630 0.128185 0.509924 -0.024695
C13   C     C_1   0.940090 0.501470 0.496310 0.060228
C14   C     C_1   0.837503 0.501469 0.496432 0.109741
C15   C     C_R   0.458042 0.058339 0.616756 0.011227
C16   C     C_R   0.567670 0.066956 0.399247 0.157179
C17   C     C_R   0.548821 0.940906 0.387671 -0.078759
C18   C     C_R   0.492317 0.871188 0.493220 -0.048455
C19   C     C_R   0.446720 0.931234 0.605579 0.000526
C20   C     C_3   0.465652 0.897914 0.753152 0.147318
C21   C     C_3   0.497447 0.031282 0.764594 0.084914
C22   C     C_R   0.598017 0.488720 0.071023 0.122780
Cu1   Cu    Cu3+1 0.499990 0.499980 0.640670 1.206217
Cu2   Cu    Cu3+1 0.500010 0.500020 0.359330 1.103463
F1    F     F_    0.726309 0.635682 0.828755 -0.597536
H1    H     H_    0.775813 0.502552 0.135043 0.145107
H2    H     H_    0.154189 0.568429 0.908017 0.358902
H3    H     H_    0.925967 0.563371 0.787699 0.367604
H4    H     H_    0.588200 0.895537 0.302840 0.232666
H5    H     H_    0.540011 0.838713 0.774383 0.154716
H6    H     H_    0.592070 0.044213 0.770415 0.102857
H7    H     H_    0.321677 0.501042 0.135961 0.149290
H8    H     H_    0.535181 0.209686 0.171124 0.379542
H9    H     H_    0.598669 0.856128 0.036357 0.390913
H10   H     H_    0.272211 0.770839 0.029279 0.354260
H11   H     H_    0.571523 0.234467 0.891518 0.362593
N1    N     N_R   0.500710 0.500930 0.147930 -0.247280
N2    N     N_R   0.500710 0.500890 0.852020 -0.224727
O1    O     O_R   0.500000 0.319640 0.618810 -0.466687
O2    O     O_2   0.752414 0.044694 0.233125 -0.164352
O3    O     O_3   0.618931 0.220020 0.158995 -0.465987
O4    O     O_2   0.726040 0.725462 0.261837 -0.280790
O5    O     O_2   0.803193 0.779682 0.031218 -0.181736
O6    O     O_3   0.581549 0.769582 0.063999 -0.489678
O7    O     O_2   0.232994 0.913099 0.781556 -0.171512
O8    O     O_2   0.314798 0.712037 0.773869 -0.282243
O9    O     O_3   0.337032 0.826263 0.000586 -0.436138
O10   O     O_2   0.303737 0.112883 0.890163 -0.076918
O11   O     O_2   0.456359 0.037193 0.038497 -0.251223
O12   O     O_R   0.500010 0.319680 0.381230 -0.492015
O13   O     O_3   0.488762 0.245445 0.909101 -0.514598
O14   O     O_2   0.285820 0.326521 0.772692 -0.156209
O15   O     O_2   0.212199 0.350568 0.004611 -0.227779
O16   O     O_3   0.176295 0.524190 0.824652 -0.451435
O17   O     O_2   0.839969 0.333428 0.000654 -0.190534
O18   O     O_2   0.774823 0.334964 0.763292 -0.262466
O19   O     O_3   0.944108 0.479650 0.821930 -0.434893
O20   O     O_R   0.337190 0.499990 0.618790 -0.405665
O21   O     O_R   0.337200 0.500030 0.381210 -0.546720
O22   O     O_R   0.499990 0.680320 0.618770 -0.475210
O23   O     O_R   0.500000 0.680360 0.381190 -0.457035
O24   O     O_R   0.662800 0.499970 0.618790 -0.447063
O25   O     O_R   0.662810 0.500010 0.381210 -0.483552
O26   O     O_2   0.746283 0.224082 0.375302 -0.240964
S1    S     S_3+6 0.675708 0.139171 0.291314 0.099763
S2    S     S_3+6 0.708221 0.711520 0.109828 0.079217
S3    S     S_3+6 0.332544 0.837147 0.826765 0.095516
S4    S     S_3+6 0.430905 0.105359 0.904857 0.122106
S5    S     S_3+6 0.267935 0.418035 0.881755 0.135094
S6    S     S_3+6 0.818893 0.414394 0.874483 0.091269

loop_
_geom_bond_atom_site_label_1
_geom_bond_atom_site_label_2
_ccdc_geom_bond_type
O7    S3    D    
Cu1   O20   S    
C9    C14   S    
C6    S6    S    
C6    C7    S    
C16   S1    S    
O11   S4    D    
O19   S6    S    
C8    C18   S    
Cu1   N2    S    
C21   H6    S    
C1    O12   A    
C20   S3    S    
O6    S2    S    
C19   C20   S    
C12   C15   A    
C15   C21   S    
C8    O23   A    
Cu1   Cu2   S    
H10   O9    S    
O26   S1    D    
C9    O25   A    
C2    C3    A    
H2    O16   S    
H8    O3    S    
O8    S3    D    
C20   H5    S    
C13   C14   T    
C8    O22   A    
C7    S2    S    
C15   C19   A    
Cu1   O22   S    
C11   C13   S    
C2    N1    A    
Cu2   O23   S    
C1    C12   S    
C7    H1    S    
O5    S2    D    
Cu1   O1    S    
C2    H7    S    
C4    O21   A    
O9    S3    S    
C3    S5    S    
Cu2   N1    S    
Cu2   O25   S    
O18   S6    D    
O13   S4    S    
Cu2   O21   S    
C21   S4    S    
Cu2   O12   S    
C5    C6    S    
O2    S1    D    
C6    F1    S    
C10   C11   T    
C1    O1    A    
C4    C10   S    
C9    O24   A    
C7    C22   S    
C17   H4    S    
H11   O13   S    
C5    N2    A    
C20   C21   S    
C17   C18   A    
C18   C19   A    
C4    O20   A    
O4    S2    D    
H9    O6    S    
O16   S5    S    
O17   S6    D    
O3    S1    S    
O14   S5    D    
O15   S5    D    
H3    O19   S    
C22   N1    A    
Cu1   O24   S    
O10   S4    D    
C5    C22   A    
C12   C16   A    
C3    N2    A    
C16   C17   A    
