data_str_m3_o10_o17_f0_pcu.sym.16
_audit_creation_date              2012-12-10T16:52:05-0500
_audit_creation_method            fapswitch 2.2
_symmetry_space_group_name_H-M    P1
_symmetry_Int_Tables_number       1
_space_group_crystal_system       triclinic
_cell_length_a                    7.841007
_cell_length_b                    8.54482
_cell_length_c                    14.882089
_cell_angle_alpha                 91.54955
_cell_angle_beta                  85.963882
_cell_angle_gamma                 93.342018
_cell_volume                      992.671954236

loop_
_atom_site_label
_atom_site_type_symbol
_atom_type_description
_atom_site_fract_x
_atom_site_fract_y
_atom_site_fract_z
_atom_type_partial_charge
C1    C     C_R   0.545265 0.794303 0.498006 0.966031
C2    C     C_R   0.461291 0.644944 0.817460 -0.061551
C3    C     C_R   0.491726 0.489736 0.232218 -0.115767
C4    C     C_R   0.509227 0.510719 0.767616 -0.113927
C5    C     C_R   0.441198 0.622228 0.191679 -0.219348
C6    C     C_R   0.562377 0.379105 0.807908 -0.210036
C7    C     C_R   0.450021 0.629285 0.099061 0.125252
C8    C     C_R   0.561287 0.374715 0.900425 0.123103
C9    C     C_R   0.505239 0.499309 0.046676 0.064303
C10   C     C_R   0.510096 0.506019 0.952855 0.062615
C11   C     C_R   0.553468 0.362166 0.088011 0.044876
C12   C     C_R   0.454783 0.205739 0.502855 0.997938
C13   C     C_R   0.461807 0.643040 0.911517 0.046368
C14   C     C_R   0.405175 0.765056 0.058431 -0.195154
C15   C     C_R   0.606600 0.239190 0.940953 -0.192897
C16   C     C_2   0.600862 0.219077 0.229305 0.887086
C17   C     C_2   0.415721 0.786377 0.770806 0.872314
C18   C     C_2   0.020511 0.410105 0.390039 1.129734
C19   C     C_2   0.979302 0.589632 0.609966 1.157299
C20   C     C_R   0.411454 0.772366 0.965371 -0.179486
C21   C     C_R   0.601853 0.232318 0.033937 -0.177324
C22   C     C_2   0.569138 0.957849 0.497166 -0.327938
C23   C     C_2   0.430980 0.042242 0.504854 -0.306278
C24   C     C_R   0.502862 0.503928 0.672428 0.871758
C25   C     C_R   0.497313 0.496875 0.327530 0.914738
C26   C     C_R   0.548503 0.358264 0.182308 -0.070336
H1    H     H_    0.400394 0.722066 0.232778 0.168041
H2    H     H_    0.489741 0.002742 0.727543 0.334745
H3    H     H_    0.128739 0.239499 0.313474 0.351367
H4    H     H_    0.869355 0.759448 0.686456 0.354221
H5    H     H_    0.600038 0.278321 0.766795 0.161426
H6    H     H_    0.364472 0.865548 0.098719 0.162968
H7    H     H_    0.643953 0.137592 0.900682 0.189805
H8    H     H_    0.374284 0.878952 0.936281 0.169116
H9    H     H_    0.634274 0.123837 0.062534 0.181122
H10   H     H_    0.699900 0.008222 0.489839 0.204863
H11   H     H_    0.300223 0.991878 0.512262 0.207268
H12   H     H_    0.786055 0.071433 0.247948 0.350254
N1    N     N_2   0.950330 0.457950 0.475660 -0.210207
N2    N     N_2   0.049670 0.542050 0.524340 -0.208914
O1    O     O_R   0.389250 0.738570 0.505970 -0.624027
O2    O     O_R   0.765211 0.165718 0.211119 -0.785010
O3    O     O_2   0.274497 0.790943 0.741351 -0.586430
O4    O     O_R   0.534710 0.914002 0.761258 -0.829795
O5    O     O_2   0.015059 0.495323 0.325749 -0.613337
O6    O     O_R   0.085121 0.261506 0.378078 -0.790350
O7    O     O_2   0.985007 0.504388 0.674224 -0.607895
O8    O     O_R   0.913742 0.737855 0.621930 -0.784464
O9    O     O_R   0.610750 0.261430 0.494030 -0.630842
O10   O     O_R   0.678390 0.711620 0.490370 -0.600461
O11   O     O_R   0.321610 0.288380 0.509630 -0.597377
O12   O     O_R   0.355420 0.513510 0.639950 -0.587526
O13   O     O_R   0.644580 0.486490 0.360050 -0.608125
O14   O     O_R   0.644560 0.486560 0.624350 -0.633727
O15   O     O_R   0.355440 0.513440 0.375650 -0.623205
O16   O     O_2   0.500965 0.153235 0.284797 -0.655530
Zn1   Zn    Zn3+2 0.306940 0.517990 0.510420 1.032380
Zn2   Zn    Zn3+2 0.693060 0.482010 0.489580 1.016277

loop_
_geom_bond_atom_site_label_1
_geom_bond_atom_site_label_2
_ccdc_geom_bond_type
C24   O12   A    
C2    C4    A    
C18   N1    S    
C16   O16   D    
H12   O2    S    
C21   H9    S    
C16   O2    S    
C3    C26   A    
C22   H10   S    
C1    O10   A    
C11   C21   A    
C11   C26   A    
C15   C21   A    
H3    O6    S    
O13   Zn2   S    
C20   H8    S    
C17   O3    D    
C12   O9    A    
C17   O4    S    
O1    Zn1   S    
C1    C22   S    
C23   H11   S    
C25   O15   A    
C2    C17   S    
C9    C11   A    
C12   C23   S    
O11   Zn1   S    
C18   O6    S    
C4    C6    A    
C25   O13   A    
C6    H5    S    
C8    C15   A    
C5    C7    A    
O15   Zn1   S    
C16   C26   S    
C4    C24   S    
C19   O7    D    
C19   N2    S    
C24   O14   A    
O12   Zn1   S    
O10   Zn2   S    
C18   O5    D    
C14   C20   A    
C3    C25   S    
C12   O11   A    
O14   Zn2   S    
C8    C10   A    
C9    C10   A    
H4    O8    S    
N1    N2    D    
C7    C9    A    
C2    C13   A    
C22   C23   D    
C6    C8    A    
N2    Zn1   S    
C19   O8    S    
C13   C20   A    
C5    H1    S    
N1    Zn2   S    
C14   H6    S    
H2    O4    S    
C7    C14   A    
O9    Zn2   S    
C1    O1    A    
C15   H7    S    
C3    C5    A    
C10   C13   A    
