data_str_m2_o1_o25_f0_pcu.sym.248
_audit_creation_date              2012-12-10T18:00:49-0500
_audit_creation_method            fapswitch 2.2
_symmetry_space_group_name_H-M    P1
_symmetry_Int_Tables_number       1
_space_group_crystal_system       triclinic
_cell_length_a                    15.853762
_cell_length_b                    10.854338
_cell_length_c                    9.516678
_cell_angle_alpha                 90.658245
_cell_angle_beta                  89.979788
_cell_angle_gamma                 90.336226
_cell_volume                      1637.51351783

loop_
_atom_site_label
_atom_site_type_symbol
_atom_type_description
_atom_site_fract_x
_atom_site_fract_y
_atom_site_fract_z
_atom_type_partial_charge
C1    C     C_R   0.497076 0.261952 0.498779 0.833961
C2    C     C_R   0.497865 0.737748 0.500895 0.836063
C3    C     C_R   0.507857 0.932724 0.376029 -0.326800
C4    C     C_R   0.472738 0.066146 0.621301 -0.319940
C5    C     C_R   0.492685 0.871293 0.501641 -0.200883
C6    C     C_R   0.490632 0.127841 0.495833 -0.208934
C7    C     C_R   0.435365 0.446814 0.073611 -0.033802
C8    C     C_R   0.563375 0.556568 0.926346 0.004424
C9    C     C_R   0.436087 0.444888 0.924948 -0.058175
C10   C     C_R   0.563553 0.556053 0.075092 -0.008886
C11   C     C_R   0.339826 0.500939 0.500004 0.804979
C12   C     C_R   0.660279 0.500019 0.499998 0.833229
C13   C     C_3   0.973107 0.414289 0.586752 -0.299172
C14   C     C_3   0.027719 0.594067 0.412061 -0.308576
C15   C     C_3   0.028795 0.396877 0.455314 0.535890
C16   C     C_3   0.972057 0.611576 0.543751 0.555437
C17   C     C_1   0.250259 0.503834 0.499995 -0.183236
C18   C     C_1   0.750080 0.500145 0.499888 -0.171511
C19   C     C_3   0.028219 0.526898 0.632238 -0.288205
C20   C     C_3   0.972530 0.481618 0.366678 -0.305677
C21   C     C_3   0.083206 0.507283 0.499951 0.077528
C22   C     C_3   0.917458 0.501201 0.499162 0.071487
C23   C     C_1   0.174779 0.506159 0.499907 -0.007130
C24   C     C_1   0.825699 0.500445 0.499633 0.004215
C25   C     C_R   0.501481 0.059460 0.369676 0.475198
C26   C     C_R   0.469786 0.938200 0.623511 0.456880
Cu1   Cu    Cu3+1 0.500000 0.500020 0.640660 0.951924
Cu2   Cu    Cu3+1 0.500000 0.499980 0.359340 0.952779
H1    H     H_    0.949630 0.339729 0.655685 0.150317
H2    H     H_    0.051301 0.668287 0.342724 0.145921
H3    H     H_    0.948299 0.462412 0.259185 0.147774
H4    H     H_    0.052553 0.547086 0.739428 0.149335
H5    H     H_    0.522797 0.882428 0.280244 0.193552
H6    H     H_    0.459549 0.116770 0.717572 0.187313
H7    H     H_    0.383302 0.404497 0.128749 0.114731
H8    H     H_    0.613990 0.602450 0.871123 0.132630
H9    H     H_    0.385014 0.400028 0.868669 0.129371
H10   H     H_    0.614378 0.601407 0.131481 0.125087
N1    N     N_R   0.500020 0.500030 0.852070 -0.167899
N2    N     N_R   0.499980 0.499970 0.147930 -0.154825
O1    O     O_R   0.500000 0.319660 0.618740 -0.582901
O2    O     O_R   0.500000 0.680340 0.381260 -0.597029
O3    O     O_R   0.499990 0.319630 0.381170 -0.552128
O4    O     O_R   0.500010 0.680370 0.618830 -0.543946
O5    O     O_R   0.379080 0.500000 0.618760 -0.595199
O6    O     O_R   0.620920 0.500000 0.381240 -0.578428
O7    O     O_R   0.379080 0.499970 0.381190 -0.589261
O8    O     O_R   0.620920 0.500030 0.618810 -0.579143
O9    O     O_3   0.066627 0.285473 0.411570 -0.612297
C27   C     C_3   0.004437 0.203461 0.359829 0.052493
H11   H     H_    0.974263 0.241545 0.264195 0.145926
H12   H     H_    0.955405 0.185627 0.441156 0.136532
C28   C     C_3   0.046388 0.081401 0.320242 -0.331105
H13   H     H_    0.098460 0.098692 0.244545 0.227017
H14   H     H_    0.073752 0.039622 0.415972 0.210981
C29   C     C_3   0.983581 0.991127 0.253435 -0.936608
H15   H     H_    0.929852 0.973939 0.325641 0.262698
H16   H     H_    0.015443 0.902239 0.230788 0.253137
H17   H     H_    0.959204 0.028465 0.153219 0.263163
O10   O     O_3   0.935432 0.722783 0.591085 -0.609686
C30   C     C_3   0.997610 0.815135 0.612936 0.045238
H18   H     H_    0.975787 0.899403 0.559280 0.175736
H19   H     H_    0.060982 0.792884 0.568696 0.119959
C31   C     C_3   0.006280 0.843773 0.770025 -0.335029
H20   H     H_    0.942866 0.860136 0.816251 0.237132
H21   H     H_    0.034930 0.763770 0.823451 0.210089
C32   C     C_3   0.061294 0.957807 0.795686 -0.939086
H22   H     H_    0.124203 0.945873 0.746123 0.253321
H23   H     H_    0.069936 0.972769 0.910442 0.261331
H24   H     H_    0.030718 0.040490 0.751100 0.262311
O11   O     O_3   0.512005 0.113776 0.240010 -0.588760
C33   C     C_3   0.432019 0.139819 0.181033 0.102705
H25   H     H_    0.443317 0.203063 0.092482 0.171291
H26   H     H_    0.389666 0.188119 0.256987 0.127853
C34   C     C_3   0.387531 0.025046 0.120548 -0.403840
H27   H     H_    0.429859 0.978048 0.044129 0.253682
H28   H     H_    0.371695 0.960107 0.206012 0.211940
C35   C     C_3   0.305634 0.060635 0.047304 -0.930425
H29   H     H_    0.264061 0.112435 0.120782 0.255659
H30   H     H_    0.271373 0.976528 0.012116 0.262393
H31   H     H_    0.319399 0.118424 0.954363 0.251906
O12   O     O_3   0.446948 0.879700 0.746242 -0.594797
C36   C     C_3   0.359549 0.852613 0.741024 0.056742
H32   H     H_    0.339668 0.815335 0.636170 0.115225
H33   H     H_    0.323005 0.937623 0.764186 0.143990
C37   C     C_3   0.338963 0.755007 0.850602 -0.288895
H34   H     H_    0.375850 0.671072 0.826687 0.256520
H35   H     H_    0.357504 0.788586 0.956856 0.216133
C38   C     C_3   0.245388 0.721193 0.850752 -0.962145
H36   H     H_    0.207158 0.801718 0.883602 0.260690
H37   H     H_    0.233980 0.645592 0.926164 0.259370
H38   H     H_    0.224971 0.689560 0.744630 0.261176

loop_
_geom_bond_atom_site_label_1
_geom_bond_atom_site_label_2
_ccdc_geom_bond_type
Cu1   O8    S    
Cu2   O7    S    
C11   O7    A    
C12   O8    A    
C28   H13   S    
Cu2   O6    S    
C17   C23   T    
C18   C24   T    
C14   C21   S    
C13   H1    S    
C19   C21   S    
C8    H8    S    
C35   H30   S    
C6    C25   A    
Cu2   N2    S    
C9    N1    A    
C29   H15   S    
C10   N2    A    
C16   O10   S    
C30   H19   S    
Cu1   O4    S    
C1    O3    A    
Cu1   N1    S    
C27   H12   S    
C7    N2    A    
C25   O11   S    
C8    N1    A    
C38   H37   S    
Cu1   O5    S    
C26   O12   S    
C14   H2    S    
C33   C34   S    
C19   H4    S    
C28   H14   S    
C15   C20   S    
C4    H6    S    
C27   C28   S    
C13   C19   S    
C1    C6    S    
C31   C32   S    
C14   C20   S    
C3    C25   A    
C33   H26   S    
C2    O4    A    
C37   H34   S    
C32   H22   S    
O10   C30   S    
C32   H23   S    
C12   O6    A    
C31   H21   S    
C30   C31   S    
C34   H27   S    
Cu1   O1    S    
C36   H32   S    
C9    H9    S    
C27   H11   S    
C38   H38   S    
C34   H28   S    
C1    O1    A    
C36   H33   S    
C20   C22   S    
O12   C36   S    
C13   C15   S    
C22   C24   S    
C11   O5    A    
C4    C6    A    
C28   C29   S    
C7    C9    A    
C11   C17   S    
C16   C22   S    
C14   C16   S    
C35   H29   S    
C7    H7    S    
C33   H25   S    
C3    C5    A    
C37   C38   S    
C4    C26   A    
Cu2   O3    S    
C29   H17   S    
C10   H10   S    
C32   H24   S    
C31   H20   S    
C21   C23   S    
O11   C33   S    
C35   H31   S    
C2    O2    A    
C16   C19   S    
Cu2   O2    S    
C29   H16   S    
C13   C22   S    
C37   H35   S    
C15   O9    S    
C30   H18   S    
C34   C35   S    
C5    C26   A    
C2    C5    S    
C15   C21   S    
C36   C37   S    
C8    C10   A    
O9    C27   S    
C12   C18   S    
Cu1   Cu2   S    
C3    H5    S    
C38   H36   S    
C20   H3    S    
