data_str_m12_o9_o13_f0_bcu.sym.85
_audit_creation_date              2013-03-05T15:57:57-0500
_audit_creation_method            fapswitch 2.2
_symmetry_space_group_name_H-M    P1
_symmetry_Int_Tables_number       1
_space_group_crystal_system       triclinic
_cell_length_a                    15.080864
_cell_length_b                    15.204919
_cell_length_c                    17.101189
_cell_angle_alpha                 109.219575
_cell_angle_beta                  106.277126
_cell_angle_gamma                 109.1698
_cell_volume                      3148.47482346

loop_
_atom_site_label
_atom_site_type_symbol
_atom_site_description
_atom_site_fract_x
_atom_site_fract_y
_atom_site_fract_z
_atom_type_partial_charge
C1    C     C_R   0.086330 0.291059 0.079169 -0.133471
C2    C     C_R   0.909962 0.723390 0.967024 -0.097929
H1    H     H_    0.163991 0.319507 0.130588 0.119873
H2    H     H_    0.830303 0.707401 0.932177 0.112508
N1    N     N_R   0.055660 0.348550 0.045620 -0.043037
N2    N     N_R   0.944340 0.651450 0.954380 -0.036763
C3    C     C_R   0.936412 0.504121 0.741206 0.311762
C4    C     C_R   0.063263 0.548885 0.264379 0.349540
N3    N     N_R   0.960830 0.507850 0.823700 -0.084966
N4    N     N_R   0.039170 0.492150 0.176300 -0.086950
C5    C     C_R   0.775744 0.202894 0.812423 -0.115707
C6    C     C_R   0.280322 0.784385 0.176619 -0.141559
H3    H     H_    0.765459 0.140086 0.830589 0.100987
H4    H     H_    0.310091 0.836276 0.149374 0.100117
N5    N     N_R   0.811290 0.303410 0.871650 -0.046601
N6    N     N_R   0.188710 0.696590 0.128350 -0.048134
C7    C     C_R   0.263942 0.537029 0.954112 -0.128772
C8    C     C_R   0.699632 0.403654 0.994860 -0.142542
H5    H     H_    0.290303 0.578588 0.918131 0.109980
H6    H     H_    0.671309 0.342529 0.014018 0.105863
N7    N     N_R   0.205200 0.552990 0.997670 -0.041816
N8    N     N_R   0.794800 0.447010 0.002330 -0.042155
C9    C     C_R   0.780746 0.296263 0.735120 -0.113518
C10   C     C_R   0.275604 0.689591 0.251283 -0.075616
H7    H     H_    0.773558 0.318459 0.681256 0.142071
H8    H     H_    0.302530 0.652638 0.289600 0.153750
N9    N     N_R   0.814800 0.361830 0.823700 -0.034041
N10   N     N_R   0.185200 0.638170 0.176300 -0.060096
C11   C     C_R   0.245028 0.433991 0.023011 -0.111428
C12   C     C_R   0.704927 0.501676 0.922165 -0.097165
H9    H     H_    0.246328 0.375732 0.045230 0.113339
H10   H     H_    0.682295 0.534798 0.877704 0.129736
N11   N     N_R   0.201680 0.494570 0.045620 -0.045214
N12   N     N_R   0.798320 0.505430 0.954380 -0.041471
C13   C     C_R   0.110145 0.583262 0.817263 -0.206672
C14   C     C_R   0.889718 0.465871 0.185819 -0.204340
H11   H     H_    0.191755 0.631036 0.837960 0.139539
H12   H     H_    0.807369 0.432468 0.168365 0.136515
N13   N     N_R   0.068420 0.560530 0.871650 -0.058383
N14   N     N_R   0.931580 0.439470 0.128350 -0.059123
C15   C     C_R   0.914084 0.203171 0.997634 -0.132600
C16   C     C_R   0.083050 0.804606 0.052731 -0.115648
H13   H     H_    0.832928 0.148556 0.969804 0.114743
H14   H     H_    0.162230 0.861336 0.101512 0.124933
N15   N     N_R   0.948070 0.295860 0.997670 -0.045146
N16   N     N_R   0.051930 0.704140 0.002330 -0.048835
C17   C     C_R   0.999466 0.198655 0.049096 0.061861
C18   C     C_R   0.997378 0.821015 0.027665 0.029136
C19   C     C_R   0.028488 0.546113 0.734553 -0.097020
C20   C     C_R   0.970851 0.536506 0.271646 -0.096682
C21   C     C_R   0.758562 0.196319 0.726169 0.027430
C22   C     C_R   0.336990 0.782061 0.254312 0.050187
C23   C     C_R   0.290267 0.463147 0.970479 0.041438
C24   C     C_R   0.641841 0.437022 0.946104 0.036953
C25   C     C_R   0.918816 0.939221 0.052130 -0.242053
C26   C     C_R   0.090134 0.097854 0.065027 -0.240664
H15   H     H_    0.853069 0.877612 0.048190 0.137324
H16   H     H_    0.155329 0.156806 0.065764 0.132116
H17   H     H_    0.717348 0.906076 0.934735 0.171987
H18   H     H_    0.288018 0.112425 0.186402 0.171548
C27   C     C_R   0.003615 0.923486 0.046165 0.066642
C28   C     C_R   0.002475 0.110743 0.063321 0.056636
C29   C     C_R   0.091378 0.004917 0.054175 0.062069
C30   C     C_R   0.917215 0.033065 0.061109 0.061266
C31   C     C_R   0.725753 0.974110 0.989530 -0.306576
C32   C     C_R   0.281562 0.058273 0.122638 -0.321728
Ni1   Ni    Ni4+2 0.119340 0.493420 0.109960 0.247183
Ni2   Ni    Ni4+2 0.880660 0.506580 0.890040 0.284572
Ni3   Ni    Ni4+2 0.872590 0.372590 0.000000 0.210598
Ni4   Ni    Ni4+2 0.127410 0.627410 0.000000 0.208981
C33   C     C_R   0.653633 0.085356 0.052593 -0.181647
C34   C     C_R   0.358321 0.975150 0.035205 -0.204689
H19   H     H_    0.450114 0.497882 0.356044 0.128580
H20   H     H_    0.508566 0.375599 0.553574 0.135566
C35   C     C_R   0.473538 0.568003 0.267989 -0.120071
C36   C     C_R   0.510921 0.315652 0.651565 -0.059517
H21   H     H_    0.495498 0.645861 0.318409 0.115354
H22   H     H_    0.530257 0.255700 0.617772 0.126334
C37   C     C_R   0.470895 0.551099 0.181751 -0.129693
C38   C     C_R   0.498415 0.325511 0.731486 -0.148772
H23   H     H_    0.490112 0.616283 0.165847 0.121377
H24   H     H_    0.507923 0.272297 0.758472 0.128766
C39   C     C_R   0.443174 0.450076 0.116263 0.101847
C40   C     C_R   0.474564 0.404068 0.776612 0.092366
C41   C     C_R   0.420344 0.366904 0.138854 -0.188701
C42   C     C_R   0.461670 0.471172 0.739199 -0.164144
H25   H     H_    0.399757 0.288721 0.089372 0.135419
H26   H     H_    0.444085 0.532760 0.772906 0.140392
C43   C     C_R   0.421992 0.384074 0.224842 -0.091811
C44   C     C_R   0.473844 0.460697 0.659009 -0.093526
H27   H     H_    0.402900 0.319569 0.241514 0.151519
H28   H     H_    0.464564 0.513086 0.630953 0.138117
C45   C     C_R   0.448462 0.484548 0.289340 -0.046345
C46   C     C_R   0.498702 0.383223 0.615382 -0.017775
C47   C     C_R   0.521690 0.417301 0.012108 -0.219546
C48   C     C_R   0.380621 0.428303 0.874695 -0.234285
H29   H     H_    0.578680 0.418742 0.068458 0.135208
H30   H     H_    0.323426 0.430132 0.821033 0.131442
C49   C     C_R   0.538334 0.417453 0.936014 0.062939
C50   C     C_R   0.370763 0.439240 0.956016 0.070713
C51   C     C_R   0.464890 0.416839 0.863362 0.035178
C52   C     C_R   0.441132 0.431398 0.024837 0.019433
C53   C     C_R   0.639896 0.993973 0.982846 0.381708
C54   C     C_R   0.369501 0.047885 0.118240 0.364572
C55   C     C_R   0.960755 0.548130 0.354360 0.155462
C56   C     C_R   0.036696 0.542598 0.653077 0.163937
C57   C     C_R   0.020264 0.433286 0.506579 -0.178980
C58   C     C_R   0.976632 0.658959 0.500520 -0.183113
C59   C     C_R   0.040829 0.455160 0.596547 -0.159814
C60   C     C_R   0.960178 0.638232 0.410787 -0.116543
C61   C     C_R   0.018074 0.612392 0.623398 -0.166883
C62   C     C_R   0.973957 0.476863 0.384245 -0.205253
C63   C     C_R   0.997356 0.591260 0.533267 0.181339
C64   C     C_R   0.996282 0.499585 0.474262 0.192311
H31   H     H_    0.975521 0.408195 0.339118 0.123112
H32   H     H_    0.013954 0.678872 0.668703 0.121396
H33   H     H_    0.951551 0.693882 0.386722 0.126641
H34   H     H_    0.053738 0.400765 0.620597 0.126910
H35   H     H_    0.020744 0.363793 0.461960 0.131925
H36   H     H_    0.977211 0.729216 0.544994 0.131334
C65   C     C_R   0.717368 0.100801 0.640058 0.124088
C66   C     C_R   0.445557 0.855951 0.321887 0.087767
C67   C     C_R   0.592737 0.029170 0.394514 -0.162434
C68   C     C_R   0.611909 0.912131 0.554053 -0.191611
C69   C     C_R   0.500861 0.948217 0.318747 -0.125766
C70   C     C_R   0.679839 0.001720 0.637422 -0.149287
C71   C     C_R   0.489993 0.840495 0.396838 -0.269072
C72   C     C_R   0.700875 0.107225 0.557543 -0.268994
C73   C     C_R   0.579150 0.922028 0.473830 0.181181
C74   C     C_R   0.627836 0.018989 0.474433 0.144594
H37   H     H_    0.734452 0.182054 0.557748 0.136262
H38   H     H_    0.450113 0.770102 0.401050 0.137188
H39   H     H_    0.695410 0.993335 0.699501 0.129019
H40   H     H_    0.470102 0.961166 0.260847 0.162040
H41   H     H_    0.630454 0.102743 0.393539 0.181742
H42   H     H_    0.576986 0.837262 0.553815 0.146561
H43   H     H_    0.589338 0.103438 0.048577 0.173498
H44   H     H_    0.424053 0.963773 0.030387 0.185920
C75   C     C_R   0.750791 0.154598 0.128071 -0.112264
C76   C     C_R   0.261938 0.916130 0.957663 -0.119177
H45   H     H_    0.760562 0.224701 0.181461 0.152764
H46   H     H_    0.254355 0.860791 0.893940 0.165340
C77   C     C_R   0.836041 0.135159 0.133558 -0.152350
C78   C     C_R   0.175063 0.927376 0.962455 -0.148970
H47   H     H_    0.911708 0.191441 0.190787 0.126305
H48   H     H_    0.100481 0.880248 0.902319 0.129440
C79   C     C_R   0.824568 0.045883 0.063277 0.072045
C80   C     C_R   0.183852 0.996484 0.045776 0.068775
N17   N     N_R   0.837524 0.490683 0.684910 0.214993
O1    O     O_R   0.772369 0.499334 0.719529 -0.440038
O2    O     O_R   0.810650 0.467076 0.598612 -0.410564
N18   N     N_R   0.159847 0.582534 0.338817 0.214899
O3    O     O_R   0.192639 0.661929 0.418011 -0.398827
O4    O     O_R   0.207267 0.524638 0.331505 -0.450943
N19   N     N_R   0.540492 0.923690 0.904121 0.229046
O5    O     O_R   0.467455 0.951951 0.887765 -0.432748
O6    O     O_R   0.523463 0.832368 0.846118 -0.412277
N20   N     N_R   0.468951 0.109752 0.197860 0.220320
O7    O     O_R   0.549856 0.098139 0.194876 -0.451280
O8    O     O_R   0.479206 0.177063 0.274676 -0.426032

loop_
_geom_bond_atom_site_label_1
_geom_bond_atom_site_label_2
_geom_bond_distance
_ccdc_geom_bond_type
C69   H40   1.079459 S    
C10   C22   1.380905 A    
C12   H10   1.080618 S    
C55   C60   1.396521 A    
N6    N10   1.391846 A    
C39   C52   1.483576 S    
C4    C20   1.390459 A    
N19   O6    1.301585 A    
C5    H3    1.075940 S    
C58   H36   1.083943 S    
C75   C77   1.396148 A    
H19   C45   1.082331 S    
C38   C40   1.408023 A    
C17   C28   1.447678 S    
C62   C64   1.373080 A    
C33   H43   1.081957 S    
N4    Ni1   1.875418 S    
C77   C79   1.404338 A    
C12   C24   1.381381 A    
N11   Ni1   1.875424 S    
N1    Ni1   1.845994 S    
C1    N1    1.324452 A    
C13   H11   1.080323 S    
C36   H22   1.082667 S    
C73   C74   1.409809 A    
N17   O2    1.300568 A    
C47   C49   1.393228 A    
C67   C69   1.391857 A    
N7    N11   1.391844 A    
C11   N11   1.314508 A    
N3    N13   1.383787 A    
C8    H6    1.082501 S    
N4    N14   1.383789 A    
C16   N16   1.316138 A    
C66   C71   1.402645 A    
C27   C29   1.419161 A    
H20   C46   1.082398 S    
C71   H38   1.079243 S    
C28   C30   1.412666 A    
N9    Ni2   1.845638 S    
C36   C46   1.396918 A    
C3    N17   1.434642 S    
N5    N9    1.391846 A    
C77   H47   1.083303 S    
C9    C21   1.388856 A    
C6    N6    1.340219 A    
C70   H39   1.080504 S    
C26   H16   1.084957 S    
C48   H30   1.084322 S    
C13   C19   1.370012 A    
C20   C55   1.424433 S    
C61   H32   1.085598 S    
C9    N9    1.336300 A    
C43   H27   1.082032 S    
C10   N10   1.331999 A    
N8    Ni3   1.877916 S    
C32   C80   1.404915 A    
C67   C74   1.399856 A    
C47   C52   1.363018 A    
C78   C80   1.403179 A    
C34   H44   1.080923 S    
H18   C32   1.083145 S    
C48   C51   1.394389 A    
N20   O8    1.301553 A    
C40   C51   1.486648 S    
C15   H13   1.076964 S    
C2    N2    1.338504 A    
C16   H14   1.075750 S    
N5    Ni3   1.866191 S    
C60   H33   1.083434 S    
C57   H35   1.084457 S    
C6    C22   1.382428 A    
C59   H34   1.084376 S    
C44   C46   1.397487 A    
C56   C61   1.390363 A    
C41   H25   1.083364 S    
C23   C50   1.437317 S    
N8    N12   1.391847 A    
N14   Ni3   1.866820 S    
C12   N12   1.334930 A    
N15   Ni3   1.877614 S    
C36   C38   1.397934 A    
C14   N14   1.334191 A    
N10   Ni1   1.845640 S    
N6    Ni4   1.866189 S    
C3    C19   1.379452 A    
C65   C72   1.404492 A    
C38   H24   1.083108 S    
C42   C44   1.398644 A    
N12   Ni2   1.875425 S    
C37   H23   1.083188 S    
C41   C43   1.397735 A    
C1    C17   1.375660 A    
C68   H42   1.084110 S    
C33   C75   1.397651 A    
C34   C54   1.406164 A    
C2    C18   1.397059 A    
N1    N15   1.383787 A    
C7    N7    1.338140 A    
C67   H41   1.083951 S    
C1    H1    1.082398 S    
C58   C63   1.401282 A    
C13   N13   1.333171 A    
C71   C73   1.384404 A    
C57   C64   1.395219 A    
C32   C54   1.405361 A    
C44   H28   1.082369 S    
C25   C30   1.393063 A    
C50   C52   1.414538 A    
C15   C17   1.378340 A    
C26   C29   1.370522 A    
C61   C63   1.383705 A    
C16   C18   1.373659 A    
C35   H21   1.079354 S    
C78   H48   1.083177 S    
C39   C41   1.406178 A    
C55   C62   1.387209 A    
N18   O4    1.301182 A    
C5    N5    1.336964 A    
C25   H15   1.084516 S    
C30   C79   1.481434 S    
N20   O7    1.301128 A    
C21   C65   1.466408 S    
C26   C28   1.392532 A    
C24   C49   1.437067 S    
C31   C79   1.405167 A    
C31   C53   1.406193 A    
C72   H37   1.081169 S    
C7    C23   1.391240 A    
C29   C80   1.483081 S    
C14   C20   1.377417 A    
C35   C45   1.397779 A    
C68   C70   1.387024 A    
C63   C64   1.418249 A    
C53   N19   1.439146 S    
C3    N3    1.330950 A    
C33   C53   1.406241 A    
N2    N16   1.383788 A    
C49   C51   1.408782 A    
C8    N8    1.315730 A    
C76   C78   1.396620 A    
C40   C42   1.406596 A    
C4    N18   1.430460 S    
C72   C74   1.389161 A    
C22   C66   1.467966 S    
C47   H29   1.085008 S    
C19   C56   1.418312 S    
C76   H46   1.082525 S    
C48   C50   1.401293 A    
N7    Ni4   1.877916 S    
C66   C69   1.404592 A    
C14   H12   1.080519 S    
C6    H4    1.080650 S    
N3    Ni2   1.875416 S    
C65   C70   1.404617 A    
C11   H9    1.076232 S    
N17   O1    1.301140 A    
H17   C31   1.083209 S    
C37   C39   1.404170 A    
C75   H45   1.082675 S    
C10   H8    1.073805 S    
C18   C27   1.448808 S    
C57   C59   1.379074 A    
C11   C23   1.369744 A    
C2    H2    1.081163 S    
C25   C27   1.400388 A    
N2    Ni2   1.845993 S    
C7    H5    1.078931 S    
N13   Ni4   1.866821 S    
C58   C60   1.390140 A    
C68   C73   1.397745 A    
C42   H26   1.083012 S    
C9    H7    1.070924 S    
C43   C45   1.397536 A    
N16   Ni4   1.877616 S    
C5    C21   1.387271 A    
C8    C24   1.368849 A    
C34   C76   1.398549 A    
N18   O3    1.300825 A    
C4    N4    1.332996 A    
N19   O5    1.301294 A    
C15   N15   1.331826 A    
C35   C37   1.397631 A    
C62   H31   1.087250 S    
C54   N20   1.440017 S    
C56   C59   1.395703 A    
