data_str_m3_o1_o7_f0_pcu.sym.83
_audit_creation_date              2012-12-10T18:58:43-0500
_audit_creation_method            fapswitch 2.2
_symmetry_space_group_name_H-M    P1
_symmetry_Int_Tables_number       1
_space_group_crystal_system       triclinic
_cell_length_a                    10.700717
_cell_length_b                    9.818957
_cell_length_c                    17.52418
_cell_angle_alpha                 88.410971
_cell_angle_beta                  89.996032
_cell_angle_gamma                 89.999967
_cell_volume                      1840.55541641

loop_
_atom_site_label
_atom_site_type_symbol
_atom_type_description
_atom_site_fract_x
_atom_site_fract_y
_atom_site_fract_z
_atom_type_partial_charge
C1    C     C_R   0.260186 0.500000 0.500000 1.062113
C2    C     C_R   0.502891 0.497840 0.647435 1.075052
C3    C     C_R   0.872712 0.500000 0.499999 -0.402991
C4    C     C_R   0.127903 0.499999 0.499999 -0.402392
C5    C     C_R   0.600381 0.610652 0.840990 0.314935
C6    C     C_R   0.600426 0.389358 0.159001 0.314910
C7    C     C_R   0.541561 0.628028 0.146588 0.279905
C8    C     C_R   0.541520 0.371980 0.853413 0.279901
C9    C     C_R   0.539370 0.617133 0.770317 0.267813
C10   C     C_R   0.539418 0.382870 0.229681 0.267827
C11   C     C_R   0.536514 0.633498 0.226567 0.288368
C12   C     C_R   0.740052 0.500000 0.500000 1.057730
C13   C     C_R   0.536468 0.366505 0.773434 0.288376
C14   C     C_R   0.521747 0.493036 0.731222 -0.326197
C15   C     C_R   0.521790 0.506965 0.268778 -0.326198
C16   C     C_R   0.609775 0.071868 0.500152 0.044171
C17   C     C_R   0.390250 0.928116 0.500263 0.032135
C18   C     C_R   0.390250 0.071885 0.499732 0.032141
C19   C     C_R   0.609775 0.928132 0.499853 0.044171
C20   C     C_R   0.588698 0.490936 0.885587 -0.272264
C21   C     C_R   0.588733 0.509072 0.114405 -0.272266
C22   C     C_1   0.604895 0.497076 0.966044 0.276044
C23   C     C_1   0.604906 0.502928 0.033945 0.276035
C24   C     C_R   0.064100 0.521474 0.430471 0.230818
C25   C     C_R   0.936963 0.508181 0.569961 0.241073
C26   C     C_R   0.936979 0.491817 0.430038 0.241065
C27   C     C_R   0.064084 0.478523 0.569527 0.230812
C28   C     C_R   0.502920 0.502160 0.352565 1.075050
H1    H     H_    0.697768 0.125728 0.500515 0.136214
H2    H     H_    0.373359 0.189956 0.153700 0.365315
H3    H     H_    0.711244 0.877270 0.196502 0.367924
H4    H     H_    0.711177 0.122716 0.803492 0.367929
H5    H     H_    0.174265 0.793753 0.388646 0.348484
H6    H     H_    0.812346 0.769774 0.616525 0.359220
H7    H     H_    0.812373 0.230221 0.383478 0.359215
H8    H     H_    0.174231 0.206240 0.611345 0.348478
H9    H     H_    0.302275 0.874236 0.500919 0.137544
H10   H     H_    0.302275 0.125765 0.499072 0.137546
H11   H     H_    0.697768 0.874271 0.499493 0.136212
H12   H     H_    0.829779 0.882157 0.811830 0.391635
H13   H     H_    0.829833 0.117861 0.188142 0.391638
H14   H     H_    0.338041 0.918367 0.099407 0.402742
H15   H     H_    0.338006 0.081638 0.900620 0.402749
H16   H     H_    0.373289 0.810030 0.846305 0.365312
N1    N     N_R   0.500000 0.857200 0.500000 -0.077832
N2    N     N_R   0.500000 0.142800 0.500000 -0.077832
O1    O     O_R   0.316770 0.614620 0.500000 -0.612572
O2    O     O_2   0.801340 0.689488 0.921152 -0.249866
O3    O     O_3   0.767551 0.817780 0.791619 -0.433399
O4    O     O_2   0.627483 0.149633 0.089662 -0.146267
O5    O     O_2   0.801397 0.310552 0.078826 -0.249853
O6    O     O_3   0.767611 0.182246 0.208358 -0.433383
O7    O     O_2   0.582653 0.852974 0.059979 -0.164192
O8    O     O_2   0.411921 0.704986 0.020327 -0.303480
O9    O     O_3   0.375346 0.853904 0.137456 -0.410755
O10   O     O_2   0.582606 0.147040 0.940024 -0.164222
O11   O     O_2   0.411882 0.295041 0.979688 -0.303478
O12   O     O_R   0.683230 0.385380 0.500000 -0.613256
O13   O     O_3   0.375297 0.146112 0.862567 -0.410754
O14   O     O_2   0.559982 0.855871 0.691210 -0.152387
O15   O     O_2   0.351624 0.754193 0.696235 -0.255901
O16   O     O_3   0.432885 0.867602 0.816574 -0.402455
O17   O     O_2   0.560038 0.144135 0.308787 -0.152384
O18   O     O_2   0.351672 0.245795 0.303769 -0.255908
O19   O     O_3   0.432959 0.132392 0.183428 -0.402446
O20   O     O_2   0.445504 0.850170 0.300175 -0.137216
O21   O     O_2   0.658616 0.780875 0.333389 -0.290692
O22   O     O_3   0.625045 0.909152 0.206338 -0.377101
O23   O     O_R   0.683230 0.614620 0.500000 -0.613255
O24   O     O_2   0.445451 0.149840 0.699831 -0.137208
O25   O     O_2   0.658572 0.219115 0.666609 -0.290697
O26   O     O_3   0.624975 0.090843 0.793662 -0.377088
O27   O     O_2   0.218470 0.484659 0.311812 -0.233009
O28   O     O_2   0.047336 0.645370 0.289492 -0.172692
O29   O     O_3   0.232298 0.722807 0.370774 -0.508353
O30   O     O_2   0.797148 0.450149 0.693748 -0.256537
O31   O     O_2   0.959074 0.622438 0.708493 -0.169580
O32   O     O_3   0.760865 0.691303 0.634314 -0.518413
O33   O     O_2   0.797190 0.549841 0.306250 -0.256522
O34   O     O_R   0.316770 0.385380 0.500000 -0.612571
O35   O     O_2   0.959121 0.377553 0.291507 -0.169576
O36   O     O_3   0.760896 0.308691 0.365687 -0.518407
O37   O     O_2   0.218431 0.515327 0.688187 -0.233005
O38   O     O_2   0.047288 0.354622 0.710505 -0.172687
O39   O     O_3   0.232263 0.277181 0.629221 -0.508345
O40   O     O_R   0.500010 0.614710 0.389120 -0.550353
O41   O     O_R   0.499990 0.385290 0.610880 -0.550353
O42   O     O_R   0.499990 0.614710 0.610880 -0.554640
O43   O     O_R   0.500010 0.385290 0.389120 -0.554640
O44   O     O_2   0.627409 0.850385 0.910321 -0.146247
S1    S     S_3+6 0.700454 0.744794 0.869235 0.162157
S2    S     S_3+6 0.863863 0.566658 0.654555 0.094343
S3    S     S_3+6 0.863898 0.433335 0.345444 0.094354
S4    S     S_3+6 0.139918 0.407801 0.652514 0.111407
S5    S     S_3+6 0.700514 0.255229 0.130747 0.162148
S6    S     S_3+6 0.478449 0.762257 0.087861 0.133920
S7    S     S_3+6 0.478405 0.237759 0.912149 0.133896
S8    S     S_3+6 0.469924 0.775720 0.740464 0.173918
S9    S     S_3+6 0.469981 0.224277 0.259536 0.173918
S10   S     S_3+6 0.565611 0.794763 0.269347 0.175233
S11   S     S_3+6 0.565558 0.205237 0.730654 0.175234
S12   S     S_3+6 0.139953 0.592189 0.347483 0.111397
Zn1   Zn    Zn3+2 0.500000 0.653120 0.500000 1.121793
Zn2   Zn    Zn3+2 0.500000 0.346880 0.500000 1.121796

loop_
_geom_bond_atom_site_label_1
_geom_bond_atom_site_label_2
_ccdc_geom_bond_type
C12   O23   A    
O31   S2    D    
C8    C13   A    
O15   S8    D    
C8    S7    S    
O42   Zn1   S    
C15   C28   S    
O24   S11   D    
H4    O26   S    
C5    C20   A    
C7    C11   A    
C7    S6    S    
C9    S8    S    
O34   Zn2   S    
C24   C26   A    
O33   S3    D    
O14   S8    D    
C10   C15   A    
C4    C24   A    
O4    S5    D    
O26   S11   S    
H12   O3    S    
O6    S5    S    
O20   S10   D    
O17   S9    D    
C3    C12   S    
N1    Zn1   S    
O16   S8    S    
C11   C15   A    
H5    O29   S    
O18   S9    D    
O2    S1    D    
O29   S12   S    
C2    O42   A    
C28   O43   A    
H13   O6    S    
O8    S6    D    
H15   O13   S    
O28   S12   D    
C12   O12   A    
C26   S3    S    
O25   S11   D    
O36   S3    S    
C13   C14   A    
O7    S6    D    
O10   S7    D    
O3    S1    S    
O40   Zn1   S    
C18   N2    A    
H7    O36   S    
O23   Zn1   S    
H3    O22   S    
O1    Zn1   S    
C3    C25   A    
O19   S9    S    
C16   N2    A    
C1    O1    A    
O38   S4    D    
O32   S2    S    
C16   H1    S    
C7    C21   A    
C6    C21   A    
N2    Zn2   S    
C11   S10   S    
C9    C14   A    
O22   S10   S    
C5    C9    A    
H14   O9    S    
O35   S3    D    
O39   S4    S    
O11   S7    D    
C17   C18   A    
C2    O41   A    
C17   H9    S    
C5    S1    S    
C19   H11   S    
O21   S10   D    
O30   S2    D    
O27   S12   D    
C8    C20   A    
C20   C22   S    
C21   C23   S    
O43   Zn2   S    
C28   O40   A    
O13   S7    S    
O12   Zn2   S    
C13   S11   S    
C4    C27   A    
C25   S2    S    
C3    C26   A    
C17   N1    A    
O9    S6    S    
C6    C10   A    
C19   N1    A    
H8    O39   S    
C25   C27   A    
C1    C4    S    
H16   O16   S    
C18   H10   S    
H6    O32   S    
O37   S4    D    
O44   S1    D    
C16   C19   A    
C24   S12   S    
C10   S9    S    
C2    C14   S    
H2    O19   S    
O41   Zn2   S    
C6    S5    S    
C1    O34   A    
C22   C23   T    
C27   S4    S    
O5    S5    D    
