data_str_m2_o10_o29_f0_pcu.sym.34
_audit_creation_date              2012-10-26T20:17:38-0400
_audit_creation_method            fapswitch 2.2
_symmetry_space_group_name_H-M    P1
_symmetry_Int_Tables_number       1
_space_group_crystal_system       triclinic
_cell_length_a                    27.798162
_cell_length_b                    8.896973
_cell_length_c                    7.519942
_cell_angle_alpha                 101.9031
_cell_angle_beta                  94.822721
_cell_angle_gamma                 96.182894
_cell_volume                      1798.42088107

loop_
_atom_site_label
_atom_site_type_symbol
_atom_type_description
_atom_site_fract_x
_atom_site_fract_y
_atom_site_fract_z
_atom_type_partial_charge
C1    C     C_R   0.497827 0.200516 0.454357 0.567968
C2    C     C_R   0.868553 0.335105 0.436813 0.002752
C3    C     C_R   0.355159 0.515055 0.502372 -0.006027
C4    C     C_R   0.644841 0.484947 0.497627 -0.006029
C5    C     C_R   0.970975 0.351563 0.444175 -0.001851
C6    C     C_R   0.029025 0.648437 0.555819 -0.001851
C7    C     C_R   0.977492 0.637058 0.523341 0.053605
C8    C     C_R   0.022507 0.362942 0.476653 0.053605
C9    C     C_R   0.948859 0.489257 0.480049 -0.002051
C10   C     C_R   0.051141 0.510743 0.519945 -0.002051
C11   C     C_R   0.940405 0.210115 0.363836 0.213861
C12   C     C_R   0.502173 0.799484 0.545642 0.567966
C13   C     C_R   0.059594 0.789885 0.636160 0.213861
C14   C     C_R   0.889721 0.200318 0.371207 0.274349
C15   C     C_R   0.110279 0.799683 0.628789 0.274350
C16   C     C_R   0.407630 0.500903 0.500452 0.591496
C17   C     C_R   0.592370 0.499098 0.499547 0.591499
C18   C     C_R   0.046496 0.231926 0.481995 -0.043855
C19   C     C_R   0.953504 0.768074 0.517999 -0.043855
C20   C     C_2   0.496628 0.033181 0.427674 0.243504
C21   C     C_2   0.503372 0.966819 0.572325 0.243503
C22   C     C_R   0.176169 0.397255 0.529134 0.421475
C23   C     C_R   0.102570 0.520333 0.532625 -0.078790
C24   C     C_R   0.823831 0.602745 0.470859 0.421474
C25   C     C_R   0.181255 0.667491 0.537985 0.496848
C26   C     C_R   0.818744 0.332510 0.462013 0.496848
C27   C     C_R   0.290113 0.644692 0.641172 0.308578
C28   C     C_R   0.709886 0.355305 0.358830 0.308574
C29   C     C_R   0.339780 0.640163 0.621474 0.164002
C30   C     C_R   0.660219 0.359835 0.378530 0.163997
C31   C     C_R   0.320088 0.404786 0.385521 0.183918
C32   C     C_R   0.679912 0.595219 0.614471 0.183913
C33   C     C_R   0.270931 0.430128 0.379988 -0.105487
C34   C     C_R   0.897430 0.479667 0.467369 -0.078790
C35   C     C_R   0.729069 0.569878 0.620005 -0.105487
C36   C     C_R   0.255038 0.540023 0.516207 0.150726
C37   C     C_R   0.744961 0.459978 0.483791 0.150724
C38   C     C_3   0.301974 0.139527 0.287088 0.000189
C39   C     C_3   0.328155 0.998190 0.252756 -0.348261
C40   C     C_3   0.698025 0.860479 0.712874 0.000195
C41   C     C_3   0.671846 0.001820 0.747212 -0.348260
C42   C     C_3   0.414620 0.308374 0.973384 0.064832
C43   C     C_3   0.381360 0.205631 0.813542 -0.345490
C44   C     C_3   0.585380 0.691626 0.026613 0.064831
C45   C     C_R   0.125276 0.385284 0.516996 0.039850
C46   C     C_3   0.618641 0.794367 0.186456 -0.345490
C47   C     C_3   0.447747 0.936415 0.155998 0.026551
C48   C     C_3   0.416957 0.785374 0.163129 -0.322960
C49   C     C_3   0.552255 0.063581 0.844000 0.026553
C50   C     C_3   0.583043 0.214630 0.836882 -0.322952
C51   C     C_R   0.874724 0.614716 0.482998 0.039850
C52   C     C_R   0.096880 0.242190 0.496427 -0.036442
C53   C     C_R   0.903120 0.757810 0.503566 -0.036442
C54   C     C_R   0.131447 0.664896 0.563183 0.002751
Cl1   Cl    Cl    0.617697 0.201375 0.267487 -0.696523
Cl2   Cl    Cl    0.382302 0.798621 0.732524 -0.696527
Cl3   Cl    Cl    0.726975 0.225559 0.170708 -0.519683
Cl4   Cl    Cl    0.273023 0.774433 0.829296 -0.519690
Cl5   Cl    Cl    0.852380 0.025901 0.261774 -0.418666
Cl6   Cl    Cl    0.147619 0.974099 0.738222 -0.418668
Cl7   Cl    Cl    0.961939 0.057245 0.212489 -0.507450
Cl8   Cl    Cl    0.038060 0.942755 0.787505 -0.507449
Cu1   Cu    Cu3+1 0.505380 0.517380 0.684380 1.065331
Cu2   Cu    Cu3+1 0.494620 0.482620 0.315620 1.065333
H1    H     H_    0.244048 0.354719 0.279116 0.169499
H2    H     H_    0.302571 0.892793 0.250673 0.188026
H3    H     H_    0.342543 0.988208 0.118302 0.198878
H4    H     H_    0.712327 0.853808 0.577381 0.192217
H5    H     H_    0.728839 0.877412 0.822345 0.207059
H6    H     H_    0.657460 0.011805 0.881671 0.198880
H7    H     H_    0.697430 0.107215 0.749288 0.188020
H8    H     H_    0.641780 0.990627 0.636454 0.142587
H9    H     H_    0.398608 0.418543 0.010995 0.151175
H10   H     H_    0.415843 0.248628 0.088672 0.181339
H11   H     H_    0.400068 0.108314 0.748232 0.225479
H12   H     H_    0.755952 0.645289 0.720874 0.169502
H13   H     H_    0.347269 0.159501 0.861773 0.177239
H14   H     H_    0.371882 0.272759 0.709569 0.141362
H15   H     H_    0.584156 0.751374 0.911328 0.181337
H16   H     H_    0.601391 0.581457 0.989000 0.151171
H17   H     H_    0.628120 0.727235 0.290424 0.141360
H18   H     H_    0.652731 0.840499 0.138223 0.177243
H19   H     H_    0.599933 0.891681 0.251771 0.225481
H20   H     H_    0.452493 0.938032 0.011693 0.249505
H21   H     H_    0.427660 0.034977 0.206758 0.097285
H22   H     H_    0.380832 0.773111 0.084603 0.162542
H23   H     H_    0.113398 0.136930 0.489333 0.217761
H24   H     H_    0.435133 0.685960 0.101579 0.214406
H25   H     H_    0.410996 0.782326 0.306440 0.155477
H26   H     H_    0.572342 0.965022 0.793228 0.097280
H27   H     H_    0.547509 0.061951 0.988303 0.249501
H28   H     H_    0.564865 0.314038 0.898436 0.214408
H29   H     H_    0.619168 0.226893 0.915410 0.162542
H30   H     H_    0.589006 0.217686 0.693573 0.155480
H31   H     H_    0.886601 0.863070 0.510660 0.217762
H32   H     H_    0.026923 0.120622 0.481935 0.188640
H33   H     H_    0.973077 0.879377 0.518058 0.188640
H34   H     H_    0.271164 0.122597 0.177604 0.207061
H35   H     H_    0.287668 0.146191 0.422574 0.192220
H36   H     H_    0.358219 0.009386 0.363522 0.142584
N1    N     N_R   0.203323 0.536043 0.530725 -0.382113
N2    N     N_R   0.796677 0.463958 0.469271 -0.382113
N3    N     N_2   0.486510 0.456430 0.038510 0.064616
N4    N     N_2   0.513490 0.543570 0.961490 0.064617
O1    O     O_R   0.503500 0.286120 0.619780 -0.460747
O2    O     O_2   0.801734 0.729349 0.462267 -0.455649
O3    O     O_2   0.793208 0.202086 0.486692 -0.376845
O4    O     O_2   0.206792 0.797915 0.513310 -0.376841
O5    O     O_3   0.334497 0.272481 0.281650 -0.593243
O6    O     O_3   0.665504 0.727530 0.718333 -0.593241
O7    O     O_3   0.461460 0.333237 0.919851 -0.438655
O8    O     O_3   0.538540 0.666762 0.080149 -0.438654
O9    O     O_3   0.494704 0.946944 0.250010 -0.547437
O10   O     O_3   0.505297 0.053056 0.749991 -0.547436
O11   O     O_R   0.496500 0.713880 0.380220 -0.460748
O12   O     O_R   0.494410 0.256780 0.308360 -0.492925
O13   O     O_R   0.505590 0.743220 0.691640 -0.492928
O14   O     O_R   0.434810 0.514700 0.655690 -0.464055
O15   O     O_R   0.565190 0.485300 0.344310 -0.464055
O16   O     O_R   0.425720 0.485350 0.344280 -0.549713
O17   O     O_R   0.574280 0.514650 0.655720 -0.549716
O18   O     O_2   0.198266 0.270650 0.537722 -0.455648

loop_
_geom_bond_atom_site_label_1
_geom_bond_atom_site_label_2
_ccdc_geom_bond_type
Cu2   N3    S    
C23   C45   A    
C27   C29   A    
C18   H32   S    
C15   Cl6   S    
C49   H26   S    
C38   H34   S    
C25   N1    A    
C19   H33   S    
C33   H1    S    
C28   Cl3   S    
C43   H14   S    
C14   Cl5   S    
C34   C51   A    
Cu2   O15   S    
C32   O6    S    
Cu2   O12   S    
C38   H35   S    
C35   C37   A    
C5    C11   A    
C16   O16   A    
C37   N2    S    
Cu1   O13   S    
C11   C14   A    
C53   H31   S    
C33   C36   A    
N3    O7    S    
C3    C29   A    
C46   H18   S    
C13   Cl8   S    
C1    C20   S    
C31   C33   A    
C1    O12   A    
Cu1   O1    S    
C41   H7    S    
C12   O11   A    
C19   C53   A    
C24   C51   A    
C49   O10   S    
Cu2   O11   S    
C49   H27   S    
Cu1   O17   S    
C44   C46   S    
C22   O18   S    
C44   H15   S    
C43   H11   S    
C35   H12   S    
C42   H10   S    
C40   H5    S    
C18   C52   A    
C32   C35   A    
C44   H16   S    
C25   C54   A    
N4    O8    S    
Cu1   O14   S    
C50   H30   S    
C40   O6    S    
C45   C52   A    
C12   C21   S    
C8    C18   A    
Cu1   Cu2   S    
C36   N1    S    
C51   C53   A    
C42   O7    S    
C15   C54   A    
C5    C9    A    
C21   O10   S    
C16   O14   A    
C46   H17   S    
C47   C48   S    
C48   H24   S    
C31   O5    S    
C2    C26   A    
C47   H20   S    
C38   O5    S    
C3    C31   A    
C22   N1    A    
C4    C32   A    
C41   H8    S    
C4    C17   S    
C44   O8    S    
C17   O17   A    
C40   C41   S    
C7    C19   A    
C48   H25   S    
C13   C15   A    
C9    C34   A    
C10   C23   A    
C39   H2    S    
C48   H22   S    
C24   O2    S    
C42   C43   S    
C47   H21   S    
C23   C54   A    
C50   H28   S    
C47   O9    S    
C42   H9    S    
C39   H3    S    
C52   H23   S    
Cu1   N4    S    
C11   Cl7   S    
C27   Cl4   S    
C26   O3    S    
C6    C10   A    
C5    C8    A    
C50   H29   S    
C6    C7    A    
C29   Cl2   S    
C27   C36   A    
C43   H13   S    
C30   Cl1   S    
Cu2   O16   S    
C28   C30   A    
C26   N2    A    
C6    C13   A    
C2    C34   A    
C39   H36   S    
C38   C39   S    
C28   C37   A    
C24   N2    A    
C20   O9    S    
C2    C14   A    
C17   O15   A    
C46   H19   S    
C7    C9    A    
C22   C45   A    
C20   C21   D    
C8    C10   A    
C49   C50   S    
C40   H4    S    
N3    N4    D    
C12   O13   A    
C4    C30   A    
C3    C16   S    
C25   O4    S    
C1    O1    A    
C41   H6    S    
