data_str_m3_o14_o14_f0_pcu.sym.65
_audit_creation_date              2012-12-10T17:41:02-0500
_audit_creation_method            fapswitch 2.2
_symmetry_space_group_name_H-M    P1
_symmetry_Int_Tables_number       1
_space_group_crystal_system       triclinic
_cell_length_a                    14.879962
_cell_length_b                    15.29081
_cell_length_c                    9.917968
_cell_angle_alpha                 90.009421
_cell_angle_beta                  89.934828
_cell_angle_gamma                 90.00179
_cell_volume                      2256.60075813

loop_
_atom_site_label
_atom_site_type_symbol
_atom_type_description
_atom_site_fract_x
_atom_site_fract_y
_atom_site_fract_z
_atom_type_partial_charge
C1    C     C_R   0.380690 0.879906 0.500176 0.851736
C2    C     C_R   0.714392 0.221831 0.381437 -0.221741
C3    C     C_R   0.214712 0.278457 0.381419 -0.221735
C4    C     C_R   0.167372 0.765860 0.456063 -0.211884
C5    C     C_R   0.690335 0.818228 0.497156 -0.091047
C6    C     C_R   0.672650 0.199389 0.502683 -0.129844
C7    C     C_R   0.172703 0.300664 0.502584 -0.129719
C8    C     C_R   0.190300 0.681800 0.497232 -0.090902
C9    C     C_R   0.335716 0.999079 0.140129 -0.154772
C10   C     C_R   0.835716 0.500842 0.140129 -0.154904
C11   C     C_R   0.254815 0.998823 0.070049 -0.204143
C12   C     C_R   0.385149 0.124815 0.501227 0.851965
C13   C     C_R   0.754816 0.501042 0.070048 -0.204162
C14   C     C_R   0.254814 0.998467 0.930501 -0.175404
C15   C     C_R   0.754815 0.501403 0.930500 -0.175327
C16   C     C_R   0.335719 0.998473 0.860182 -0.132184
C17   C     C_R   0.835719 0.501461 0.860182 -0.132037
C18   C     C_R   0.419041 0.998781 0.927740 0.129048
C19   C     C_R   0.919041 0.501179 0.927741 0.129107
C20   C     C_R   0.419071 0.999026 0.072323 0.164777
C21   C     C_R   0.919071 0.500932 0.072324 0.164841
C22   C     C_R   0.577193 0.002562 0.072213 -0.159086
C23   C     C_R   0.885156 0.375180 0.501198 0.851940
C24   C     C_R   0.077197 0.497484 0.072205 -0.159060
C25   C     C_R   0.613231 0.125748 0.500471 0.862783
C26   C     C_R   0.620579 0.881074 0.499485 0.857244
C27   C     C_R   0.120561 0.618941 0.499504 0.857285
C28   C     C_R   0.113251 0.374269 0.500443 0.862674
C29   C     C_R   0.577410 0.003208 0.929371 0.008752
C30   C     C_R   0.077415 0.496843 0.929357 0.008759
C31   C     C_R   0.327818 0.215741 0.757769 -0.162649
C32   C     C_R   0.432094 0.704556 0.578850 -0.185293
C33   C     C_R   0.931967 0.795343 0.579863 -0.185527
C34   C     C_R   0.880694 0.620098 0.500191 0.851714
C35   C     C_R   0.828288 0.283894 0.757524 -0.162587
C36   C     C_R   0.279339 0.227238 0.876906 -0.132728
C37   C     C_R   0.456062 0.618307 0.607336 -0.151652
C38   C     C_R   0.955910 0.881563 0.608676 -0.151720
C39   C     C_R   0.780031 0.272271 0.876820 -0.132493
C40   C     C_R   0.892543 0.948120 0.596791 -0.117577
C41   C     C_R   0.689409 0.250740 0.871306 -0.154049
C42   C     C_R   0.188737 0.248806 0.871078 -0.154182
C43   C     C_R   0.392642 0.551775 0.595652 -0.117754
C44   C     C_R   0.804570 0.928360 0.558944 -0.152751
C45   C     C_R   0.287356 0.224018 0.382823 -0.228535
C46   C     C_R   0.649818 0.232306 0.747230 -0.154327
C47   C     C_R   0.149391 0.267411 0.746894 -0.154385
C48   C     C_R   0.304602 0.571586 0.558289 -0.152806
C49   C     C_R   0.778772 0.841077 0.533048 0.088339
C50   C     C_R   0.701044 0.235792 0.626653 0.104206
C51   C     C_R   0.200846 0.264062 0.626523 0.104178
C52   C     C_R   0.278796 0.658894 0.532660 0.088330
C53   C     C_R   0.285431 0.225040 0.630299 0.094157
C54   C     C_R   0.343568 0.725412 0.538681 0.101568
C55   C     C_R   0.843512 0.774539 0.539188 0.101547
C56   C     C_R   0.231425 0.830313 0.457021 -0.217811
C57   C     C_R   0.785651 0.274779 0.630220 0.094106
C58   C     C_R   0.322569 0.196072 0.505868 -0.122839
C59   C     C_R   0.317875 0.810610 0.500545 -0.078877
C60   C     C_R   0.817880 0.689396 0.500581 -0.079019
C61   C     C_R   0.822555 0.303940 0.505768 -0.122796
C62   C     C_1   0.662413 0.010465 0.862032 0.248795
C63   C     C_1   0.162414 0.489681 0.861970 0.248955
C64   C     C_R   0.731533 0.669785 0.456433 -0.217684
C65   C     C_R   0.787059 0.276248 0.382763 -0.228547
C66   C     C_R   0.667493 0.734245 0.455436 -0.211924
H1    H     H_    0.315886 0.204055 0.287022 0.171316
H2    H     H_    0.483336 0.754277 0.587460 0.143641
H3    H     H_    0.983181 0.745608 0.588583 0.143970
H4    H     H_    0.899127 0.298003 0.767092 0.152864
H5    H     H_    0.311617 0.217381 0.973516 0.135454
H6    H     H_    0.524263 0.602959 0.636924 0.139935
H7    H     H_    0.024061 0.896871 0.638641 0.139922
H8    H     H_    0.812495 0.282002 0.973317 0.135314
H9    H     H_    0.911510 0.015200 0.617033 0.140272
H10   H     H_    0.650531 0.245524 0.963284 0.130519
H11   H     H_    0.149686 0.253923 0.962911 0.130647
H12   H     H_    0.213426 0.895976 0.425730 0.133665
H13   H     H_    0.411617 0.484678 0.615690 0.140237
H14   H     H_    0.757378 0.981776 0.548611 0.144016
H15   H     H_    0.579092 0.216005 0.746763 0.143865
H16   H     H_    0.078678 0.283760 0.746176 0.143690
H17   H     H_    0.257365 0.518190 0.548143 0.143980
H18   H     H_    0.599942 0.718618 0.422679 0.148656
H19   H     H_    0.691897 0.196493 0.285147 0.170575
H20   H     H_    0.192444 0.303995 0.285141 0.170616
H21   H     H_    0.099749 0.781550 0.423753 0.148550
H22   H     H_    0.640012 0.005022 0.127167 0.152017
H23   H     H_    0.713598 0.604180 0.424702 0.133722
H24   H     H_    0.140019 0.495063 0.127153 0.151968
H25   H     H_    0.330065 0.999848 0.247042 0.204630
H26   H     H_    0.830065 0.500096 0.247042 0.204576
H27   H     H_    0.191724 0.999154 0.124558 0.150175
H28   H     H_    0.691725 0.500678 0.124557 0.150114
H29   H     H_    0.815375 0.296400 0.286928 0.171365
H30   H     H_    0.191730 0.998751 0.876179 0.148887
H31   H     H_    0.691731 0.501096 0.876178 0.148864
H32   H     H_    0.330091 0.999381 0.753292 0.207092
H33   H     H_    0.830092 0.500610 0.753292 0.207071
H34   H     H_    0.398637 0.201624 0.767620 0.153116
N1    N     N_R   0.498810 1.000000 0.142780 -0.123886
N2    N     N_R   0.998810 0.500000 0.142780 -0.123871
N3    N     N_R   0.498740 1.000000 0.857170 -0.146818
N4    N     N_R   0.998740 0.500000 0.857170 -0.146826
N5    N     N_1   0.731726 0.017217 0.810341 -0.215167
N6    N     N_1   0.231712 0.483018 0.810204 -0.215108
O1    O     O_R   0.408390 0.908380 0.614690 -0.633632
O2    O     O_R   0.591620 0.908390 0.614640 -0.607354
O3    O     O_R   0.091620 0.591610 0.614640 -0.607458
O4    O     O_R   0.091620 0.408390 0.614640 -0.626929
O5    O     O_R   0.591610 0.091610 0.385310 -0.622978
O6    O     O_R   0.591610 0.908390 0.385310 -0.603246
O7    O     O_R   0.091610 0.591610 0.385310 -0.603237
O8    O     O_R   0.091610 0.408390 0.385310 -0.623003
O9    O     O_R   0.408390 0.091620 0.614690 -0.659210
O10   O     O_R   0.908390 0.408380 0.614690 -0.659088
O11   O     O_R   0.908390 0.591620 0.614690 -0.633778
O12   O     O_R   0.408370 0.908380 0.385360 -0.623912
O13   O     O_R   0.408370 0.091620 0.385360 -0.642636
O14   O     O_R   0.908370 0.408380 0.385360 -0.642651
O15   O     O_R   0.908370 0.591620 0.385360 -0.623855
O16   O     O_R   0.591620 0.091610 0.614640 -0.627034
Zn1   Zn    Zn3+2 0.500010 1.000000 0.653130 0.930014
Zn2   Zn    Zn3+2 0.000010 0.500000 0.653130 0.930011
Zn3   Zn    Zn3+2 0.499980 1.000000 0.346870 0.933995
Zn4   Zn    Zn3+2 0.999980 0.500000 0.346870 0.934017

loop_
_geom_bond_atom_site_label_1
_geom_bond_atom_site_label_2
_ccdc_geom_bond_type
C44   C49   A    
C33   C55   A    
C22   C29   A    
C36   C42   A    
O1    Zn1   S    
C4    C8    A    
C2    C65   A    
N3    Zn1   S    
C9    H25   S    
C39   C41   A    
C4    H21   S    
C22   N1    A    
C19   C21   A    
O11   Zn2   S    
C3    C7    A    
C1    C59   S    
O8    Zn4   S    
C11   C14   A    
O14   Zn4   S    
C47   H16   S    
C6    C25   S    
C43   H13   S    
C12   O13   A    
C56   H12   S    
C29   N3    A    
C2    H19   S    
C39   H8    S    
C14   H30   S    
O4    Zn2   S    
C23   O10   A    
C35   H4    S    
C31   H34   S    
O5    Zn3   S    
N1    Zn3   S    
C41   C46   A    
O12   Zn3   S    
C22   H22   S    
C25   O16   A    
C8    C52   A    
C40   C44   A    
C24   N2    A    
C36   H5    S    
C33   H3    S    
C42   C47   A    
C12   O9    A    
C12   C58   S    
C11   H27   S    
C34   O11   A    
C10   H26   S    
C55   C60   A    
C4    C56   A    
C3    H20   S    
C34   C60   S    
C5    C49   A    
C2    C6    A    
C64   H23   S    
C15   H31   S    
C48   H17   S    
C32   C54   A    
C52   C54   A    
C54   C59   A    
C10   C21   A    
C45   C58   A    
O9    Zn1   S    
C44   H14   S    
C26   O2    A    
C23   O14   A    
C62   N5    T    
C47   C51   A    
O7    Zn4   S    
C28   O4    A    
C49   C55   A    
C3    C45   A    
C6    C50   A    
C7    C28   S    
C51   C53   A    
C64   C66   A    
C37   C43   A    
C35   C39   A    
C45   H1    S    
C46   H15   S    
C9    C11   A    
C19   N4    A    
C9    C20   A    
C48   C52   A    
C32   C37   A    
C31   C53   A    
C63   N6    T    
C17   H33   S    
O6    Zn3   S    
C28   O8    A    
C1    O1    A    
N4    Zn2   S    
C21   N2    A    
O13   Zn3   S    
C34   O15   A    
C13   C15   A    
C14   C16   A    
O2    Zn1   S    
C26   O6    A    
C43   C48   A    
C23   C61   S    
C15   C17   A    
C29   C62   S    
O10   Zn2   S    
C50   C57   A    
C5    C66   A    
N2    Zn4   S    
C10   C13   A    
C24   H24   S    
C53   C58   A    
C56   C59   A    
O3    Zn2   S    
C57   C61   A    
C20   N1    A    
C27   O7    A    
C46   C50   A    
C33   C38   A    
C40   H9    S    
C32   H2    S    
C13   H28   S    
C60   C64   A    
C7    C51   A    
O15   Zn4   S    
C41   H10   S    
C38   C40   A    
C18   N3    A    
C16   H32   S    
C17   C19   A    
C18   C20   A    
C1    O12   A    
C24   C30   A    
C25   O5    A    
C66   H18   S    
C5    C26   S    
C61   C65   A    
C65   H29   S    
C27   O3    A    
C42   H11   S    
C16   C18   A    
C35   C57   A    
C37   H6    S    
C30   N4    A    
C8    C27   S    
C31   C36   A    
O16   Zn1   S    
C30   C63   S    
C38   H7    S    
