data_str_m9_o5_o18_f0_sra.sym.70
_audit_creation_date              2012-12-11T17:15:01-0500
_audit_creation_method            fapswitch 2.2
_symmetry_space_group_name_H-M    P1
_symmetry_Int_Tables_number       1
_space_group_crystal_system       triclinic
_cell_length_a                    7.222638
_cell_length_b                    12.164344
_cell_length_c                    21.318171
_cell_angle_alpha                 90.003366
_cell_angle_beta                  91.016714
_cell_angle_gamma                 90.017709
_cell_volume                      1872.69081977

loop_
_atom_site_label
_atom_site_type_symbol
_atom_type_description
_atom_site_fract_x
_atom_site_fract_y
_atom_site_fract_z
_atom_type_partial_charge
O1    O     O_R   0.354460 0.152320 0.595720 -0.533349
O2    O     O_R   0.645540 0.847680 0.404280 -0.533349
O3    O     O_R   0.145540 0.652320 0.404280 -0.533339
O4    O     O_R   0.854460 0.347680 0.595720 -0.533339
O5    O     O_R   0.683670 0.140090 0.727290 -0.538906
O6    O     O_R   0.316330 0.859910 0.272710 -0.538907
O7    O     O_R   0.816330 0.640090 0.272710 -0.538891
O8    O     O_R   0.183670 0.359910 0.727290 -0.538891
O9    O     O_R   0.854010 0.349340 0.727750 -0.536464
O10   O     O_R   0.145990 0.650660 0.272250 -0.536464
O11   O     O_R   0.645990 0.849340 0.272250 -0.536323
O12   O     O_R   0.354010 0.150660 0.727750 -0.536325
C1    C     C_R   0.517082 0.112113 0.746835 0.686070
C2    C     C_R   0.482918 0.887887 0.253165 0.686071
C3    C     C_R   0.982854 0.612102 0.253155 0.686195
C4    C     C_R   0.017145 0.387898 0.746845 0.686195
O13   O     O_R   0.684170 0.139420 0.596190 -0.536076
O14   O     O_R   0.315830 0.860580 0.403810 -0.536076
O15   O     O_R   0.815830 0.639420 0.403810 -0.536126
O16   O     O_R   0.184170 0.360580 0.596190 -0.536126
C5    C     C_R   0.514764 0.113148 0.574446 0.712151
C6    C     C_R   0.485236 0.886852 0.425554 0.712151
C7    C     C_R   0.985216 0.613146 0.425555 0.712124
C8    C     C_R   0.014784 0.386854 0.574445 0.712123
O17   O     O_3   0.520730 0.319480 0.661730 -0.375992
O18   O     O_3   0.479270 0.680520 0.338270 -0.375993
O19   O     O_3   0.979270 0.819480 0.338270 -0.375891
O20   O     O_3   0.020730 0.180520 0.661730 -0.375891
V1    V     V_3+5 0.795560 0.238090 0.661730 1.427265
V2    V     V_3+5 0.204440 0.761910 0.338270 1.427265
V3    V     V_3+5 0.704440 0.738090 0.338270 1.427264
V4    V     V_3+5 0.295560 0.261910 0.661730 1.427264
C9    C     C_R   0.016511 0.466559 0.798400 -0.031568
C10   C     C_R   0.983487 0.533442 0.201600 -0.031568
C11   C     C_R   0.483978 0.966448 0.201587 -0.030798
C12   C     C_R   0.516029 0.033550 0.798412 -0.030804
C13   C     C_R   0.082274 0.647980 0.838583 -0.168786
C14   C     C_R   0.917715 0.352022 0.161416 -0.168785
C15   C     C_R   0.424844 0.148747 0.161641 -0.169036
C16   C     C_R   0.575243 0.851261 0.838361 -0.169036
C17   C     C_R   0.065517 0.575944 0.788131 -0.178469
C18   C     C_R   0.934479 0.424056 0.211869 -0.178468
C19   C     C_R   0.439506 0.076445 0.212029 -0.178799
C20   C     C_R   0.560547 0.923559 0.787972 -0.178793
C21   C     C_R   0.984960 0.428716 0.859069 -0.218135
C22   C     C_R   0.015032 0.571286 0.140930 -0.218138
C23   C     C_R   0.512993 0.928238 0.140839 -0.217883
C24   C     C_R   0.487005 0.071758 0.859161 -0.217889
C25   C     C_R   0.006772 0.499072 0.911498 0.080412
C26   C     C_R   0.993212 0.500930 0.088501 0.080413
C27   C     C_R   0.493497 0.998956 0.088499 0.080837
C28   C     C_R   0.506557 0.001047 0.911502 0.080835
C29   C     C_R   0.055303 0.610387 0.899995 0.130245
C30   C     C_R   0.944681 0.389615 0.100004 0.130249
C31   C     C_R   0.449630 0.110896 0.100156 0.129926
C32   C     C_R   0.550456 0.889111 0.899845 0.129929
C33   C     C_R   0.986027 0.462153 0.974676 0.052828
C34   C     C_R   0.013952 0.537850 0.025323 0.052827
C35   C     C_R   0.512464 0.961898 0.025273 0.053119
C36   C     C_R   0.487611 0.038108 0.974728 0.053121
C37   C     C_R   0.060479 0.647987 0.011093 -0.194788
C38   C     C_R   0.939496 0.352017 0.988906 -0.194783
C39   C     C_R   0.445773 0.148850 0.989103 -0.195314
C40   C     C_R   0.554339 0.851160 0.010899 -0.195311
C41   C     C_R   0.080139 0.683125 0.949750 -0.199406
C42   C     C_R   0.919838 0.316878 0.050249 -0.199401
C43   C     C_R   0.427588 0.184084 0.050492 -0.200247
C44   C     C_R   0.572534 0.815928 0.949510 -0.200241
H1    H     H_    0.117204 0.768185 0.941241 0.139955
H2    H     H_    0.882772 0.231819 0.058758 0.139958
H3    H     H_    0.394169 0.269636 0.059113 0.139548
H4    H     H_    0.605986 0.730381 0.940889 0.139551
H5    H     H_    0.049673 0.656992 0.136576 0.099220
H6    H     H_    0.950322 0.343009 0.863424 0.099220
H7    H     H_    0.455506 0.157866 0.863615 0.098725
H8    H     H_    0.544438 0.842122 0.136383 0.098718
H9    H     H_    0.907479 0.394901 0.258849 0.106756
H10   H     H_    0.092520 0.605099 0.741151 0.106757
H11   H     H_    0.585367 0.894077 0.740907 0.106505
H12   H     H_    0.414697 0.105930 0.259093 0.106504
H13   H     H_    0.083991 0.710079 0.046253 0.129757
H14   H     H_    0.915978 0.289926 0.953746 0.129756
H15   H     H_    0.425038 0.211390 0.954028 0.129897
H16   H     H_    0.575116 0.788625 0.045975 0.129897
C45   C     C_1   0.995787 0.533149 0.478084 -0.177802
C46   C     C_1   0.004213 0.466851 0.521916 -0.177802
C47   C     C_1   0.504187 0.033150 0.521917 -0.177807
C48   C     C_1   0.495813 0.966849 0.478083 -0.177808
H17   H     H_    0.120554 0.732691 0.829742 0.125791
H18   H     H_    0.879433 0.267311 0.170257 0.125792
H19   H     H_    0.390255 0.233971 0.170604 0.125599
H20   H     H_    0.609863 0.766042 0.829398 0.125600

loop_
_geom_bond_atom_site_label_1
_geom_bond_atom_site_label_2
_ccdc_geom_bond_type
C47   C48   T    
C5    C47   S    
O1    C5    A    
C9    C21   A    
O3    C7    A    
C10   C18   A    
C11   C23   A    
C25   C33   A    
C33   C38   A    
C45   C46   T    
C35   C40   A    
C26   C30   A    
C36   C39   A    
C40   C44   A    
O20   V1    S    
O9    C4    A    
C23   H8    S    
C14   C18   A    
O10   C3    A    
O4    C8    A    
O11   C2    A    
C25   C29   A    
C43   H3    S    
O13   V1    S    
C40   H16   S    
C28   C36   A    
C15   C31   A    
O16   C8    A    
C16   C32   A    
O2    C6    A    
C10   C22   A    
C6    C48   S    
C11   C19   A    
C3    C10   S    
O5    C1    A    
O4    V1    S    
O9    V1    S    
C13   C29   A    
C34   C37   A    
O7    C3    A    
C38   H14   S    
O15   V3    S    
C35   C36   A    
O8    C4    A    
O12   V4    S    
O19   V2    S    
C24   H7    S    
C15   H19   S    
O5    V1    S    
C39   C43   A    
O7    V3    S    
C38   C42   A    
O8    V4    S    
C1    C12   S    
C17   H10   S    
C23   C27   A    
C19   H12   S    
C32   C44   A    
O1    V4    S    
O13   C5    A    
C39   H15   S    
O2    V3    S    
C26   C34   A    
O3    V2    S    
O15   C7    A    
C4    C9    S    
O6    C2    A    
O10   V2    S    
C31   C43   A    
C14   C30   A    
C21   C25   A    
C44   H4    S    
C16   H20   S    
O14   V2    S    
O6    V2    S    
C16   C20   A    
C12   C20   A    
C27   C35   A    
C2    C11   S    
C29   C41   A    
O16   V4    S    
C14   H18   S    
O14   C6    A    
O18   V3    S    
C20   H11   S    
C15   C19   A    
C30   C42   A    
C22   C26   A    
C13   H17   S    
C9    C17   A    
C37   H13   S    
C33   C34   A    
C42   H2    S    
O17   V4    S    
C41   H1    S    
C12   C24   A    
C27   C31   A    
C13   C17   A    
O11   V3    S    
C37   C41   A    
C24   C28   A    
O12   C1    A    
C18   H9    S    
C7    C45   S    
C21   H6    S    
C8    C46   S    
C22   H5    S    
C28   C32   A    
