data_str_m12_o9_o24_f0_bcu.sym.67
_audit_creation_date              2012-12-11T17:47:33-0500
_audit_creation_method            fapswitch 2.2
_symmetry_space_group_name_H-M    P1
_symmetry_Int_Tables_number       1
_space_group_crystal_system       triclinic
_cell_length_a                    14.821117
_cell_length_b                    14.891224
_cell_length_c                    15.112626
_cell_angle_alpha                 110.367859
_cell_angle_beta                  109.332432
_cell_angle_gamma                 108.792022
_cell_volume                      2564.74017363

loop_
_atom_site_label
_atom_site_type_symbol
_atom_type_description
_atom_site_fract_x
_atom_site_fract_y
_atom_site_fract_z
_atom_type_partial_charge
C1    C     C_R   0.908458 0.194588 0.993706 -0.124006
C2    C     C_R   0.021968 0.745242 0.932783 -0.118293
C3    C     C_R   0.293390 0.874462 0.290191 0.026458
C4    C     C_R   0.673627 0.203205 0.670691 0.034795
C5    C     C_R   0.327918 0.500072 0.048853 0.018867
C6    C     C_R   0.704179 0.498187 0.077458 0.030897
C7    C     C_R   0.042109 0.496948 0.322241 -0.135579
C8    C     C_R   0.065164 0.499641 0.699601 -0.085145
C9    C     C_R   0.940547 0.860830 0.836774 -0.242264
C10   C     C_R   0.838536 0.960082 0.925502 -0.234246
C11   C     C_R   0.010887 0.051922 0.654567 -0.123640
C12   C     C_R   0.639472 0.796964 0.031299 -0.207385
C13   C     C_R   0.952045 0.997141 0.692487 -0.157615
C14   C     C_R   0.733931 0.849214 0.028435 -0.183406
C15   C     C_R   0.689227 0.272564 0.193869 -0.106546
C16   C     C_R   0.377803 0.793705 0.908965 -0.081887
C17   C     C_R   0.793964 0.349869 0.284203 -0.208184
C18   C     C_R   0.319357 0.698670 0.805809 -0.237648
C19   C     C_R   0.872119 0.317365 0.317490 -0.076937
C20   C     C_R   0.240004 0.691510 0.717000 -0.096563
C21   C     C_R   0.843383 0.206120 0.260564 0.714654
C22   C     C_R   0.223098 0.782314 0.731913 0.762918
C23   C     C_R   0.293534 0.806017 0.201369 -0.129682
C24   C     C_R   0.683379 0.237776 0.773930 -0.135169
C25   C     C_R   0.738262 0.129164 0.170181 -0.313250
C26   C     C_R   0.280649 0.875828 0.835514 -0.321027
C27   C     C_R   0.661525 0.162419 0.136663 -0.181541
C28   C     C_R   0.358090 0.881800 0.923748 -0.203181
C29   C     C_R   0.999495 0.400678 0.508250 -0.150922
C30   C     C_R   0.152742 0.577399 0.518285 -0.124795
C31   C     C_R   0.081969 0.494389 0.609031 0.084765
C32   C     C_R   0.061711 0.489228 0.418540 0.089747
C33   C     C_R   0.160776 0.584334 0.614878 0.052047
C34   C     C_R   0.983142 0.400244 0.413636 0.085095
C35   C     C_R   0.008611 0.996513 0.787024 0.052266
C36   C     C_R   0.741540 0.799762 0.935712 0.088744
C37   C     C_R   0.181826 0.091039 0.795640 0.601913
C38   C     C_R   0.557744 0.643486 0.847969 0.626219
C39   C     C_R   0.113763 0.072171 0.347152 -0.064347
C40   C     C_R   0.714754 0.910267 0.454330 -0.126991
C41   C     C_R   0.218218 0.085491 0.370234 -0.176507
C42   C     C_R   0.660957 0.965184 0.487384 -0.115215
C43   C     C_R   0.270769 0.056668 0.442942 0.110144
C44   C     C_R   0.658462 0.048098 0.464070 0.097441
C45   C     C_R   0.225690 0.407957 0.973199 -0.100873
C46   C     C_R   0.790992 0.590318 0.100347 -0.131877
C47   C     C_R   0.217887 0.015209 0.492692 -0.187978
C48   C     C_R   0.713944 0.077811 0.410626 -0.140393
C49   C     C_R   0.111492 0.997556 0.465757 -0.128041
C50   C     C_R   0.769885 0.024365 0.380180 -0.069677
C51   C     C_R   0.060081 0.027485 0.394364 -0.063322
C52   C     C_R   0.768869 0.939563 0.400504 -0.146078
C53   C     C_R   0.473712 0.133614 0.555745 -0.258526
C54   C     C_R   0.478384 0.020793 0.369160 -0.221745
C55   C     C_R   0.572856 0.137595 0.564157 0.077041
C56   C     C_R   0.378197 0.991191 0.366951 0.061627
C57   C     C_R   0.574157 0.079670 0.467988 0.008550
C58   C     C_R   0.374880 0.058846 0.456409 0.032741
C59   C     C_R   0.125400 0.100877 0.707264 -0.292349
C60   C     C_R   0.551953 0.695948 0.941232 -0.222307
C61   C     C_R   0.830138 0.863431 0.922909 0.062615
C62   C     C_R   0.949417 0.957125 0.838694 0.061190
C63   C     C_R   0.123245 0.041665 0.837132 -0.273012
C64   C     C_R   0.655507 0.695880 0.847091 -0.341241
C65   C     C_R   0.895732 0.823620 0.893648 0.045507
C66   C     C_R   0.908449 0.014912 0.895766 0.052262
C67   C     C_R   0.058145 0.590413 0.314269 0.720747
C68   C     C_R   0.008160 0.408929 0.703708 0.655404
C69   C     C_3   0.507453 0.395780 0.061705 -0.143968
C70   C     C_3   0.535288 0.596734 0.104573 -0.154254
C71   C     C_3   0.437511 0.419928 0.982228 -0.101892
C72   C     C_3   0.605704 0.573041 0.184642 -0.145371
C73   C     C_3   0.431438 0.498592 0.075062 0.162386
C74   C     C_3   0.610641 0.494748 0.090870 0.139634
C75   C     C_3   0.499594 0.474083 0.155309 -0.150625
C76   C     C_3   0.540660 0.517796 0.011285 -0.135922
C77   C     C_R   0.316816 0.592415 0.065055 -0.130955
C78   C     C_R   0.703307 0.408118 0.010776 -0.130541
C79   C     C_R   0.977463 0.407167 0.218505 -0.214186
C80   C     C_R   0.090937 0.591132 0.790424 -0.239634
C81   C     C_R   0.205635 0.808765 0.294625 -0.056363
C82   C     C_R   0.778811 0.242092 0.685489 -0.121873
C83   C     C_R   0.004832 0.199558 0.908430 -0.137679
C84   C     C_R   0.927973 0.745112 0.022125 -0.129233
C85   C     C_R   0.942165 0.132272 0.933377 0.064315
C86   C     C_R   0.941186 0.767914 0.943445 0.059918
H1    H     H_    0.847646 0.165690 0.016092 0.101401
H2    H     H_    0.056177 0.756216 0.882436 0.103175
H3    H     H_    0.968494 0.059316 0.586282 0.180083
H4    H     H_    0.633262 0.835742 0.102665 0.131104
H5    H     H_    0.580681 0.102855 0.066325 0.136823
H6    H     H_    0.400712 0.953538 0.004167 0.135539
H7    H     H_    0.629618 0.298119 0.168417 0.115528
H8    H     H_    0.434669 0.797918 0.979009 0.117897
H9    H     H_    0.814610 0.435123 0.327819 0.152758
H10   H     H_    0.329710 0.627858 0.796109 0.175917
H11   H     H_    0.716132 0.043812 0.125582 0.149597
H12   H     H_    0.262751 0.942442 0.848381 0.173181
H13   H     H_    0.934913 0.333891 0.501853 0.166744
H14   H     H_    0.212525 0.645500 0.521421 0.176044
H15   H     H_    0.863978 0.963452 0.654529 0.130772
H16   H     H_    0.800334 0.929165 0.097267 0.148579
H17   H     H_    0.480153 0.456202 0.214212 0.118868
H18   H     H_    0.558806 0.528352 0.949212 0.153039
H19   H     H_    0.338475 0.830135 0.162601 0.090770
H20   H     H_    0.618027 0.224241 0.792987 0.117253
H21   H     H_    0.167171 0.040407 0.909607 0.135951
H22   H     H_    0.665022 0.660383 0.777484 0.125783
H23   H     H_    0.978090 0.014435 0.374246 0.121673
H24   H     H_    0.809683 0.896235 0.374273 0.104479
H25   H     H_    0.073470 0.094137 0.290811 0.160856
H26   H     H_    0.712571 0.843339 0.468428 0.112421
H27   H     H_    0.257500 0.116648 0.330249 0.118397
H28   H     H_    0.615131 0.938180 0.524597 0.115241
H29   H     H_    0.254914 0.987209 0.544037 0.140934
H30   H     H_    0.709678 0.138731 0.388457 0.111328
H31   H     H_    0.067855 0.958076 0.498100 0.147953
H32   H     H_    0.810751 0.045817 0.337403 0.161440
H33   H     H_    0.472405 0.184782 0.626228 0.131519
H34   H     H_    0.482273 0.977034 0.297785 0.123119
H35   H     H_    0.977659 0.821335 0.798347 0.146522
H36   H     H_    0.791081 0.992413 0.952665 0.131222
H37   H     H_    0.368354 0.357705 0.897960 0.146348
H38   H     H_    0.676879 0.635378 0.267753 0.116670
H39   H     H_    0.496786 0.312989 0.043356 0.135029
H40   H     H_    0.547336 0.680240 0.125002 0.110903
H41   H     H_    0.207130 0.323200 0.938517 0.108488
H42   H     H_    0.818929 0.675017 0.156790 0.106542
H43   H     H_    0.380948 0.677768 0.116059 0.097806
H44   H     H_    0.655832 0.324918 0.990477 0.091076
H45   H     H_    0.953178 0.322254 0.193757 0.161986
H46   H     H_    0.140527 0.676408 0.819494 0.155606
H47   H     H_    0.173538 0.835681 0.346215 0.171312
H48   H     H_    0.803561 0.237330 0.625400 0.152752
H49   H     H_    0.036176 0.180961 0.854766 0.135311
H50   H     H_    0.873516 0.754548 0.052759 0.117829
H51   H     H_    0.170073 0.145938 0.679070 0.151558
H52   H     H_    0.478852 0.656162 0.944443 0.130511
N1    N     N_R   0.947560 0.293820 0.002910 -0.042686
N2    N     N_R   0.052440 0.706180 0.997090 -0.041030
N3    N     N_R   0.208960 0.706170 0.152110 -0.046647
N4    N     N_R   0.791040 0.293830 0.847890 -0.042468
N5    N     N_R   0.154330 0.443160 0.946140 -0.037370
N6    N     N_R   0.845670 0.556840 0.053860 -0.044939
N7    N     N_R   0.002190 0.556820 0.208880 -0.109786
N8    N     N_R   0.997810 0.443180 0.791120 -0.102801
N9    N     N_R   0.210550 0.556810 0.002910 -0.041394
N10   N     N_R   0.789450 0.443190 0.997090 -0.039392
N11   N     N_R   0.945970 0.443180 0.152110 -0.073784
N12   N     N_R   0.054030 0.556820 0.847890 -0.074708
N13   N     N_R   0.151530 0.706170 0.208880 -0.055845
N14   N     N_R   0.848470 0.293830 0.791120 -0.039750
N15   N     N_R   0.004980 0.293810 0.946140 -0.043975
N16   N     N_R   0.995020 0.706190 0.053860 -0.046258
Ni1   Ni    Ni4+2 0.869690 0.369690 0.000000 0.206111
Ni2   Ni    Ni4+2 0.130310 0.630310 0.000000 0.203443
Ni3   Ni    Ni4+2 0.001390 0.369680 0.869810 0.267190
Ni4   Ni    Ni4+2 0.998610 0.630320 0.130190 0.230699
O1    O     O_3   0.294649 0.133563 0.846201 -0.692181
C87   C     C_3   0.323606 0.085576 0.769134 0.136859
H53   H     H_    0.329321 0.129764 0.723480 0.102181
H54   H     H_    0.262635 0.996136 0.710694 0.163639
C88   C     C_3   0.436236 0.097658 0.828438 -0.293420
H55   H     H_    0.498810 0.183443 0.863526 0.177428
H56   H     H_    0.443692 0.081660 0.896252 0.214653
C89   C     C_3   0.457839 0.019815 0.751977 -0.986233
H57   H     H_    0.399016 0.932701 0.719924 0.282699
H58   H     H_    0.542646 0.035409 0.797130 0.264946
H59   H     H_    0.449274 0.033111 0.682516 0.265068
O2    O     O_3   0.467634 0.539854 0.765346 -0.692111
C90   C     C_3   0.454903 0.506650 0.660085 0.191305
H60   H     H_    0.385153 0.420713 0.605645 0.153102
H61   H     H_    0.526415 0.501099 0.655928 0.085871
C91   C     C_3   0.424777 0.577549 0.615681 -0.338754
H62   H     H_    0.354828 0.581817 0.624670 0.218061
H63   H     H_    0.495200 0.662713 0.662451 0.197990
C92   C     C_3   0.392001 0.529194 0.495639 -0.985872
H64   H     H_    0.461088 0.524524 0.484473 0.263420
H65   H     H_    0.371212 0.582570 0.466429 0.270731
H66   H     H_    0.318734 0.445438 0.446069 0.273335
F1    F     F_    0.918441 0.173567 0.290136 -0.751868
F2    F     F_    0.143925 0.776329 0.648724 -0.699315
F3    F     F_    0.108702 0.695506 0.396929 -0.717511
F4    F     F_    0.995332 0.307216 0.650290 -0.731293

loop_
_geom_bond_atom_site_label_1
_geom_bond_atom_site_label_2
_ccdc_geom_bond_type
C16   C28   A    
C75   H17   S    
C90   H60   S    
C1    H1    S    
C80   H46   S    
C54   H34   S    
C18   H10   S    
C3    C23   A    
C88   H55   S    
N6    N10   A    
C66   C85   S    
C65   C86   S    
C47   C49   A    
N8    Ni3   S    
C47   H29   S    
C90   H61   S    
C10   C66   A    
C74   C76   S    
C71   H37   S    
C88   H56   S    
C84   C86   A    
N16   Ni4   S    
N15   Ni3   S    
C14   C36   A    
C71   C76   S    
C4    C24   A    
C14   H16   S    
O2    C90   S    
C59   H51   S    
C23   H19   S    
C30   H14   S    
C11   C13   A    
C2    C86   A    
N4    N14   A    
C69   C71   S    
C91   H62   S    
N7    N11   A    
C8    C80   A    
C43   C58   S    
C39   C51   A    
N8    N12   A    
C84   N16   A    
C42   H28   S    
C49   H31   S    
C24   N4    A    
C92   H65   S    
C67   N7    A    
C9    H35   S    
C31   C33   A    
C27   H5    S    
C17   H9    S    
N10   Ni1   S    
C52   H24   S    
N4    Ni1   S    
C77   N9    A    
C83   H49   S    
C1    N1    A    
C78   N10   A    
C79   N11   A    
C70   H40   S    
C48   C50   A    
C69   H39   S    
C51   H23   S    
N12   Ni2   S    
C72   H38   S    
C89   H58   S    
C73   C75   S    
C42   C44   A    
C72   C75   S    
C11   C59   A    
C63   H21   S    
C37   C63   A    
N5    Ni3   S    
C9    C65   A    
N11   Ni1   S    
C53   C55   A    
C1    C85   A    
C15   C27   A    
C90   C91   S    
C54   C56   A    
C29   H13   S    
C9    C62   A    
N13   Ni4   S    
C88   C89   S    
C39   C41   A    
C71   C73   S    
C62   C66   A    
C46   N6    A    
C49   C51   A    
C40   C52   A    
C6    C74   S    
C5    C45   A    
C29   C34   A    
C13   H15   S    
C32   C34   A    
C82   H48   S    
N5    N9    A    
C76   H18   S    
C87   C88   S    
C3    C81   A    
C3    C56   S    
C11   H3    S    
C50   C52   A    
O1    C87   S    
N1    Ni1   S    
C44   C57   S    
C92   H66   S    
C79   H45   S    
C70   C73   S    
C68   F4    S    
C69   C74   S    
C28   H6    S    
C16   C18   A    
C77   H43   S    
C2    H2    S    
N9    Ni2   S    
C91   C92   S    
C37   C59   A    
C67   F3    S    
C26   H12   S    
C38   C60   A    
C20   C33   S    
C72   C74   S    
C83   C85   A    
C12   C14   A    
C8    C68   A    
C55   C57   A    
C4    C55   S    
C70   C76   S    
C89   H57   S    
C38   O2    S    
C10   C61   A    
C24   H20   S    
C15   H7    S    
C20   C22   A    
C69   C75   S    
N6    Ni4   S    
C36   C61   S    
C68   N8    A    
N3    N13   A    
C7    C79   A    
C25   H11   S    
C15   C17   A    
C21   C25   A    
N14   Ni3   S    
C84   H50   S    
C7    C32   S    
C6    C46   A    
C30   C33   A    
C19   C21   A    
C50   H32   S    
C8    C31   S    
C26   C28   A    
C81   H47   S    
C41   C43   A    
C41   H27   S    
C40   C42   A    
C10   H36   S    
C19   C34   S    
C12   H4    S    
C70   C72   S    
C53   C58   A    
C53   H33   S    
N3    Ni2   S    
C13   C35   A    
C83   N15   A    
C25   C27   A    
C21   F1    S    
C16   H8    S    
C48   H30   S    
C2    N2    A    
C87   H53   S    
C37   O1    S    
C78   H44   S    
C22   F2    S    
C81   N13   A    
C30   C32   A    
N7    Ni4   S    
C40   H26   S    
C43   C47   A    
C45   H41   S    
C39   H25   S    
C17   C19   A    
C56   C58   A    
C80   N12   A    
C35   C62   S    
C18   C20   A    
N2    Ni2   S    
C5    C73   S    
C91   H63   S    
C46   H42   S    
C6    C78   A    
C7    C67   A    
C12   C60   A    
C61   C65   A    
C4    C82   A    
C89   H59   S    
C29   C31   A    
C92   H64   S    
C22   C26   A    
N2    N16   A    
C45   N5    A    
C38   C64   A    
N1    N15   A    
C23   N3    A    
C35   C63   A    
C36   C64   A    
C5    C77   A    
C82   N14   A    
C44   C48   A    
C64   H22   S    
C87   H54   S    
C54   C57   A    
C60   H52   S    
