data_str_m9_o18_o22_f0_sra.sym.108
_audit_creation_date              2013-03-05T15:52:17-0500
_audit_creation_method            fapswitch 2.2
_symmetry_space_group_name_H-M    P1
_symmetry_Int_Tables_number       1
_space_group_crystal_system       triclinic
_cell_length_a                    21.494091
_cell_length_b                    7.296469
_cell_length_c                    14.714825
_cell_angle_alpha                 90.002679
_cell_angle_beta                  74.45319
_cell_angle_gamma                 89.998484
_cell_volume                      2223.30419423

loop_
_atom_site_label
_atom_site_type_symbol
_atom_site_description
_atom_site_fract_x
_atom_site_fract_y
_atom_site_fract_z
_atom_type_partial_charge
O1    O     O_R   0.464160 0.506670 0.130070 -0.569038
O2    O     O_R   0.535840 0.006670 0.869930 -0.569062
O3    O     O_R   0.589710 0.179080 0.006710 -0.553747
O4    O     O_R   0.410290 0.679080 0.993290 -0.553685
C1    C     C_R   0.615184 0.344382 0.006662 0.927014
C2    C     C_R   0.384817 0.844382 0.993333 0.926921
O5    O     O_R   0.467940 0.177220 0.138010 -0.599989
O6    O     O_R   0.532060 0.677220 0.861990 -0.600016
O7    O     O_R   0.413200 0.002810 0.002170 -0.573658
O8    O     O_R   0.586800 0.502810 0.997830 -0.573736
C3    C     C_R   0.456296 0.345425 0.174303 0.934311
C4    C     C_R   0.543707 0.845416 0.825697 0.934181
O9    O     O_3   0.482180 0.337850 0.955280 -0.246157
O10   O     O_3   0.517820 0.837850 0.044720 -0.246238
V1    V     V_3+5 0.503310 0.064600 0.008300 1.281897
V2    V     V_3+5 0.496690 0.564600 0.991700 1.281907
C5    C     C_R   0.571378 0.853582 0.723687 -0.087834
C6    C     C_R   0.428626 0.353613 0.276313 -0.087864
C7    C     C_R   0.927608 0.866173 0.276250 -0.078742
C8    C     C_R   0.072389 0.366114 0.723753 -0.078726
C9    C     C_R   0.558281 0.866984 0.566296 -0.169828
C10   C     C_R   0.441721 0.367266 0.433698 -0.169823
C11   C     C_R   0.531419 0.856899 0.663296 -0.134805
C12   C     C_R   0.468586 0.357198 0.336698 -0.134993
C13   C     C_R   0.638363 0.857571 0.687260 -0.240350
C14   C     C_R   0.361639 0.357373 0.312744 -0.240320
C15   C     C_R   0.667378 0.866644 0.588776 0.086153
C16   C     C_R   0.332622 0.366486 0.411227 0.086099
C17   C     C_R   0.625886 0.872939 0.527851 0.134796
C18   C     C_R   0.374114 0.372962 0.472148 0.135078
C19   C     C_R   0.735928 0.868792 0.549433 0.065104
C20   C     C_R   0.264071 0.368519 0.450573 0.065083
C21   C     C_R   0.762139 0.872439 0.449358 0.031057
C22   C     C_R   0.237861 0.372200 0.550650 0.031202
C23   C     C_R   0.719143 0.884243 0.391869 -0.196283
C24   C     C_R   0.280857 0.384017 0.608137 -0.196319
C25   C     C_R   0.652151 0.885250 0.429687 0.011434
C26   C     C_R   0.347846 0.385157 0.570313 0.011181
C27   C     C_R   0.779232 0.868551 0.606938 -0.195380
C28   C     C_R   0.220767 0.368168 0.393067 -0.195366
C29   C     C_R   0.845569 0.870467 0.568377 -0.249478
C30   C     C_R   0.154430 0.370041 0.431625 -0.249463
C31   C     C_R   0.871865 0.870045 0.471137 0.188399
C32   C     C_R   0.128134 0.369718 0.528866 0.188379
C33   C     C_R   0.830779 0.868221 0.409961 0.125806
C34   C     C_R   0.169220 0.368001 0.590046 0.125761
C35   C     C_R   0.939317 0.872004 0.434596 -0.184979
C36   C     C_R   0.060681 0.371683 0.565403 -0.184952
C37   C     C_R   0.966996 0.872104 0.337599 -0.173061
C38   C     C_R   0.033001 0.371906 0.662399 -0.173110
C39   C     C_R   0.860419 0.861793 0.311670 -0.246328
C40   C     C_R   0.139579 0.361728 0.688341 -0.246180
H1    H     H_    0.833106 0.852670 0.260310 0.106165
H2    H     H_    0.166888 0.352734 0.739714 0.105994
H3    H     H_    0.019069 0.876383 0.310349 0.110467
H4    H     H_    0.980927 0.376172 0.689645 0.110477
H5    H     H_    0.876688 0.871723 0.615474 0.134293
H6    H     H_    0.123311 0.371217 0.384525 0.134289
H7    H     H_    0.525603 0.869453 0.521655 0.139915
H8    H     H_    0.474397 0.369927 0.478336 0.139957
H9    H     H_    0.479409 0.852038 0.691255 0.152573
H10   H     H_    0.520597 0.352525 0.308736 0.152691
H11   H     H_    0.666000 0.851855 0.738325 0.114194
H12   H     H_    0.334004 0.351452 0.261684 0.114250
H13   H     H_    0.736184 0.897317 0.316476 0.144823
H14   H     H_    0.263822 0.397015 0.683537 0.144646
H15   H     H_    0.763816 0.869251 0.682749 0.137691
H16   H     H_    0.236180 0.368831 0.317253 0.137726
H17   H     H_    0.970706 0.874863 0.481246 0.123679
H18   H     H_    0.029292 0.374449 0.518748 0.123674
C41   C     C_3   0.226288 0.711118 0.920412 -0.272423
C42   C     C_3   0.773686 0.211378 0.079710 -0.272586
H19   H     H_    0.228370 0.765879 0.848879 0.154263
H20   H     H_    0.771580 0.266409 0.151206 0.154167
C43   C     C_3   0.297714 0.694109 0.926521 0.319649
C44   C     C_3   0.702268 0.194274 0.073568 0.319746
H21   H     H_    0.329354 0.712766 0.853574 0.063393
H22   H     H_    0.670611 0.213040 0.146499 0.063028
H23   H     H_    0.184335 0.667794 0.110552 0.166894
H24   H     H_    0.815631 0.167437 0.889610 0.167046
H25   H     H_    0.285140 0.722564 0.131950 0.201669
H26   H     H_    0.714847 0.222319 0.868102 0.201647
C45   C     C_3   0.197846 0.813133 0.093679 -0.101721
C46   C     C_3   0.802153 0.312848 0.906357 -0.101608
C47   C     C_3   0.222245 0.045921 0.961190 -0.477544
C48   C     C_3   0.777773 0.546058 0.038656 -0.477291
C49   C     C_3   0.188297 0.858159 0.994277 -0.026049
C50   C     C_3   0.811701 0.358185 0.005728 -0.026230
H27   H     H_    0.202575 0.153990 0.014198 0.183609
H28   H     H_    0.797431 0.653932 0.985529 0.183621
H29   H     H_    0.209841 0.093215 0.896497 0.201742
H30   H     H_    0.790220 0.593634 0.103272 0.201852
C51   C     C_3   0.314312 0.850143 0.989631 -0.261908
C52   C     C_3   0.685687 0.350163 0.010371 -0.262099
C53   C     C_3   0.270127 0.836574 0.092527 -0.410800
C54   C     C_3   0.729877 0.336372 0.907483 -0.410734
C55   C     C_3   0.297070 0.033323 0.947122 0.222212
C56   C     C_3   0.702938 0.533441 0.052796 0.222349
H31   H     H_    0.310661 0.145188 0.988164 0.186619
H32   H     H_    0.689315 0.645226 0.011738 0.186569
H33   H     H_    0.276728 0.962826 0.131400 0.150986
H34   H     H_    0.723304 0.462571 0.868556 0.150916
O11   O     O_R   0.913210 0.208550 0.002110 -0.608612
O12   O     O_R   0.086790 0.708550 0.997890 -0.608633
O13   O     O_R   0.032060 0.539960 0.861980 -0.589744
O14   O     O_R   0.967940 0.039960 0.138020 -0.589763
C57   C     C_R   0.043979 0.372746 0.825576 0.907023
C58   C     C_R   0.956018 0.872758 0.174425 0.907004
O15   O     O_R   0.910290 0.538020 0.993280 -0.593848
O16   O     O_R   0.089710 0.038020 0.006720 -0.593817
O17   O     O_R   0.964160 0.712340 0.130090 -0.583692
O18   O     O_R   0.035840 0.212340 0.869910 -0.583700
C59   C     C_R   0.883589 0.369404 0.001576 0.915618
C60   C     C_R   0.116410 0.869396 0.998428 0.915579
O19   O     O_3   0.017820 0.379210 0.044690 -0.293387
O20   O     O_3   0.982180 0.879210 0.955310 -0.293359
V3    V     V_3+5 0.996690 0.652500 0.991710 1.142045
V4    V     V_3+5 0.003310 0.152500 0.008290 1.142040
N1    N     N_3   0.610395 0.899698 0.368047 -0.181512
H35   H     H_    0.636786 0.891584 0.297270 0.196336
H36   H     H_    0.589583 0.030298 0.377454 0.102102
N2    N     N_3   0.389598 0.399675 0.631953 -0.181851
H37   H     H_    0.363250 0.390655 0.702707 0.196444
H38   H     H_    0.410135 0.530604 0.622885 0.102322
N3    N     N_3   0.196418 0.528416 0.925634 -0.186577
H39   H     H_    0.163349 0.524929 0.884965 0.121630
H40   H     H_    0.173338 0.490649 0.994825 0.169255
N4    N     N_3   0.803549 0.028684 0.074670 -0.186534
H41   H     H_    0.836641 0.025447 0.115310 0.121605
H42   H     H_    0.826608 0.990637 0.005508 0.169334
N5    N     N_R   0.312100 0.511826 0.956970 0.236591
O21   O     O_R   0.283108 0.449361 0.040392 -0.500891
O22   O     O_R   0.359003 0.418401 0.902552 -0.386197
N6    N     N_R   0.687907 0.011922 0.043170 0.236694
O23   O     O_R   0.716928 0.949353 0.959780 -0.501018
O24   O     O_R   0.641006 0.918518 0.097597 -0.386063
N7    N     N_R   0.334023 0.055259 0.847252 0.238166
O25   O     O_R   0.306171 0.047798 0.778891 -0.452695
O26   O     O_R   0.396431 0.074842 0.825601 -0.403774
N8    N     N_R   0.666013 0.555501 0.152677 0.238365
O27   O     O_R   0.693953 0.549340 0.220984 -0.452387
O28   O     O_R   0.603579 0.574552 0.174389 -0.404029
N9    N     N_3   0.155439 0.924025 0.168498 -0.232939
H43   H     H_    0.171209 0.059984 0.164199 0.128896
H44   H     H_    0.158598 0.873825 0.233709 0.105717
N10   N     N_3   0.844594 0.423462 0.831446 -0.232979
H45   H     H_    0.828848 0.559437 0.835598 0.128781
H46   H     H_    0.841454 0.373008 0.766275 0.105708

loop_
_geom_bond_atom_site_label_1
_geom_bond_atom_site_label_2
_geom_bond_distance
_ccdc_geom_bond_type
C45   C49   1.565393 S    
C3    C6    1.460106 S    
C54   H34   1.113272 S    
C15   C17   1.424727 A    
C21   C33   1.433602 A    
C57   O18   1.328501 A    
O1    C3    1.333240 A    
C42   C44   1.566692 S    
O2    C4    1.333236 A    
N4    H41   1.045033 S    
O16   V4    2.030755 S    
C2    O7    1.329625 A    
C1    C52   1.531521 S    
C47   H29   1.110140 S    
O15   V3    2.030796 S    
C35   C37   1.391373 A    
C52   C56   1.561909 S    
O5    C3    1.335060 A    
N7    O26   1.300852 A    
C5    C11   1.391798 A    
C42   N4    1.472714 S    
C6    C12   1.391769 A    
O11   C59   1.336248 A    
C44   H22   1.114440 S    
C9    H7    1.082813 S    
C10   H8    1.082786 S    
H25   C53   1.110416 S    
C48   C50   1.567212 S    
C33   C39   1.416334 A    
N9    H43   1.044768 S    
C34   C40   1.416361 A    
O20   V3    1.791669 S    
C18   C26   1.405712 A    
C13   H11   1.076345 S    
C50   C59   1.532115 S    
C43   H21   1.114420 S    
C14   H12   1.076322 S    
C35   H17   1.084028 S    
C49   C60   1.532100 S    
C8    C38   1.394031 A    
C44   C52   1.569486 S    
C43   N5    1.462744 S    
C16   C18   1.424694 A    
H23   C45   1.109933 S    
C6    C14   1.395506 A    
C4    C5    1.460110 S    
C12   H10   1.083356 S    
C19   C21   1.428955 A    
C22   C34   1.433609 A    
O16   C60   1.349235 A    
C22   C24   1.412859 A    
H24   C46   1.109973 S    
C8    C57   1.459347 S    
C7    C58   1.459376 S    
O19   V4    1.791638 S    
C36   C38   1.391378 A    
C42   C50   1.588550 S    
C51   C53   1.559936 S    
O14   V4    2.029427 S    
O13   V3    2.029339 S    
C30   H6    1.084584 S    
C30   C32   1.390451 A    
C55   N7    1.480013 S    
C55   H31   1.100372 S    
C40   H2    1.076179 S    
N10   H46   1.046132 S    
C47   C49   1.567179 S    
H26   C54   1.110419 S    
C15   C19   1.431474 A    
C16   C20   1.431483 A    
N8    O27   1.302504 A    
C42   H20   1.115578 S    
C48   H28   1.110044 S    
C36   H18   1.084064 S    
C41   H19   1.115524 S    
C44   N6    1.462753 S    
N6    O24   1.299779 A    
C32   C34   1.420099 A    
O3    C1    1.324524 A    
C37   H3    1.083478 S    
C9    C17   1.411663 A    
C38   H4    1.083486 S    
C56   N8    1.480067 S    
C39   H1    1.076134 S    
C20   C22   1.428974 A    
O4    V2    2.030684 S    
O18   V4    2.015612 S    
O13   C57   1.329478 A    
C7    C37   1.393988 A    
C51   C55   1.561844 S    
C25   N1    1.440732 S    
O6    C4    1.335061 A    
C2    C51   1.531521 S    
C45   C53   1.558591 S    
C45   N9    1.469533 S    
O1    V2    2.012500 S    
C52   C54   1.559986 S    
O2    V1    2.012455 S    
C31   C33   1.420055 A    
C26   N2    1.440691 S    
N1    H36   1.045995 S    
C41   C49   1.588491 S    
O4    C2    1.324492 A    
C56   H32   1.100388 S    
C9    C11   1.390791 A    
N3    H39   1.044999 S    
C10   C12   1.390784 A    
O11   V4    2.005088 S    
N2    H38   1.045825 S    
N5    O21   1.301118 A    
C46   C54   1.558618 S    
O3    V1    2.030723 S    
C43   C51   1.569507 S    
N10   H45   1.044749 S    
N9    H44   1.046179 S    
C47   H27   1.109982 S    
C10   C18   1.411650 A    
C23   C25   1.397705 A    
C27   H15   1.075237 S    
C29   C31   1.390443 A    
C46   C50   1.565410 S    
N8    O28   1.300926 A    
C28   C30   1.386183 A    
N5    O22   1.299777 A    
N4    H42   1.043081 S    
N1    H35   1.045573 S    
N6    O23   1.301101 A    
O15   C59   1.349229 A    
C13   C15   1.417384 A    
N7    O25   1.302324 A    
O12   V3    2.005107 S    
C14   C16   1.417375 A    
C58   O17   1.328520 A    
O17   V3    2.015562 S    
C5    C13   1.395504 A    
C24   C26   1.397679 A    
O7    V1    2.014056 S    
C29   H5    1.084550 S    
C1    O8    1.329597 A    
C8    C40   1.398155 A    
C32   C36   1.404789 A    
C48   H30   1.110161 S    
C41   C43   1.566669 S    
O14   C58   1.329471 A    
O5    V1    2.029328 S    
C21   C23   1.412859 A    
C19   C27   1.415811 A    
C24   H14   1.075284 S    
C20   C28   1.415845 A    
C48   C56   1.568350 S    
O12   C60   1.336227 A    
C47   C55   1.568263 S    
C7    C39   1.398160 A    
C11   H9    1.083363 S    
C27   C29   1.386190 A    
O6    V2    2.029418 S    
C28   H16   1.075266 S    
O9    V2    1.792011 S    
C17   C25   1.405747 A    
N3    H40   1.043037 S    
C23   H13   1.075276 S    
O10   V1    1.792039 S    
C41   N3    1.472683 S    
O8    V2    2.014031 S    
C46   N10   1.469597 S    
N2    H37   1.045446 S    
C31   C35   1.404779 A    
C53   H33   1.113268 S    
