data_str_m9_o1_o16_f0_sra.sym.51
_audit_creation_date              2013-03-05T15:55:32-0500
_audit_creation_method            fapswitch 2.2
_symmetry_space_group_name_H-M    P1
_symmetry_Int_Tables_number       1
_space_group_crystal_system       triclinic
_cell_length_a                    20.206844
_cell_length_b                    7.262522
_cell_length_c                    13.621004
_cell_angle_alpha                 90.001043
_cell_angle_beta                  103.554091
_cell_angle_gamma                 89.999912
_cell_volume                      1943.24674159

loop_
_atom_site_label
_atom_site_type_symbol
_atom_site_description
_atom_site_fract_x
_atom_site_fract_y
_atom_site_fract_z
_atom_type_partial_charge
O1    O     O_R   0.449560 0.506810 0.599700 -0.585930
O2    O     O_R   0.550440 0.006810 0.400300 -0.585935
O3    O     O_R   0.587960 0.180060 0.595760 -0.583469
O4    O     O_R   0.412040 0.680060 0.404240 -0.583442
C1    C     C_R   0.614092 0.344580 0.619441 0.946852
C2    C     C_R   0.385909 0.844580 0.380550 0.947018
O5    O     O_R   0.452380 0.177430 0.611700 -0.595702
O6    O     O_R   0.547620 0.677430 0.388300 -0.595721
O7    O     O_R   0.413900 0.001890 0.416350 -0.582493
O8    O     O_R   0.586100 0.501890 0.583650 -0.582473
C3    C     C_R   0.436567 0.345915 0.637191 0.898945
C4    C     C_R   0.563437 0.845912 0.362814 0.898988
O9    O     O_3   0.487530 0.337490 0.435890 -0.280819
O10   O     O_3   0.512470 0.837490 0.564110 -0.280844
V1    V     V_3+5 0.502310 0.064660 0.511890 1.198685
V2    V     V_3+5 0.497690 0.564660 0.488110 1.198690
C5    C     C_R   0.604624 0.847286 0.109312 -0.117048
C6    C     C_R   0.395382 0.347172 0.890696 -0.117134
H1    H     H_    0.512612 0.838238 0.161759 0.107675
H2    H     H_    0.487395 0.338139 0.838247 0.107731
H3    H     H_    0.684105 0.804607 0.984304 0.191728
H4    H     H_    0.315898 0.304380 0.015688 0.191722
H5    H     H_    0.577430 0.836434 0.030841 0.125456
H6    H     H_    0.422575 0.336262 0.969164 0.125425
C7    C     C_R   0.601680 0.855296 0.284858 -0.072559
C8    C     C_R   0.398328 0.355297 0.715151 -0.072552
C9    C     C_R   0.928067 0.888144 0.311312 -0.142793
C10   C     C_R   0.071944 0.388107 0.688688 -0.142453
C11   C     C_R   0.893165 0.908292 0.386947 -0.056635
C12   C     C_R   0.106847 0.408284 0.613058 -0.056977
C13   C     C_R   0.822435 0.904458 0.363968 -0.125353
C14   C     C_R   0.177577 0.404476 0.636042 -0.125616
C15   C     C_R   0.784312 0.874490 0.263898 0.062953
C16   C     C_R   0.215696 0.374474 0.736110 0.063188
C17   C     C_R   0.820252 0.848869 0.186017 -0.060660
C18   C     C_R   0.179754 0.348810 0.813983 -0.060668
C19   C     C_R   0.711582 0.867858 0.239057 0.089882
C20   C     C_R   0.288426 0.367835 0.760953 0.089872
C21   C     C_R   0.676042 0.853112 0.136320 0.115097
C22   C     C_R   0.323964 0.353018 0.863687 0.115093
C23   C     C_R   0.711685 0.830160 0.061571 -0.286376
C24   C     C_R   0.288318 0.329999 0.938428 -0.286547
C25   C     C_R   0.782200 0.813922 0.086066 0.289298
C26   C     C_R   0.217803 0.313770 0.913925 0.289262
C27   C     C_R   0.672639 0.868587 0.312795 -0.219780
C28   C     C_R   0.327371 0.368618 0.687216 -0.219764
C29   C     C_R   0.567645 0.847471 0.183380 -0.179561
C30   C     C_R   0.432362 0.347401 0.816628 -0.179514
C31   C     C_R   0.892932 0.861134 0.211041 -0.143135
C32   C     C_R   0.107075 0.361108 0.788961 -0.143249
H7    H     H_    0.695704 0.871397 0.392602 0.113318
H8    H     H_    0.304307 0.371482 0.607410 0.113166
H9    H     H_    0.983081 0.897454 0.330918 0.159776
H10   H     H_    0.016932 0.397374 0.669070 0.160072
H11   H     H_    0.799189 0.928729 0.426297 0.137631
H12   H     H_    0.200823 0.428776 0.573717 0.137288
H13   H     H_    0.921192 0.931432 0.464033 0.147333
H14   H     H_    0.078822 0.431425 0.535972 0.147249
C33   C     C_R   0.202838 0.985924 0.269743 0.432156
C34   C     C_R   0.797247 0.485505 0.729999 0.431796
C35   C     C_R   0.270188 0.982243 0.328017 -0.253639
C36   C     C_R   0.729887 0.481820 0.671734 -0.253593
H15   H     H_    0.284937 0.076929 0.390863 0.176427
H16   H     H_    0.715168 0.576134 0.608714 0.176575
C37   C     C_R   0.317524 0.852556 0.310020 -0.349061
C38   C     C_R   0.682485 0.352556 0.689951 -0.348847
C39   C     C_R   0.297105 0.727744 0.228187 0.563792
C40   C     C_R   0.702839 0.228131 0.771972 0.563773
C41   C     C_R   0.229831 0.730496 0.170749 -0.099105
C42   C     C_R   0.770111 0.230885 0.829423 -0.099383
H17   H     H_    0.215658 0.637467 0.107220 0.188049
H18   H     H_    0.784237 0.138170 0.893100 0.187838
C43   C     C_R   0.182136 0.858155 0.189616 -0.354659
C44   C     C_R   0.817872 0.358149 0.810360 -0.354479
O11   O     O_R   0.913920 0.203370 0.916260 -0.605001
O12   O     O_R   0.086080 0.703370 0.083740 -0.604917
O13   O     O_R   0.047620 0.535540 0.888290 -0.584777
O14   O     O_R   0.952380 0.035540 0.111710 -0.584928
C45   C     C_R   0.066355 0.368510 0.865523 0.946585
C46   C     C_R   0.933650 0.868514 0.134481 0.946376
O15   O     O_R   0.912040 0.532780 0.904220 -0.512951
O16   O     O_R   0.087960 0.032780 0.095780 -0.513030
O17   O     O_R   0.949550 0.708160 0.099720 -0.562533
O18   O     O_R   0.050450 0.208160 0.900280 -0.562524
C47   C     C_R   0.886544 0.364595 0.880352 1.066242
C48   C     C_R   0.113458 0.864597 0.119644 1.065819
O19   O     O_3   0.012480 0.375300 0.064060 -0.271963
O20   O     O_3   0.987520 0.875300 0.935940 -0.271986
V3    V     V_3+5 0.997690 0.648180 0.988110 1.325266
V4    V     V_3+5 0.002310 0.148180 0.011890 1.325222
O21   O     O_3   0.341212 0.605170 0.199350 -0.741582
H19   H     H_    0.388269 0.652381 0.221971 0.301938
O22   O     O_3   0.658676 0.105946 0.800978 -0.741857
H20   H     H_    0.611624 0.153062 0.778119 0.301916
N1    N     N_R   0.811584 0.721257 0.014544 0.222691
O23   O     O_R   0.824105 0.546449 0.028830 -0.430919
O24   O     O_R   0.804141 0.788919 0.924210 -0.405448
N2    N     N_R   0.188415 0.221012 0.985411 0.222651
O25   O     O_R   0.175840 0.046247 0.971023 -0.430868
O26   O     O_R   0.195906 0.288495 0.075794 -0.405160
N3    N     N_R   0.155921 0.115403 0.295807 0.244628
O27   O     O_R   0.176979 0.277836 0.329917 -0.393861
O28   O     O_R   0.094908 0.063242 0.299282 -0.453271
N4    N     N_R   0.844242 0.614467 0.703661 0.244718
O29   O     O_R   0.823153 0.776043 0.668300 -0.394947
O30   O     O_R   0.905386 0.562269 0.701035 -0.453355

loop_
_geom_bond_atom_site_label_1
_geom_bond_atom_site_label_2
_geom_bond_distance
_ccdc_geom_bond_type
C38   C40   1.420756 A    
N3    O27   1.302255 A    
O12   C48   1.337702 A    
C9    C11   1.385904 A    
N1    O23   1.300216 A    
O1    C3    1.325885 A    
O2    C4    1.325880 A    
C32   C45   1.472980 S    
C2    O7    1.316671 A    
N4    O30   1.300867 A    
O3    V1    2.018927 S    
C21   C23   1.388126 A    
O14   V4    2.044217 S    
O5    C3    1.331126 A    
O13   V3    2.044196 S    
C5    H5    1.084111 S    
O18   V4    2.034780 S    
C6    H6    1.084112 S    
C45   O18   1.324736 A    
O14   C46   1.328877 A    
C27   H7    1.077883 S    
C28   H8    1.077881 S    
C34   C36   1.406042 A    
C5    C21   1.403895 A    
C41   H17   1.082172 S    
C6    C22   1.403898 A    
C36   H16   1.083890 S    
O11   V4    1.989217 S    
O19   V4    1.788697 S    
C10   C32   1.397647 A    
O11   C47   1.337704 A    
C2    C37   1.487812 S    
C37   C39   1.420812 A    
C42   C44   1.403758 A    
C25   N1    1.423244 S    
C13   C15   1.416529 A    
C41   C43   1.403747 A    
C12   C14   1.389853 A    
C17   C25   1.420731 A    
C33   C43   1.418862 A    
C16   C18   1.431232 A    
C8    C30   1.393272 A    
O12   V3    1.989205 S    
O15   V3    2.019028 S    
O5    V1    2.044467 S    
N3    O28   1.301188 A    
C23   C25   1.390194 A    
C24   C26   1.390207 A    
C46   O17   1.324740 A    
N4    O29   1.301688 A    
O13   C45   1.328914 A    
O17   V3    2.034769 S    
C33   C35   1.405907 A    
C36   C38   1.404195 A    
C33   N3    1.437637 S    
O4    C2    1.315556 A    
O21   H19   0.989608 S    
C10   H10   1.082768 S    
C3    C8    1.453935 S    
O16   C48   1.335864 A    
C15   C19   1.429543 A    
C39   C41   1.400699 A    
C14   C16   1.416526 A    
O4    V2    2.018943 S    
C17   C31   1.430504 A    
C22   C24   1.388131 A    
O6    C4    1.331128 A    
C39   O21   1.380277 S    
O1    V2    2.031158 S    
O2    V1    2.031146 S    
H2    C30   1.083693 S    
H3    C23   1.085249 S    
C40   C42   1.400716 A    
C11   H13   1.082917 S    
N2    O26   1.300515 A    
C18   C26   1.420721 A    
C19   C27   1.413702 A    
C7    C27   1.397963 A    
C18   C32   1.430508 A    
C7    C29   1.393268 A    
N1    O24   1.300524 A    
C16   C20   1.429535 A    
C35   H15   1.083919 S    
C5    C29   1.389084 A    
C1    C38   1.487788 S    
O3    C1    1.315546 A    
C6    C30   1.389088 A    
C9    H9    1.082822 S    
O22   H20   0.989579 S    
C40   O22   1.380284 S    
O16   V4    2.019040 S    
C31   C46   1.472928 S    
C4    C7    1.453939 S    
C10   C12   1.385892 A    
O7    V1    2.000785 S    
C1    O8    1.316666 A    
C11   C13   1.389875 A    
O8    V2    2.000790 S    
C20   C22   1.419294 A    
H4    C24   1.085249 S    
C12   H14   1.082920 S    
C34   C44   1.418987 A    
C15   C17   1.431230 A    
H1    C29   1.083692 S    
C44   C47   1.488803 S    
C43   C48   1.488792 S    
C20   C28   1.413697 A    
C8    C28   1.397948 A    
C26   N2    1.423253 S    
C35   C37   1.404261 A    
C19   C21   1.419296 A    
O20   V3    1.788720 S    
O6    V2    2.044488 S    
N2    O25   1.300227 A    
O9    V2    1.789281 S    
O10   V1    1.789303 S    
C42   H18   1.082192 S    
C13   H11   1.076763 S    
C34   N4    1.437836 S    
C14   H12   1.076762 S    
O15   C47   1.335862 A    
C9    C31   1.397647 A    
