data_str_m3_o14_o24_f0_pcu.sym.116
_audit_creation_date              2012-12-10T17:49:33-0500
_audit_creation_method            fapswitch 2.2
_symmetry_space_group_name_H-M    P1
_symmetry_Int_Tables_number       1
_space_group_crystal_system       triclinic
_cell_length_a                    10.506093
_cell_length_b                    10.652394
_cell_length_c                    9.935401
_cell_angle_alpha                 89.939367
_cell_angle_beta                  89.850061
_cell_angle_gamma                 91.640505
_cell_volume                      1111.46055331

loop_
_atom_site_label
_atom_site_type_symbol
_atom_type_description
_atom_site_fract_x
_atom_site_fract_y
_atom_site_fract_z
_atom_type_partial_charge
C1    C     C_R   0.505657 0.260822 0.500333 0.856139
C2    C     C_R   0.604752 0.068390 0.584750 0.048864
C3    C     C_R   0.516614 0.128690 0.500849 -0.091542
C4    C     C_R   0.257534 0.499602 0.500328 0.860058
C5    C     C_R   0.434914 0.062235 0.415151 -0.196046
C6    C     C_R   0.434848 0.934235 0.414824 -0.189089
C7    C     C_R   0.517410 0.872037 0.499431 -0.096249
C8    C     C_R   0.336111 0.332514 0.139438 -0.262676
C9    C     C_R   0.258114 0.246608 0.070022 0.318091
C10   C     C_R   0.259782 0.243319 0.929008 0.197831
C11   C     C_R   0.337616 0.331989 0.860648 -0.269376
C12   C     C_3   0.960278 0.502549 0.371759 -0.099335
C13   C     C_R   0.419691 0.417198 0.928223 0.129729
C14   C     C_R   0.419568 0.417222 0.072228 0.131336
C15   C     C_R   0.577160 0.579014 0.071136 -0.085015
C16   C     C_R   0.505941 0.739409 0.499929 0.865131
C17   C     C_R   0.577104 0.579008 0.928152 -0.075343
C18   C     C_R   0.742588 0.500186 0.499731 0.847770
C19   C     C_3   0.040228 0.496976 0.628550 -0.110700
C20   C     C_3   0.954678 0.395201 0.561247 -0.162529
C21   C     C_3   0.877864 0.499969 0.498994 0.010078
C22   C     C_3   0.960862 0.601833 0.566118 -0.183533
C23   C     C_3   0.039655 0.397806 0.434298 -0.178903
C24   C     C_3   0.045845 0.604437 0.439035 -0.168659
C25   C     C_3   0.197153 0.134577 0.715041 -0.738779
C26   C     C_3   0.122480 0.499626 0.501320 -0.005953
C27   C     C_R   0.692134 0.135059 0.668488 -0.255149
C28   C     C_R   0.775899 0.071497 0.751098 0.446425
C29   C     C_R   0.779863 0.941227 0.745786 -0.196178
C30   C     C_R   0.697541 0.874189 0.660758 -0.267951
C31   C     C_R   0.606261 0.936728 0.582527 0.114210
Cl1   Cl    Cl    0.155753 0.146049 0.164278 -0.664755
Cl2   Cl    Cl    0.875319 0.155984 0.862230 -0.611290
H1    H     H_    0.914285 0.309510 0.610349 0.179147
H2    H     H_    0.924838 0.684971 0.619834 0.135676
H3    H     H_    0.087805 0.689523 0.389513 0.151620
H4    H     H_    0.923983 0.504727 0.266945 0.166331
H5    H     H_    0.076686 0.314647 0.381631 0.196596
H6    H     H_    0.367931 0.109682 0.351487 0.196450
H7    H     H_    0.697654 0.236258 0.671140 0.187354
H8    H     H_    0.160457 0.070527 0.909998 0.292605
H9    H     H_    0.296235 0.107590 0.692267 0.234286
H10   H     H_    0.172842 0.220994 0.659286 0.237232
H11   H     H_    0.131115 0.058160 0.680107 0.250516
H12   H     H_    0.847046 0.891624 0.807193 0.167659
H13   H     H_    0.707269 0.773631 0.656724 0.161895
H14   H     H_    0.367538 0.883327 0.351034 0.176387
H15   H     H_    0.640287 0.643632 0.124412 0.145533
H16   H     H_    0.328432 0.330281 0.246189 0.227843
H17   H     H_    0.332947 0.333084 0.754590 0.234603
H18   H     H_    0.640210 0.643618 0.874373 0.138493
H19   H     H_    0.076705 0.494219 0.733289 0.168760
N1    N     N_R   0.498800 0.498800 0.142780 -0.106567
N2    N     N_R   0.498760 0.498720 0.857170 -0.107129
N3    N     N_2   0.181157 0.152700 0.858596 -0.231878
O1    O     O_R   0.500000 0.316780 0.614690 -0.645816
O2    O     O_R   0.499990 0.316750 0.385360 -0.621376
O3    O     O_R   0.313960 0.499980 0.614650 -0.641800
O4    O     O_R   0.313940 0.499960 0.385310 -0.631494
O5    O     O_R   0.500010 0.683250 0.614640 -0.616733
O6    O     O_R   0.500000 0.683220 0.385310 -0.614752
O7    O     O_R   0.686060 0.500040 0.614690 -0.626992
O8    O     O_R   0.686040 0.500020 0.385350 -0.615635
Zn1   Zn    Zn3+2 0.500010 0.500020 0.653130 0.938706
Zn2   Zn    Zn3+2 0.499990 0.499980 0.346870 0.955868

loop_
_geom_bond_atom_site_label_1
_geom_bond_atom_site_label_2
_ccdc_geom_bond_type
C25   H9    S    
C8    C9    A    
C4    C26   S    
O1    Zn1   S    
C6    C7    A    
C10   N3    S    
C12   C21   S    
C1    O2    A    
C17   N2    A    
C18   C21   S    
N1    Zn2   S    
C9    C10   A    
C12   C24   S    
C19   C20   S    
C20   C23   S    
C27   H7    S    
O5    Zn1   S    
C20   H1    S    
C25   H10   S    
O8    Zn2   S    
C2    C3    A    
C3    C5    A    
C11   H17   S    
C24   H3    S    
C21   C22   S    
O4    Zn2   S    
C22   H2    S    
C11   C13   A    
C12   C23   S    
C17   H18   S    
C14   N1    A    
C2    C27   A    
N2    Zn1   S    
C15   H15   S    
H8    N3    S    
C15   N1    A    
C25   H11   S    
C28   C29   A    
C6    H14   S    
C1    O1    A    
C24   C26   S    
C28   Cl2   S    
C19   H19   S    
C5    H6    S    
O3    Zn1   S    
C5    C6    A    
C22   C24   S    
C18   O8    A    
C29   H12   S    
C7    C31   A    
C10   C11   A    
C29   C30   A    
C23   H5    S    
O6    Zn2   S    
C27   C28   A    
C19   C22   S    
C20   C21   S    
C4    O4    A    
C13   N2    A    
C16   O5    A    
C23   C26   S    
C4    O3    A    
C12   H4    S    
C15   C17   A    
C19   C26   S    
C30   C31   A    
C7    C16   S    
O7    Zn1   S    
C8    C14   A    
C9    Cl1   S    
C16   O6    A    
C13   C14   A    
C8    H16   S    
C30   H13   S    
C18   O7    A    
C25   N3    S    
O2    Zn2   S    
C2    C31   A    
C1    C3    S    
