data_str_m2_o5_o29_f0_pcu.sym.103
_audit_creation_date              2013-03-05T16:36:12-0500
_audit_creation_method            fapswitch 2.2
_symmetry_space_group_name_H-M    P1
_symmetry_Int_Tables_number       1
_space_group_crystal_system       triclinic
_cell_length_a                    27.846568
_cell_length_b                    9.12484
_cell_length_c                    7.795196
_cell_angle_alpha                 89.999953
_cell_angle_beta                  90.002079
_cell_angle_gamma                 90.001195
_cell_volume                      1980.72404847

loop_
_atom_site_label
_atom_site_type_symbol
_atom_site_description
_atom_site_fract_x
_atom_site_fract_y
_atom_site_fract_z
_atom_type_partial_charge
O1    O     O_R   0.500000 0.288390 0.642760 -0.574527
O2    O     O_R   0.500000 0.711610 0.357240 -0.574529
O3    O     O_R   0.500000 0.711610 0.642760 -0.574527
O4    O     O_R   0.500000 0.288390 0.357240 -0.574529
C1    C     C_R   0.500000 0.220010 0.500000 0.848674
C2    C     C_R   0.500000 0.779990 0.500000 0.848671
O5    O     O_R   0.430260 0.500000 0.642770 -0.582399
O6    O     O_R   0.569740 0.500000 0.357230 -0.582406
O7    O     O_R   0.569740 0.500000 0.642770 -0.582413
O8    O     O_R   0.430260 0.500000 0.357230 -0.582420
C3    C     C_R   0.407264 0.500000 0.499997 0.814884
C4    C     C_R   0.592736 0.500003 0.500003 0.814885
Cu1   Cu    Cu3+1 0.500000 0.500000 0.669080 1.029604
Cu2   Cu    Cu3+1 0.500000 0.500000 0.330920 1.029598
C5    C     C_R   0.177286 0.369317 0.497597 0.679205
C6    C     C_R   0.822712 0.630795 0.497626 0.679532
C7    C     C_R   0.177289 0.630809 0.502434 0.679801
C8    C     C_R   0.822713 0.369303 0.502459 0.679460
O9    O     O_2   0.201871 0.242050 0.489314 -0.507527
O10   O     O_2   0.798125 0.758058 0.489350 -0.507474
O11   O     O_2   0.201878 0.758073 0.510699 -0.507439
O12   O     O_2   0.798126 0.242034 0.510729 -0.507486
N1    N     N_R   0.201509 0.500062 0.499984 -0.432430
N2    N     N_R   0.798491 0.500046 0.500039 -0.432430
C9    C     C_R   0.278886 0.550207 0.353127 0.004477
C10   C     C_R   0.721117 0.449853 0.353195 0.004594
C11   C     C_R   0.278882 0.449860 0.646797 0.004690
C12   C     C_R   0.721115 0.550211 0.646860 0.004573
C13   C     C_R   0.329242 0.548104 0.355671 -0.216924
C14   C     C_R   0.670762 0.451923 0.355714 -0.216857
C15   C     C_R   0.329237 0.451920 0.644282 -0.216801
C16   C     C_R   0.670759 0.548117 0.644321 -0.216881
C17   C     C_R   0.253254 0.500058 0.499971 0.197436
C18   C     C_R   0.746746 0.500040 0.500031 0.197444
C19   C     C_R   0.101513 0.500065 0.500056 -0.062265
C20   C     C_R   0.898487 0.500055 0.500056 -0.062263
C21   C     C_R   0.126997 0.367216 0.508020 -0.089732
C22   C     C_R   0.873002 0.632902 0.508027 -0.089751
C23   C     C_R   0.126999 0.632914 0.492074 -0.089769
C24   C     C_R   0.873002 0.367204 0.492076 -0.089752
C25   C     C_R   0.101943 0.236545 0.534426 -0.226278
C26   C     C_R   0.898056 0.763575 0.534423 -0.226284
C27   C     C_R   0.101944 0.763587 0.465699 -0.226288
C28   C     C_R   0.898057 0.236534 0.465691 -0.226282
C29   C     C_R   0.354437 0.500010 0.499986 -0.077982
C30   C     C_R   0.645563 0.500014 0.500012 -0.077973
H1    H     H_    0.349150 0.414687 0.755515 0.194211
H2    H     H_    0.650840 0.585334 0.755543 0.194257
H3    H     H_    0.349163 0.585310 0.244451 0.194299
H4    H     H_    0.650846 0.414693 0.244486 0.194243
H5    H     H_    0.120987 0.134780 0.556666 0.210354
H6    H     H_    0.879012 0.865339 0.556665 0.210354
H7    H     H_    0.120988 0.865352 0.443451 0.210353
H8    H     H_    0.879013 0.134767 0.443443 0.210355
C31   C     C_R   0.974620 0.365253 0.490638 -0.049765
C32   C     C_R   0.025380 0.634872 0.490643 -0.049763
C33   C     C_R   0.974620 0.634868 0.509499 -0.049766
C34   C     C_R   0.025380 0.365256 0.509501 -0.049768
C35   C     C_R   0.949417 0.500059 0.500065 -0.073020
C36   C     C_R   0.050583 0.500065 0.500069 -0.073020
C37   C     C_R   0.947950 0.236496 0.455875 0.725355
C38   C     C_R   0.052051 0.763628 0.455885 0.725355
C39   C     C_R   0.947949 0.763621 0.544256 0.725359
C40   C     C_R   0.052050 0.236503 0.544262 0.725359
C41   C     C_1   0.500000 0.065316 0.500000 -0.149227
C42   C     C_1   0.500000 0.934684 0.500000 -0.149226
N3    N     N_1   0.500000 0.500000 0.076820 -0.041402
N4    N     N_1   0.500000 0.500000 0.923180 -0.041402
C43   C     C_2   0.254495 0.393290 0.804248 0.920942
O13   O     O_2   0.277120 0.320207 0.908191 -0.570544
O14   O     O_R   0.206028 0.422410 0.835455 -0.770733
H9    H     H_    0.193285 0.368499 0.939674 0.364063
C44   C     C_2   0.745494 0.606754 0.804355 0.920829
O15   O     O_2   0.722837 0.679572 0.908476 -0.570620
O16   O     O_R   0.793988 0.577891 0.835422 -0.770691
H10   H     H_    0.806715 0.631767 0.939692 0.364141
C45   C     C_2   0.254509 0.606716 0.195604 0.920861
O17   O     O_2   0.277187 0.679292 0.091328 -0.570734
O18   O     O_R   0.205996 0.578087 0.164672 -0.770674
H11   H     H_    0.193281 0.631930 0.060360 0.364197
C46   C     C_2   0.745501 0.393303 0.195724 0.920933
O19   O     O_2   0.722858 0.320417 0.091657 -0.570622
O20   O     O_R   0.793985 0.422227 0.164628 -0.770711
H12   H     H_    0.806718 0.368337 0.060381 0.364129
F1    F     F_    0.969082 0.114627 0.391801 -0.537795
F2    F     F_    0.030918 0.885500 0.391816 -0.537791
F3    F     F_    0.969081 0.885492 0.608338 -0.537793
F4    F     F_    0.030919 0.114634 0.608346 -0.537795

loop_
_geom_bond_atom_site_label_1
_geom_bond_atom_site_label_2
_geom_bond_distance
_ccdc_geom_bond_type
O5    Cu1   1.952812 S    
C31   C35   1.418127 A    
C44   O16   1.396971 S    
C44   O15   1.224089 D    
C20   C35   1.418215 A    
C46   O19   1.223904 D    
C13   H3    1.083832 S    
C45   O17   1.223976 D    
C11   C17   1.424447 A    
O5    C3    1.284000 A    
C38   F2    1.353668 S    
C7    N1    1.370621 A    
C2    C42   1.411556 S    
C9    C45   1.494793 S    
C19   C21   1.406056 A    
C22   C26   1.396715 A    
C33   C35   1.418131 A    
C34   C36   1.418128 A    
C32   C33   1.421133 A    
C7    C23   1.402871 A    
C43   O14   1.396908 S    
C8    C24   1.402861 A    
C5    C21   1.402862 A    
O7    Cu1   1.952824 S    
C5    O9    1.349624 S    
C27   H7    1.083324 S    
N1    C17   1.440935 S    
Cu2   N3    1.980759 S    
C8    N2    1.370619 A    
O3    Cu1   1.941777 S    
C6    O10   1.349624 S    
O3    C2    1.275829 A    
C5    N1    1.370620 A    
C14   H4    1.083832 S    
C12   C18   1.424471 A    
C6    N2    1.370621 A    
C15   H1    1.083839 S    
Cu1   Cu2   2.636024 S    
C21   C25   1.396714 A    
C16   H2    1.083837 S    
O2    C2    1.275829 A    
C12   C44   1.494745 S    
C46   O20   1.396852 S    
C10   C18   1.424462 A    
C33   C39   1.416084 A    
C45   O18   1.396895 S    
C9    C13   1.402524 A    
C11   C15   1.402469 A    
N3    N4    1.197655 T    
C20   C24   1.406056 A    
C4    C30   1.471059 S    
O8    Cu2   1.952827 S    
C23   C27   1.396713 A    
C34   C40   1.416079 A    
C7    O11   1.349623 S    
C32   C36   1.418131 A    
C13   C29   1.396530 A    
C19   C36   1.418215 A    
C19   C23   1.406056 A    
O16   H10   1.013863 S    
O20   H12   1.013862 S    
C12   C16   1.402502 A    
O6    C4    1.283998 A    
C37   F1    1.353671 S    
C1    C41   1.411556 S    
C10   C14   1.402494 A    
C10   C46   1.494722 S    
O1    C1    1.275829 A    
C3    C29   1.471062 S    
O1    Cu1   1.941778 S    
O6    Cu2   1.952809 S    
C39   F3    1.353669 S    
C8    O12   1.349624 S    
C16   C30   1.396524 A    
C14   C30   1.396517 A    
O4    C1    1.275829 A    
C11   C43   1.494682 S    
C28   C37   1.391457 A    
C20   C22   1.406055 A    
O14   H9    1.013874 S    
C31   C37   1.416083 A    
C25   H5    1.083325 S    
C32   C38   1.416087 A    
O4    Cu2   1.941778 S    
C43   O13   1.223980 D    
O2    Cu2   1.941777 S    
O7    C4    1.283996 A    
N2    C18   1.440935 S    
C9    C17   1.424488 A    
O8    C3    1.283995 A    
O18   H11   1.013863 S    
C28   H8    1.083324 S    
C24   C28   1.396712 A    
C41   C42   1.191999 T    
C15   C29   1.396511 A    
C31   C34   1.421122 A    
C6    C22   1.402872 A    
C25   C40   1.391458 A    
C26   C39   1.391464 A    
C40   F4    1.353671 S    
C27   C38   1.391464 A    
C26   H6    1.083324 S    
Cu1   N4    1.980759 S    
