data_str_m2_o12_o28_f0_pcu.sym.62
_audit_creation_date              2012-10-26T19:21:56-0400
_audit_creation_method            fapswitch 2.2
_symmetry_space_group_name_H-M    P1
_symmetry_Int_Tables_number       1
_space_group_crystal_system       triclinic
_cell_length_a                    23.535608
_cell_length_b                    10.994401
_cell_length_c                    9.928246
_cell_angle_alpha                 110.722302
_cell_angle_beta                  99.269958
_cell_angle_gamma                 91.276557
_cell_volume                      2362.6900724

loop_
_atom_site_label
_atom_site_type_symbol
_atom_type_description
_atom_site_fract_x
_atom_site_fract_y
_atom_site_fract_z
_atom_type_partial_charge
C1    C     C_R   0.493457 0.253482 0.440563 0.571299
C2    C     C_R   0.696685 0.609000 0.460531 0.008359
C3    C     C_R   0.240423 0.403221 0.542110 0.260428
C4    C     C_R   0.754740 0.605318 0.441849 0.249645
C5    C     C_R   0.207683 0.483822 0.481353 0.147663
C6    C     C_R   0.791109 0.527569 0.498766 0.150354
C7    C     C_2   0.483251 0.112567 0.407481 0.240958
C8    C     C_2   0.510463 0.886883 0.593082 0.196920
C9    C     C_2   0.484299 0.071945 0.520491 -0.089208
C10   C     C_2   0.477441 0.934649 0.503448 -0.084113
C11   C     C_2   0.500900 0.517684 0.082633 0.114590
C12   C     C_R   0.505122 0.746169 0.559403 0.561403
C13   C     C_2   0.490556 0.502802 0.921958 0.103634
C14   C     C_R   0.391147 0.495770 0.498756 0.567624
C15   C     C_R   0.608862 0.504765 0.501416 0.585798
C16   C     C_R   0.888761 0.633825 0.559704 0.513922
C17   C     C_R   0.109328 0.384685 0.391613 0.501904
C18   C     C_R   0.870115 0.412250 0.398251 0.481448
C19   C     C_R   0.127545 0.600200 0.570888 0.489004
C20   C     C_R   0.929811 0.399519 0.398951 0.010277
C21   C     C_R   0.067707 0.615412 0.564204 0.009561
C22   C     C_R   0.968602 0.512342 0.473168 -0.105981
C23   C     C_R   0.234971 0.566341 0.424731 0.033818
C24   C     C_R   0.028590 0.505618 0.474465 -0.105500
C25   C     C_R   0.947374 0.632391 0.545489 0.002282
C26   C     C_R   0.049018 0.389582 0.385294 -0.003867
C27   C     C_R   0.951704 0.280166 0.323597 0.234805
C28   C     C_R   0.045137 0.736928 0.634731 0.234703
C29   C     C_R   0.008528 0.282211 0.296251 0.215210
C30   C     C_R   0.985244 0.747016 0.602015 0.221543
C31   C     C_2   0.199501 0.646790 0.356186 0.658961
C32   C     C_2   0.807468 0.372564 0.633329 0.674620
C33   C     C_2   0.325094 0.672505 0.394753 0.644792
C34   C     C_R   0.767993 0.447189 0.564968 0.027763
C35   C     C_2   0.682160 0.346095 0.622159 0.660060
C36   C     C_2   0.330512 0.288172 0.556646 0.637059
C37   C     C_2   0.665449 0.724033 0.456427 0.652569
C38   C     C_R   0.295632 0.576256 0.439948 0.005375
C39   C     C_R   0.707624 0.435575 0.560973 -0.018599
C40   C     C_R   0.328265 0.492638 0.496011 -0.078811
C41   C     C_R   0.671739 0.514402 0.504588 -0.071713
C42   C     C_R   0.299992 0.399302 0.536749 0.001130
Cu1   Cu    Cu3+1 0.509980 0.521810 0.644910 1.175919
Cu2   Cu    Cu3+1 0.490020 0.478190 0.355090 1.202597
H1    H     H_    0.446012 0.869772 0.412282 0.195094
H2    H     H_    0.000586 0.070133 0.577261 0.393020
H3    H     H_    0.187035 0.824446 0.345634 0.388014
H4    H     H_    0.884097 0.371650 0.757849 0.380647
H5    H     H_    0.333472 0.740647 0.234609 0.370241
H6    H     H_    0.681238 0.293211 0.796774 0.398342
H7    H     H_    0.331472 0.092774 0.496748 0.369202
H8    H     H_    0.595252 0.795015 0.376446 0.372074
H9    H     H_    0.132083 0.322053 0.732352 0.393452
H10   H     H_    0.777011 0.902430 0.403437 0.384405
H11   H     H_    0.585553 0.901391 0.904513 0.398995
H12   H     H_    0.493457 0.142310 0.631678 0.210270
H13   H     H_    0.472040 0.008858 0.009666 0.394781
H14   H     H_    0.452119 0.446791 0.850862 0.201205
H15   H     H_    0.532378 0.592703 0.159150 0.206394
H16   H     H_    0.854079 0.061769 0.400928 0.409740
H17   H     H_    0.150452 0.910635 0.967992 0.401485
H18   H     H_    0.672539 0.705994 0.937986 0.398648
H19   H     H_    0.359252 0.193482 0.056921 0.386908
H20   H     H_    0.961348 0.002819 0.993325 0.409514
N1    N     N_R   0.851345 0.525219 0.484850 -0.376541
N2    N     N_R   0.146532 0.488383 0.483059 -0.375667
N3    N     N_2   0.475010 0.445410 0.137370 -0.085345
N4    N     N_2   0.524990 0.554590 0.862630 -0.094545
O1    O     O_R   0.505330 0.332340 0.577400 -0.530932
O2    O     O_2   0.131518 0.276356 0.311932 -0.348863
O3    O     O_2   0.830600 0.314814 0.309240 -0.369858
O4    O     O_2   0.167412 0.695774 0.661364 -0.362964
O5    O     O_2   0.869719 0.087291 0.154232 -0.154260
O6    O     O_2   0.955357 0.022693 0.279559 -0.198620
O7    O     O_3   0.881135 0.141182 0.434700 -0.468017
O8    O     O_2   0.128857 0.930381 0.697378 -0.155931
O9    O     O_2   0.051865 0.978985 0.841589 -0.173956
O10   O     O_3   0.127260 0.830017 0.898944 -0.429312
O11   O     O_2   0.582625 0.753009 0.087802 -0.240838
O12   O     O_R   0.494670 0.667660 0.422600 -0.532478
O13   O     O_2   0.621773 0.539515 0.032299 -0.223186
O14   O     O_3   0.635309 0.672498 0.869632 -0.441611
O15   O     O_2   0.370482 0.405747 0.976479 -0.221178
O16   O     O_2   0.437039 0.235769 0.900927 -0.242677
O17   O     O_3   0.390697 0.256338 0.127095 -0.432557
O18   O     O_2   0.059129 0.231009 0.060409 -0.164338
O19   O     O_2   0.056087 0.060497 0.165841 -0.175440
O20   O     O_3   0.961689 0.097719 0.013087 -0.403218
O21   O     O_2   0.916187 0.852120 0.438243 -0.166476
O22   O     O_2   0.933235 0.969877 0.703214 -0.160028
O23   O     O_R   0.488470 0.295500 0.332650 -0.401323
O24   O     O_3   0.014934 0.982783 0.559548 -0.422885
O25   O     O_2   0.156372 0.596182 0.263725 -0.441912
O26   O     O_R   0.214799 0.780526 0.399295 -0.594983
O27   O     O_2   0.793849 0.258667 0.613310 -0.405741
O28   O     O_R   0.860752 0.432574 0.719227 -0.643295
O29   O     O_2   0.362441 0.753142 0.482966 -0.520712
O30   O     O_R   0.310168 0.670592 0.251859 -0.604997
O31   O     O_2   0.643228 0.262968 0.546238 -0.450602
O32   O     O_R   0.702312 0.358481 0.767181 -0.587951
O33   O     O_2   0.375655 0.307372 0.643892 -0.483838
O34   O     O_R   0.511530 0.704500 0.667350 -0.462265
O35   O     O_R   0.306965 0.160401 0.474514 -0.596125
O36   O     O_2   0.687206 0.833685 0.533619 -0.384979
O37   O     O_R   0.611858 0.708569 0.366437 -0.648451
O38   O     O_2   0.186780 0.178726 0.525259 -0.168668
O39   O     O_2   0.251609 0.302060 0.755575 -0.177738
O40   O     O_3   0.152091 0.387215 0.704284 -0.489620
O41   O     O_2   0.829540 0.633075 0.269789 -0.195913
O42   O     O_2   0.731163 0.690347 0.217912 -0.228628
O43   O     O_3   0.799444 0.848067 0.450006 -0.398638
O44   O     O_2   0.605473 0.053500 0.678469 -0.198172
O45   O     O_R   0.426310 0.518390 0.622390 -0.497750
O46   O     O_2   0.538680 0.088184 0.850212 -0.254658
O47   O     O_3   0.603991 0.896550 0.820048 -0.423910
O48   O     O_2   0.492234 0.876523 0.203912 -0.279637
O49   O     O_2   0.401271 0.976956 0.180533 -0.270480
O50   O     O_3   0.490060 0.067916 0.109534 -0.411709
O51   O     O_R   0.573690 0.481610 0.377610 -0.472397
O52   O     O_R   0.409450 0.481550 0.377650 -0.455641
O53   O     O_R   0.590550 0.518450 0.622350 -0.430796
O54   O     O_2   0.869622 0.741075 0.651192 -0.345321
S1    S     S_3+6 0.914153 0.126980 0.292470 0.119745
S2    S     S_3+6 0.465871 0.003187 0.221970 0.057008
S3    S     S_3+6 0.088706 0.875043 0.768814 0.157448
S4    S     S_3+6 0.591731 0.630453 0.966973 0.154263
S5    S     S_3+6 0.417443 0.334478 0.029899 0.171254
S6    S     S_3+6 0.023369 0.165237 0.131800 0.166551
S7    S     S_3+6 0.960352 0.890836 0.576462 0.160816
S8    S     S_3+6 0.207971 0.313363 0.633065 0.135144
S9    S     S_3+6 0.779443 0.692467 0.338292 0.137022
S10   S     S_3+6 0.565369 0.986143 0.738545 0.066687

loop_
_geom_bond_atom_site_label_1
_geom_bond_atom_site_label_2
_ccdc_geom_bond_type
C3    C42   A    
O13   S4    D    
C27   C29   A    
C3    S8    S    
C36   C42   S    
C2    C37   S    
C7    S2    S    
C39   C41   A    
C18   N1    A    
C37   O37   S    
C17   N2    A    
C36   O35   S    
O7    S1    S    
C17   C26   A    
C19   C21   A    
O49   S2    D    
C24   C26   A    
C35   C39   S    
C35   O31   D    
H2    O24   S    
Cu2   O52   S    
C2    C41   A    
H7    O35   S    
C8    S10   S    
C16   C25   A    
O21   S7    D    
C19   N2    A    
O38   S8    D    
C33   O30   S    
C16   O54   S    
O14   S4    S    
H5    O30   S    
O22   S7    D    
C6    N1    S    
Cu1   N4    S    
O5    S1    D    
C22   C25   A    
O41   S9    D    
O48   S2    D    
C9    C10   S    
Cu1   O53   S    
O40   S8    S    
O16   S5    D    
C40   C42   A    
O6    S1    D    
H18   O14   S    
C17   O2    S    
C1    O23   A    
H19   O17   S    
O8    S3    D    
C19   O4    S    
O39   S8    D    
C11   H15   S    
O19   S6    D    
C11   N3    D    
C4    S9    S    
O47   S10   S    
O18   S6    D    
C34   C39   A    
Cu2   O12   S    
C15   C41   S    
C4    C6    A    
C27   S1    S    
C13   H14   S    
Cu2   O51   S    
C31   O25   D    
C1    O1    A    
C6    C34   A    
C36   O33   D    
C32   C34   S    
C29   S6    S    
C2    C4    A    
Cu1   Cu2   S    
C12   O34   A    
C18   O3    S    
N3    S5    S    
C5    C23   A    
H17   O10   S    
C8    C12   S    
C10   H1    S    
O42   S9    D    
C9    H12   S    
O50   S2    S    
O44   S10   D    
Cu2   O23   S    
O43   S9    S    
C32   O28   S    
C21   C28   A    
C20   C22   A    
H8    O37   S    
C14   O52   A    
C31   O26   S    
C22   C24   A    
O17   S5    S    
C35   O32   S    
C23   C38   A    
N4    S4    S    
O9    S3    D    
C28   S3    S    
C25   C30   A    
C7    C9    D    
H4    O28   S    
C1    C7    S    
O46   S10   D    
O11   S4    D    
C30   S7    S    
O15   S5    D    
C5    N2    S    
C3    C5    A    
C37   O36   D    
C20   C27   A    
C14   O45   A    
H16   O7    S    
H6    O32   S    
C33   C38   S    
C28   C30   A    
O24   S7    S    
Cu1   O34   S    
O20   S6    S    
Cu1   O45   S    
C38   C40   A    
C11   C13   S    
H9    O40   S    
H11   O47   S    
C12   O12   A    
H3    O26   S    
C15   O51   A    
H10   O43   S    
C18   C20   A    
C15   O53   A    
C14   C40   S    
C32   O27   D    
C26   C29   A    
C8    C10   D    
C21   C24   A    
Cu2   N3    S    
C16   N1    A    
C33   O29   D    
Cu1   O1    S    
O10   S3    S    
H20   O20   S    
C23   C31   S    
H13   O50   S    
C13   N4    D    
