data_str_m3_o10_o15_f0_pcu.sym.33
_audit_creation_date              2012-12-10T16:50:57-0500
_audit_creation_method            fapswitch 2.2
_symmetry_space_group_name_H-M    P1
_symmetry_Int_Tables_number       1
_space_group_crystal_system       triclinic
_cell_length_a                    7.941562
_cell_length_b                    8.553447
_cell_length_c                    10.536532
_cell_angle_alpha                 91.577915
_cell_angle_beta                  84.509162
_cell_angle_gamma                 93.475249
_cell_volume                      710.958306316

loop_
_atom_site_label
_atom_site_type_symbol
_atom_type_description
_atom_site_fract_x
_atom_site_fract_y
_atom_site_fract_z
_atom_type_partial_charge
C1    C     C_R   0.545055 0.793945 0.496649 0.967783
C2    C     C_R   0.938913 0.392336 0.018529 -0.269573
C3    C     C_R   0.039178 0.502566 0.083406 -0.304297
C4    C     C_R   0.960822 0.497445 0.916592 -0.304299
C5    C     C_R   0.181399 0.444606 0.129124 0.644239
C6    C     C_R   0.818601 0.555405 0.870875 0.644241
C7    C     C_R   0.342994 0.482542 0.069833 -0.136520
C8    C     C_R   0.657008 0.517468 0.930166 -0.136520
C9    C     C_R   0.359383 0.560976 0.954603 -0.156804
C10   C     C_R   0.640618 0.439034 0.045396 -0.156805
C11   C     C_R   0.488975 0.445218 0.123517 -0.039141
C12   C     C_R   0.454945 0.206055 0.503351 0.967784
C13   C     C_R   0.511026 0.554790 0.876481 -0.039138
C14   C     C_2   0.568420 0.957801 0.494856 -0.313683
C15   C     C_2   0.431580 0.042198 0.505144 -0.313683
C16   C     C_R   0.504125 0.523510 0.739440 0.930531
C17   C     C_R   0.495875 0.476493 0.260560 0.930533
C18   C     C_R   0.223378 0.642838 0.921995 0.674114
C19   C     C_R   0.776624 0.357171 0.078002 0.674115
C20   C     C_R   0.061089 0.607674 0.981468 -0.269575
F1    F     F_    0.246153 0.755655 0.832515 -0.632560
F2    F     F_    0.753849 0.244351 0.167480 -0.632559
F3    F     F_    0.158446 0.326677 0.214052 -0.656760
F4    F     F_    0.841552 0.673332 0.785945 -0.656762
H1    H     H_    0.029990 0.446903 0.832236 0.185182
H2    H     H_    0.970010 0.553108 0.167762 0.185180
H3    H     H_    0.002099 0.718543 0.002246 0.214030
H4    H     H_    0.997904 0.281468 0.997751 0.214031
H5    H     H_    0.697885 0.008401 0.485044 0.196197
H6    H     H_    0.302115 0.991599 0.514956 0.196198
H7    H     H_    0.007472 0.366728 0.417667 0.264670
H8    H     H_    0.992528 0.633272 0.582334 0.264670
N1    N     N_2   0.950330 0.457950 0.466250 -0.175880
N2    N     N_2   0.049670 0.542050 0.533750 -0.175881
O1    O     O_R   0.389250 0.738570 0.508280 -0.596751
O2    O     O_R   0.610750 0.261430 0.491720 -0.596751
O3    O     O_R   0.678390 0.711630 0.486650 -0.615953
O4    O     O_R   0.321610 0.288370 0.513350 -0.615953
O5    O     O_R   0.355430 0.513480 0.694040 -0.598579
O6    O     O_R   0.644570 0.486520 0.305960 -0.598578
O7    O     O_R   0.644570 0.486540 0.672410 -0.602450
O8    O     O_R   0.355430 0.513460 0.327590 -0.602449
Zn1   Zn    Zn3+2 0.306940 0.517990 0.514440 1.022204
Zn2   Zn    Zn3+2 0.693060 0.482010 0.485560 1.022204

loop_
_geom_bond_atom_site_label_1
_geom_bond_atom_site_label_2
_ccdc_geom_bond_type
C2    C4    A    
H7    N1    S    
C8    C13   A    
C20   H3    S    
C12   O2    A    
C18   F1    S    
O1    Zn1   S    
O6    Zn2   S    
C5    F3    S    
C12   C15   S    
C1    O3    A    
C10   C19   A    
C6    F4    S    
O3    Zn2   S    
C2    C3    A    
C5    C7    A    
C3    C20   A    
C7    C11   A    
C6    C8    A    
C4    C6    A    
N1    N2    D    
C4    H1    S    
C18   C20   A    
C12   O4    A    
C14   C15   D    
O7    Zn2   S    
O2    Zn2   S    
C10   C11   A    
C14   H5    S    
C4    C20   A    
C9    C18   A    
O4    Zn1   S    
C19   F2    S    
C1    O1    A    
C15   H6    S    
C8    C10   A    
O8    Zn1   S    
C13   C16   S    
C7    C9    A    
C9    C13   A    
C17   O8    A    
C11   C17   S    
C2    H4    S    
C1    C14   S    
C16   O5    A    
C2    C19   A    
O5    Zn1   S    
N1    Zn2   S    
C16   O7    A    
C3    H2    S    
N2    Zn1   S    
C3    C5    A    
C17   O6    A    
H8    N2    S    
