data_str_m3_o10_o14_f0_pcu.sym.131
_audit_creation_date              2012-12-10T16:50:03-0500
_audit_creation_method            fapswitch 2.2
_symmetry_space_group_name_H-M    P1
_symmetry_Int_Tables_number       1
_space_group_crystal_system       triclinic
_cell_length_a                    7.799454
_cell_length_b                    8.570775
_cell_length_c                    10.630868
_cell_angle_alpha                 91.531706
_cell_angle_beta                  84.002376
_cell_angle_gamma                 93.866577
_cell_volume                      705.008115519

loop_
_atom_site_label
_atom_site_type_symbol
_atom_type_description
_atom_site_fract_x
_atom_site_fract_y
_atom_site_fract_z
_atom_type_partial_charge
C1    C     C_R   0.545867 0.794747 0.496822 0.964641
C2    C     C_R   0.454112 0.205240 0.503116 0.958511
C3    C     C_R   0.502176 0.508781 0.259675 0.870273
C4    C     C_R   0.159566 0.490789 0.916733 0.229845
C5    C     C_R   0.042104 0.592106 0.977378 -0.178017
C6    C     C_R   0.085941 0.682523 0.081435 -0.183967
C7    C     C_R   0.241063 0.661901 0.131283 -0.164734
C8    C     C_R   0.359274 0.558862 0.070581 0.049152
C9    C     C_3   0.090939 0.358184 0.836127 -0.862747
C10   C     C_R   0.330789 0.497729 0.951501 0.100317
C11   C     C_R   0.477341 0.451227 0.872867 -0.128496
C12   C     C_R   0.621889 0.407487 0.925362 -0.245162
C13   C     C_R   0.630683 0.428869 0.053030 -0.217631
C14   C     C_R   0.502537 0.508830 0.125299 -0.109044
C15   C     C_2   0.569901 0.958361 0.494853 -0.384665
C16   C     C_2   0.430035 0.041632 0.505087 -0.385047
C17   C     C_R   0.493918 0.480781 0.739200 0.882202
H1    H     H_    0.728014 0.359732 0.866920 0.171408
H2    H     H_    0.994731 0.283625 0.895667 0.211498
H3    H     H_    0.028406 0.404158 0.757140 0.249849
H4    H     H_    0.193205 0.280742 0.797803 0.240158
H5    H     H_    0.986073 0.619247 0.594841 0.190800
H6    H     H_    0.915782 0.598698 0.945711 0.162047
H7    H     H_    0.995441 0.761275 0.127960 0.154142
H8    H     H_    0.268561 0.728092 0.215774 0.160165
H9    H     H_    0.739507 0.386186 0.094235 0.179633
H10   H     H_    0.701884 0.009734 0.484994 0.179683
H11   H     H_    0.298048 0.990267 0.514947 0.179526
H12   H     H_    0.014000 0.381055 0.404928 0.196322
N1    N     N_2   0.950330 0.457950 0.466250 -0.177413
N2    N     N_2   0.049670 0.542050 0.533750 -0.186374
O1    O     O_R   0.389250 0.738570 0.508280 -0.614000
O2    O     O_R   0.678390 0.711630 0.486650 -0.626818
O3    O     O_R   0.355400 0.513470 0.694050 -0.609760
O4    O     O_R   0.644540 0.486530 0.672420 -0.628449
O5    O     O_R   0.321610 0.288370 0.513350 -0.632476
O6    O     O_R   0.610750 0.261430 0.491720 -0.613628
O7    O     O_R   0.355460 0.513470 0.327580 -0.625295
O8    O     O_R   0.644600 0.486530 0.305950 -0.619268
Zn1   Zn    Zn3+2 0.306930 0.517990 0.514440 0.929754
Zn2   Zn    Zn3+2 0.693070 0.482010 0.485560 0.933068

loop_
_geom_bond_atom_site_label_1
_geom_bond_atom_site_label_2
_ccdc_geom_bond_type
C16   H11   S    
C11   C12   A    
N1    Zn2   S    
C6    C7    A    
C1    C15   S    
C2    C16   S    
C9    H3    S    
C15   H10   S    
C7    H8    S    
C6    H7    S    
C3    O8    A    
C7    C8    A    
O8    Zn2   S    
C13   C14   A    
N2    Zn1   S    
O7    Zn1   S    
C2    O6    A    
C9    H4    S    
C17   O3    A    
H12   N1    S    
C3    C14   S    
O3    Zn1   S    
C5    C6    A    
O2    Zn2   S    
O1    Zn1   S    
O6    Zn2   S    
N1    N2    D    
O4    Zn2   S    
C13   H9    S    
H5    N2    S    
C1    O2    A    
C15   C16   D    
O5    Zn1   S    
C2    O5    A    
C12   C13   A    
C8    C10   A    
C10   C11   A    
C12   H1    S    
C11   C17   S    
C8    C14   A    
C17   O4    A    
C4    C9    S    
C4    C10   A    
C9    H2    S    
C1    O1    A    
C3    O7    A    
C4    C5    A    
C5    H6    S    
