data_str_m3_o40_o40_f0_fof.sym.18
_audit_creation_date              2012-12-10T16:37:23-0500
_audit_creation_method            fapswitch 2.2
_symmetry_space_group_name_H-M    P1
_symmetry_Int_Tables_number       1
_space_group_crystal_system       triclinic
_cell_length_a                    16.782594
_cell_length_b                    16.772409
_cell_length_c                    16.771224
_cell_angle_alpha                 65.292134
_cell_angle_beta                  65.290583
_cell_angle_gamma                 65.270982
_cell_volume                      3722.38768281

loop_
_atom_site_label
_atom_site_type_symbol
_atom_type_description
_atom_site_fract_x
_atom_site_fract_y
_atom_site_fract_z
_atom_type_partial_charge
C1    C     C_R   0.409386 0.025779 0.678862 0.079654
C2    C     C_R   0.407152 0.675622 0.031432 0.065323
C3    C     C_R   0.969575 0.592805 0.322534 0.077181
C4    C     C_R   0.013614 0.414810 0.681163 0.123598
C5    C     C_R   0.960556 0.179858 0.438414 0.919425
C6    C     C_R   0.039332 0.820187 0.561518 0.932655
C7    C     C_R   0.179826 0.437899 0.961751 0.906087
C8    C     C_R   0.820212 0.561764 0.039085 0.915247
C9    C     C_R   0.438346 0.960876 0.179862 0.928474
C10   C     C_R   0.561255 0.040002 0.820223 0.931166
C11   C     C_R   0.561209 0.820182 0.040125 0.927937
C12   C     C_R   0.585717 0.983567 0.319871 0.077571
C13   C     C_R   0.438780 0.179799 0.960081 0.930096
C14   C     C_R   0.038687 0.561827 0.820172 0.906410
C15   C     C_R   0.959653 0.438900 0.179764 0.928229
C16   C     C_R   0.820192 0.038807 0.561862 0.905524
C17   C     C_R   0.179782 0.960529 0.438532 0.932975
C18   C     C_R   0.443135 0.069503 0.707649 0.058255
C19   C     C_R   0.555108 0.936470 0.291805 0.082019
C20   C     C_R   0.061494 0.709561 0.445084 0.063336
C21   C     C_R   0.933381 0.292308 0.555675 0.080065
C22   C     C_R   0.709090 0.444376 0.064905 0.075718
C23   C     C_R   0.013449 0.682657 0.414587 0.079055
C24   C     C_R   0.289347 0.553186 0.943115 0.087554
C25   C     C_R   0.290749 0.936399 0.555657 0.060631
C26   C     C_R   0.709183 0.063410 0.444699 0.087580
C27   C     C_R   0.557070 0.292396 0.931843 0.060774
C28   C     C_R   0.442455 0.706439 0.072032 0.058392
C29   C     C_R   0.927583 0.557879 0.292921 0.059835
C30   C     C_R   0.060450 0.445120 0.709668 0.088265
C31   C     C_R   0.538269 0.031367 0.539598 -0.075119
C32   C     C_R   0.459292 0.972386 0.460786 -0.072089
C33   C     C_R   0.025007 0.541366 0.540193 -0.075583
C34   C     C_R   0.979621 0.320968 0.586588 0.078925
C35   C     C_R   0.965832 0.462849 0.461090 -0.073261
C36   C     C_R   0.538605 0.538205 0.033030 -0.082472
C37   C     C_R   0.460435 0.459039 0.973436 -0.082101
C38   C     C_R   0.587930 0.013699 0.453200 0.009274
C39   C     C_R   0.409511 0.989637 0.547469 0.054101
C40   C     C_R   0.008466 0.454615 0.589414 0.008600
C41   C     C_R   0.979703 0.551092 0.412596 0.052907
C42   C     C_R   0.449776 0.585669 0.020861 0.047237
C43   C     C_R   0.549107 0.411267 0.985988 0.052014
C44   C     C_R   0.546119 0.988814 0.411512 0.013875
C45   C     C_R   0.681398 0.414485 0.017278 0.134753
C46   C     C_R   0.450408 0.016697 0.588516 0.053813
C47   C     C_R   0.409087 0.543642 0.994876 0.018920
C48   C     C_R   0.589622 0.452727 0.013010 0.040543
C49   C     C_R   0.983528 0.413049 0.547527 0.013724
C50   C     C_R   0.007041 0.591608 0.453823 0.051559
C51   C     C_R   0.536560 0.065215 0.670543 0.065121
C52   C     C_R   0.462182 0.938329 0.329263 0.031829
C53   C     C_R   0.060692 0.671490 0.537624 0.062444
C54   C     C_R   0.935348 0.329871 0.462715 0.033198
C55   C     C_R   0.670690 0.537028 0.064450 0.021883
C56   C     C_R   0.316562 0.580656 0.993163 0.144129
C57   C     C_R   0.328564 0.461433 0.940611 0.019108
C58   C     C_R   0.328614 0.937972 0.462869 0.063157
C59   C     C_R   0.670814 0.062873 0.537489 0.019147
C60   C     C_R   0.463409 0.329100 0.936657 0.065994
C61   C     C_R   0.536269 0.669955 0.066482 0.070341
C62   C     C_R   0.933008 0.464112 0.329693 0.066458
C63   C     C_R   0.060156 0.537881 0.671336 0.023229
C64   C     C_R   0.588116 0.066901 0.719765 -0.100971
C65   C     C_R   0.411385 0.934828 0.280307 -0.113062
C66   C     C_R   0.065069 0.719875 0.588403 -0.099641
C67   C     C_R   0.318522 0.982926 0.587157 0.080987
C68   C     C_R   0.933615 0.280372 0.411427 -0.112591
C69   C     C_R   0.719846 0.588593 0.066137 -0.126836
C70   C     C_R   0.280077 0.410859 0.936151 -0.129208
C71   C     C_R   0.280067 0.934443 0.411721 -0.101957
C72   C     C_R   0.719868 0.065302 0.588793 -0.128939
C73   C     C_R   0.412070 0.280235 0.933764 -0.098461
C74   C     C_R   0.587996 0.719604 0.067371 -0.105827
C75   C     C_R   0.932268 0.412149 0.280258 -0.102968
C76   C     C_R   0.064374 0.588701 0.719869 -0.130040
C77   C     C_R   0.675648 0.074066 0.675793 -0.309924
C78   C     C_R   0.680068 0.017506 0.413969 0.126613
C79   C     C_R   0.324446 0.926072 0.324579 -0.316555
C80   C     C_R   0.073763 0.675419 0.675380 -0.312348
C81   C     C_R   0.925428 0.324411 0.324183 -0.330835
C82   C     C_R   0.675640 0.675781 0.074385 -0.310175
C83   C     C_R   0.324679 0.324377 0.926192 -0.312340
C84   C     C_R   0.581760 0.053248 0.582458 -0.003522
C85   C     C_R   0.416759 0.949512 0.417712 -0.015477
C86   C     C_R   0.048668 0.583483 0.583011 -0.005540
C87   C     C_R   0.944614 0.419107 0.417892 -0.015463
C88   C     C_R   0.581634 0.581681 0.054827 -0.003327
C89   C     C_R   0.591444 0.321634 0.974774 0.074169
C90   C     C_R   0.417665 0.416520 0.950135 -0.005088
H1    H     H_    0.713780 0.075085 0.713872 0.191641
H2    H     H_    0.605693 0.108268 0.249203 0.192364
H3    H     H_    0.903753 0.795842 0.408284 0.178615
H4    H     H_    0.985981 0.794879 0.306941 0.172673
H5    H     H_    0.034183 0.186544 0.656449 0.179172
H6    H     H_    0.104363 0.252026 0.606674 0.189008
H7    H     H_    0.792471 0.409455 0.905674 0.173329
H8    H     H_    0.794635 0.308346 0.988717 0.182810
H9    H     H_    0.181441 0.644122 0.052570 0.168197
H10   H     H_    0.246027 0.581471 0.124222 0.177397
H11   H     H_    0.203711 0.090333 0.600414 0.178802
H12   H     H_    0.286723 0.924087 0.286674 0.192881
H13   H     H_    0.209537 0.004708 0.699003 0.175612
H14   H     H_    0.813860 0.964090 0.341640 0.166710
H15   H     H_    0.748369 0.894067 0.390674 0.177583
H16   H     H_    0.625787 0.201696 0.071409 0.177658
H17   H     H_    0.714265 0.223203 0.976924 0.175876
H18   H     H_    0.281778 0.770665 0.033684 0.180647
H19   H     H_    0.367314 0.795466 0.937030 0.175113
H20   H     H_    0.066818 0.626248 0.203210 0.174970
H21   H     H_    0.972371 0.715161 0.223549 0.175353
H22   H     H_    0.961292 0.342127 0.815165 0.167338
H23   H     H_    0.076367 0.713006 0.713060 0.189500
H24   H     H_    0.890474 0.391223 0.750475 0.178247
H25   H     H_    0.333354 0.178568 0.732175 0.183329
H26   H     H_    0.343298 0.088344 0.826662 0.192469
H27   H     H_    0.686832 0.878393 0.220627 0.172791
H28   H     H_    0.616512 0.813662 0.266477 0.169208
H29   H     H_    0.169509 0.730306 0.332753 0.168806
H30   H     H_    0.082013 0.826599 0.342754 0.190370
H31   H     H_    0.876247 0.219902 0.687155 0.173588
H32   H     H_    0.811500 0.265288 0.616854 0.168089
H33   H     H_    0.768017 0.404930 0.166874 0.189789
H34   H     H_    0.925029 0.286036 0.285952 0.190807
H35   H     H_    0.827866 0.345892 0.087721 0.200300
H36   H     H_    0.173212 0.654533 0.916278 0.199473
H37   H     H_    0.235227 0.596307 0.836729 0.186841
H38   H     H_    0.268564 0.828201 0.667409 0.183813
H39   H     H_    0.173014 0.916755 0.657175 0.191970
H40   H     H_    0.827031 0.089644 0.345925 0.201845
H41   H     H_    0.764980 0.167597 0.405921 0.186124
H42   H     H_    0.666499 0.267713 0.822532 0.168583
H43   H     H_    0.656760 0.173300 0.913015 0.192728
H44   H     H_    0.343257 0.826331 0.088984 0.190920
H45   H     H_    0.713872 0.714071 0.074866 0.192047
H46   H     H_    0.333956 0.733259 0.181251 0.168373
H47   H     H_    0.818436 0.666806 0.266757 0.168308
H48   H     H_    0.909802 0.656902 0.173135 0.193363
H49   H     H_    0.087718 0.345946 0.827009 0.201397
H50   H     H_    0.165908 0.405508 0.764025 0.185755
H51   H     H_    0.286891 0.286684 0.923984 0.189980
H52   H     H_    0.382940 0.924618 0.796939 0.179130
H53   H     H_    0.290466 0.016303 0.781666 0.175253
H54   H     H_    0.656713 0.036331 0.185418 0.178680
N1    N     N_3   0.349278 0.973071 0.748273 -0.449738
N2    N     N_3   0.339833 0.742487 0.985934 -0.430117
N3    N     N_3   0.018215 0.656847 0.254126 -0.454926
N4    N     N_3   0.958879 0.355568 0.749394 -0.430002
N5    N     N_3   0.380420 0.126648 0.766168 -0.435933
N6    N     N_3   0.619718 0.881038 0.231875 -0.421610
N7    N     N_3   0.120108 0.765715 0.379701 -0.433333
N8    N     N_3   0.878958 0.231387 0.619912 -0.421972
N9    N     N_3   0.762265 0.376104 0.125712 -0.442518
N10   N     N_3   0.239501 0.623548 0.880154 -0.446658
N11   N     N_3   0.233718 0.878403 0.620305 -0.433825
N12   N     N_3   0.643069 0.039970 0.250820 -0.425428
N13   N     N_3   0.760718 0.125866 0.376686 -0.436670
N14   N     N_3   0.619542 0.233776 0.874730 -0.437877
N15   N     N_3   0.380743 0.766598 0.127744 -0.436549
N16   N     N_3   0.871299 0.619693 0.233355 -0.439798
N17   N     N_3   0.123466 0.376676 0.760420 -0.450035
N18   N     N_3   0.950321 0.754069 0.366243 -0.453842
N19   N     N_3   0.036386 0.252281 0.643760 -0.428110
N20   N     N_3   0.752197 0.366433 0.953656 -0.458766
N21   N     N_3   0.246464 0.627328 0.058593 -0.453712
N22   N     N_3   0.247927 0.042841 0.639618 -0.451068
N23   N     N_3   0.747910 0.962339 0.354937 -0.429388
N24   N     N_3   0.655815 0.253156 0.023112 -0.445046
O1    O     O_R   0.982940 0.138950 0.510160 -0.600013
O2    O     O_R   0.982940 0.510160 0.138950 -0.617894
O3    O     O_R   0.861050 0.017060 0.489840 -0.646289
O4    O     O_R   0.138950 0.982940 0.510160 -0.622823
O5    O     O_R   0.867700 0.025880 0.612340 -0.614134
O6    O     O_R   0.132300 0.974120 0.387660 -0.626619
O7    O     O_R   0.025880 0.612340 0.867700 -0.626145
O8    O     O_R   0.974120 0.387660 0.132300 -0.633878
O9    O     O_R   0.612340 0.867700 0.025880 -0.623031
O10   O     O_R   0.387660 0.132300 0.974120 -0.628216
O11   O     O_R   0.387660 0.974120 0.132300 -0.628934
O12   O     O_R   0.017060 0.861050 0.489840 -0.622262
O13   O     O_R   0.612340 0.025880 0.867700 -0.627997
O14   O     O_R   0.132300 0.387660 0.974120 -0.625831
O15   O     O_R   0.867700 0.612340 0.025880 -0.617447
O16   O     O_R   0.974120 0.132300 0.387660 -0.637152
O17   O     O_R   0.025880 0.867700 0.612340 -0.626491
O18   O     O_R   0.138950 0.510160 0.982940 -0.641138
O19   O     O_R   0.861050 0.489840 0.017060 -0.642684
O20   O     O_R   0.510160 0.982940 0.138950 -0.603216
O21   O     O_R   0.489840 0.017060 0.861050 -0.623988
O22   O     O_R   0.489840 0.861050 0.017060 -0.622526
O23   O     O_R   0.510160 0.138950 0.982940 -0.623095
O24   O     O_R   0.017060 0.489840 0.861050 -0.639252
Zn1   Zn    Zn3+2 0.004880 0.004880 0.583590 0.931443
Zn2   Zn    Zn3+2 0.995120 0.995120 0.416410 0.900865
Zn3   Zn    Zn3+2 0.004880 0.583590 0.004880 0.901647
Zn4   Zn    Zn3+2 0.995120 0.416410 0.995120 0.892382
Zn5   Zn    Zn3+2 0.583590 0.004880 0.004880 0.930650
Zn6   Zn    Zn3+2 0.416410 0.995120 0.995120 0.910007

loop_
_geom_bond_atom_site_label_1
_geom_bond_atom_site_label_2
_ccdc_geom_bond_type
O21   Zn6   S    
C16   O5    A    
C15   C75   S    
C3    N3    S    
C2    N2    S    
C65   C79   A    
O19   Zn4   S    
C25   N11   S    
C64   C77   A    
C7    O18   A    
C36   C42   A    
H19   N2    S    
C25   C67   A    
C9    O20   A    
O13   Zn5   S    
C7    C70   S    
C71   C79   A    
C17   O4    A    
C54   C87   A    
C36   C88   A    
C27   N14   S    
C6    O17   A    
C1    C18   A    
C26   C78   A    
C37   C90   A    
H40   N13   S    
C68   C81   A    
O24   Zn4   S    
C52   C85   A    
C45   N20   S    
C12   N12   S    
H21   N3    S    
C27   C60   A    
C5    C68   S    
O2    Zn3   S    
C58   C71   A    
C21   N8    S    
C54   C68   A    
C63   C76   A    
C13   O10   A    
C4    N4    S    
C60   C73   A    
C82   H45   S    
C19   N6    S    
C26   N13   S    
H41   N13   S    
H43   N14   S    
C32   C39   A    
C55   C88   A    
H28   N6    S    
C69   C82   A    
H38   N11   S    
C29   C62   A    
H46   N15   S    
C35   C87   A    
C19   C52   A    
C3    C41   A    
C4    C40   A    
H35   N9    S    
C24   C57   A    
C34   C49   A    
C31   C46   A    
C16   C72   S    
C56   N21   S    
C35   C49   A    
O15   Zn3   S    
C79   H12   S    
C36   C48   A    
H27   N6    S    
C11   O9    A    
C57   C70   A    
C37   C47   A    
C18   N5    S    
C43   C48   A    
H4    N18   S    
C5    O16   A    
C9    O11   A    
C59   C72   A    
C23   N18   S    
C14   O24   A    
C28   C61   A    
H44   N15   S    
O10   Zn6   S    
O9    Zn5   S    
C30   C63   A    
C8    O15   A    
H52   N1    S    
O4    Zn1   S    
C74   C82   A    
O3    Zn2   S    
C35   C41   A    
H37   N10   S    
O7    Zn3   S    
H26   N5    S    
C24   N10   S    
C18   C51   A    
C29   N16   S    
H18   N2    S    
C8    O19   A    
H29   N7    S    
C10   O21   A    
C57   C90   A    
C81   H34   S    
C33   C40   A    
H6    N19   S    
C76   C80   A    
O18   Zn3   S    
H49   N17   S    
C59   C84   A    
C34   N19   S    
H39   N11   S    
C75   C81   A    
C23   C50   A    
O1    Zn1   S    
C21   C34   A    
C38   C78   A    
H50   N17   S    
C28   N15   S    
H42   N14   S    
C31   C84   A    
H22   N4    S    
C15   O2    A    
H10   N21   S    
H3    N18   S    
H16   N24   S    
H54   N12   S    
C33   C86   A    
C89   N24   S    
C38   C44   A    
C14   O7    A    
C70   C83   A    
C61   C88   A    
H5    N19   S    
C20   C23   A    
H7    N20   S    
H25   N5    S    
C8    C69   S    
H2    N12   S    
C43   C89   A    
O8    Zn4   S    
C53   C66   A    
H48   N16   S    
C55   C69   A    
C39   C46   A    
H36   N10   S    
C67   N22   S    
C13   C73   S    
C17   C71   S    
C63   C86   A    
O5    Zn1   S    
C37   C43   A    
O14   Zn4   S    
C1    N1    S    
H20   N3    S    
C58   C85   A    
C41   C50   A    
O12   Zn2   S    
C17   O6    A    
O22   Zn6   S    
C83   H51   S    
H33   N9    S    
C45   C48   A    
H53   N1    S    
H17   N24   S    
C77   H1    S    
H30   N7    S    
C7    O14   A    
H47   N16   S    
C6    O12   A    
C39   C67   A    
C10   C64   S    
C51   C64   A    
O23   Zn5   S    
O17   Zn1   S    
C20   C53   A    
C11   C74   S    
C72   C77   A    
H8    N20   S    
C53   C86   A    
H31   N8    S    
C31   C38   A    
O6    Zn2   S    
C22   C55   A    
O11   Zn6   S    
C60   C90   A    
C61   C74   A    
C24   C56   A    
C66   C80   A    
C62   C87   A    
C13   O23   A    
C20   N7    S    
C15   O8    A    
C11   O22   A    
C33   C50   A    
H24   N4    S    
C12   C44   A    
H14   N23   S    
C16   O3    A    
C3    C29   A    
C21   C54   A    
O20   Zn5   S    
C2    C42   A    
O16   Zn2   S    
C32   C85   A    
C12   C19   A    
C27   C89   A    
C42   C47   A    
H11   N22   S    
C1    C46   A    
C9    C65   S    
C78   N23   S    
C52   C65   A    
H15   N23   S    
C6    C66   S    
C22   C45   A    
C80   H23   S    
C32   C44   A    
H13   N22   S    
C25   C58   A    
C10   O13   A    
C5    O1    A    
C26   C59   A    
C2    C28   A    
C30   N17   S    
C51   C84   A    
C73   C83   A    
C4    C30   A    
C62   C75   A    
C40   C49   A    
C14   C76   S    
C47   C56   A    
H9    N21   S    
C22   N9    S    
H32   N8    S    
