data_str_m2_o14_o16_f0_pcu.sym.109
_audit_creation_date              2012-12-10T17:18:52-0500
_audit_creation_method            fapswitch 2.2
_symmetry_space_group_name_H-M    P1
_symmetry_Int_Tables_number       1
_space_group_crystal_system       triclinic
_cell_length_a                    9.617302
_cell_length_b                    10.767506
_cell_length_c                    13.32102
_cell_angle_alpha                 92.435965
_cell_angle_beta                  72.491434
_cell_angle_gamma                 90.122476
_cell_volume                      1314.27160374

loop_
_atom_site_label
_atom_site_type_symbol
_atom_type_description
_atom_site_fract_x
_atom_site_fract_y
_atom_site_fract_z
_atom_type_partial_charge
C1    C     C_R   0.498712 0.737332 0.503336 0.776965
C2    C     C_R   0.443771 0.505750 0.978602 0.132035
C3    C     C_R   0.466277 0.545739 0.875340 0.100169
C4    C     C_R   0.550176 0.532741 0.030555 0.013191
C5    C     C_R   0.653732 0.627792 0.992203 0.062317
C6    C     C_R   0.667154 0.673787 0.892675 -0.193385
C7    C     C_R   0.576804 0.632003 0.834722 -0.210646
C8    C     C_R   0.557253 0.468027 0.119297 -0.095496
C9    C     C_R   0.721395 0.624331 0.153346 -0.254426
C10   C     C_R   0.374991 0.500512 0.816387 -0.100637
C11   C     C_R   0.288271 0.879082 0.674145 -0.193961
C12   C     C_R   0.421418 0.503459 0.700585 0.757558
C13   C     C_R   0.186922 0.948089 0.753904 -0.123703
C14   C     C_R   0.186521 0.077268 0.753609 -0.114598
C15   C     C_R   0.287359 0.138202 0.673484 -0.169039
C16   C     C_R   0.389869 0.070164 0.590899 0.095571
C17   C     C_R   0.390254 0.938852 0.591210 0.099075
C18   C     C_R   0.496132 0.871471 0.510265 -0.097605
C19   C     C_R   0.602780 0.932539 0.433857 -0.187374
C20   C     C_R   0.602544 0.060656 0.433630 -0.168312
C21   C     C_R   0.495604 0.129430 0.509763 -0.093334
C22   C     C_R   0.913639 0.336238 0.359268 -0.130479
C23   C     C_R   0.498683 0.262915 0.502842 0.805663
C24   C     C_R   0.013582 0.255127 0.290952 -0.224430
C25   C     C_R   0.156268 0.253342 0.292186 -0.198584
C26   C     C_R   0.199979 0.333307 0.361205 -0.130635
C27   C     C_R   0.102548 0.418431 0.431609 0.194648
C28   C     C_R   0.953404 0.419123 0.431140 0.210948
C29   C     C_R   0.899304 0.577528 0.565192 -0.039908
C30   C     C_R   0.047044 0.577509 0.565183 -0.050407
C31   C     C_R   0.578734 0.502409 0.300047 0.867920
C32   C     C_R   0.741816 0.672342 0.054229 0.007723
C33   C     C_R   0.625520 0.526455 0.187677 -0.120814
C34   C     C_R   0.246215 0.438616 0.867676 -0.190209
C35   C     C_R   0.212636 0.415582 0.974320 -0.109918
C36   C     C_R   0.311183 0.446939 0.029199 -0.100286
Cu1   Cu    Cu3+1 0.359340 0.500010 0.500010 0.940263
Cu2   Cu    Cu3+1 0.640660 0.499990 0.499990 0.943735
H1    H     H_    0.776079 0.667124 0.206139 0.178363
H2    H     H_    0.287300 0.779167 0.679511 0.137535
H3    H     H_    0.109509 0.901138 0.816854 0.160248
H4    H     H_    0.108872 0.130599 0.816399 0.146593
H5    H     H_    0.285498 0.238586 0.678218 0.147084
H6    H     H_    0.684390 0.106433 0.372319 0.154450
H7    H     H_    0.822523 0.641486 0.618423 0.131381
H8    H     H_    0.806939 0.329713 0.352198 0.202880
H9    H     H_    0.979671 0.192900 0.236899 0.163362
H10   H     H_    0.234017 0.189611 0.239112 0.181452
H11   H     H_    0.311302 0.324385 0.356014 0.235427
H12   H     H_    0.749109 0.740619 0.857027 0.177360
H13   H     H_    0.079989 0.641138 0.618651 0.134277
H14   H     H_    0.173027 0.405450 0.824778 0.149822
H15   H     H_    0.282097 0.426535 0.111751 0.135389
H16   H     H_    0.112177 0.369340 0.013774 0.146850
H17   H     H_    0.589354 0.673735 0.760145 0.151353
H18   H     H_    0.684694 0.880496 0.372658 0.153979
N1    N     N_R   0.852480 0.498790 0.499000 -0.200075
N2    N     N_R   0.148360 0.498710 0.498970 -0.200702
O1    O     O_R   0.381190 0.680360 0.500010 -0.575188
O2    O     O_R   0.618760 0.680340 0.500000 -0.582729
O3    O     O_R   0.323240 0.499990 0.650990 -0.591452
O4    O     O_R   0.560820 0.499960 0.650980 -0.568017
O5    O     O_R   0.381240 0.319660 0.500000 -0.598548
O6    O     O_R   0.618810 0.319640 0.499990 -0.588922
O7    O     O_R   0.439180 0.500040 0.349020 -0.585616
O8    O     O_R   0.676760 0.500010 0.349010 -0.602066
C37   C     C_2   0.847053 0.775381 0.024157 0.801246
O9    O     O_2   0.814948 0.868533 0.986220 -0.612962
O10   O     O_R   0.981009 0.768098 0.044730 -0.762576
H19   H     H_    0.043001 0.844268 0.022530 0.328538
C38   C     C_2   0.529017 0.330998 0.126202 0.796237
O11   O     O_2   0.532767 0.276516 0.204038 -0.649057
O12   O     O_R   0.512077 0.261720 0.039443 -0.749234
H20   H     H_    0.497063 0.169992 0.053060 0.343722

loop_
_geom_bond_atom_site_label_1
_geom_bond_atom_site_label_2
_ccdc_geom_bond_type
C19   H18   S    
C31   O8    A    
C30   H13   S    
C16   C21   A    
O12   H20   S    
C35   C36   A    
C7    H17   S    
C4    C8    A    
C13   H3    S    
C28   N1    A    
C1    C18   S    
Cu1   Cu2   S    
C34   C35   A    
C3    C7    A    
C1    O1    A    
C5    C6    A    
C15   C16   A    
C9    H1    S    
C18   C19   A    
C36   H15   S    
C9    C32   A    
Cu1   O5    S    
Cu2   O8    S    
C16   C17   A    
Cu1   O7    S    
C31   C33   S    
Cu1   N2    S    
C14   H4    S    
C5    C32   A    
C23   O5    A    
C22   C28   A    
C13   C14   A    
C35   H16   S    
C9    C33   A    
O10   H19   S    
C20   H6    S    
Cu2   O6    S    
C37   O9    D    
C24   C25   A    
C26   H11   S    
C38   O12   S    
C25   C26   A    
C29   H7    S    
C37   O10   S    
C2    C4    A    
C29   C30   A    
Cu2   N1    S    
C12   O4    A    
C17   C18   A    
C26   C27   A    
C10   C34   A    
C6    H12   S    
C25   H10   S    
Cu1   O1    S    
C10   C12   S    
C32   C37   S    
Cu2   O2    S    
C23   O6    A    
C22   H8    S    
C29   N1    A    
C21   C23   S    
C22   C24   A    
C1    O2    A    
C2    C36   A    
C31   O7    A    
C11   C17   A    
C8    C38   S    
C24   H9    S    
C4    C5    A    
C27   N2    A    
Cu1   O3    S    
C6    C7    A    
C34   H14   S    
C19   C20   A    
C2    C3    A    
C15   H5    S    
C38   O11   D    
C3    C10   A    
C12   O3    A    
C11   C13   A    
C30   N2    A    
C8    C33   A    
C11   H2    S    
C20   C21   A    
C27   C28   A    
C14   C15   A    
Cu2   O4    S    
