data_str_m4_o14_o22_f0_acs.sym.150
_audit_creation_date              2012-12-11T14:23:02-0500
_audit_creation_method            fapswitch 2.2
_symmetry_space_group_name_H-M    P1
_symmetry_Int_Tables_number       1
_space_group_crystal_system       triclinic
_cell_length_a                    10.923973
_cell_length_b                    10.967196
_cell_length_c                    18.865885
_cell_angle_alpha                 90.061827
_cell_angle_beta                  89.674893
_cell_angle_gamma                 60.397405
_cell_volume                      1965.16022222

loop_
_atom_site_label
_atom_site_type_symbol
_atom_type_description
_atom_site_fract_x
_atom_site_fract_y
_atom_site_fract_z
_atom_type_partial_charge
C1    C     C_R   0.237938 0.644694 0.610477 0.530531
C2    C     C_3   0.615449 0.602942 0.800709 -0.261162
C3    C     C_3   0.703455 0.675941 0.811044 0.014660
C4    C     C_3   0.673063 0.649222 0.675412 0.066484
C5    C     C_3   0.831710 0.574857 0.694375 -0.277613
C6    C     C_3   0.602365 0.582038 0.721098 -0.222813
C7    C     C_R   0.690205 0.154261 0.822471 -0.012086
C8    C     C_R   0.803406 0.147459 0.781859 0.020590
C9    C     C_R   0.796100 0.146530 0.706417 0.017566
C10   C     C_R   0.562266 0.174253 0.715164 -0.146861
C11   C     C_R   0.569622 0.173174 0.787221 -0.159411
C12   C     C_R   0.655114 0.623146 0.600256 0.567665
C13   C     C_R   0.923656 0.140371 0.813180 -0.093488
C14   C     C_R   0.038188 0.119091 0.771576 -0.144633
C15   C     C_R   0.034616 0.107805 0.698376 -0.144176
C16   C     C_R   0.915574 0.120190 0.665947 -0.087069
C17   C     C_R   0.670284 0.168942 0.673704 -0.017141
C18   C     C_R   0.189188 0.663411 0.836136 -0.006105
C19   C     C_R   0.201978 0.544667 0.799941 0.023034
C20   C     C_R   0.194007 0.546013 0.724676 0.019543
C21   C     C_R   0.204216 0.762273 0.724872 -0.163669
C22   C     C_R   0.200514 0.765890 0.797860 -0.161601
C23   C     C_R   0.629771 0.225626 0.602046 0.547992
C24   C     C_R   0.220059 0.425642 0.837173 -0.090361
C25   C     C_R   0.214235 0.317480 0.802222 -0.147424
C26   C     C_R   0.192540 0.324657 0.729568 -0.148372
C27   C     C_R   0.180827 0.437914 0.691062 -0.104239
C28   C     C_R   0.199162 0.655437 0.686532 -0.009967
C29   C     C_R   0.646131 0.665526 0.164688 0.015688
C30   C     C_R   0.702932 0.526760 0.189195 0.065616
C31   C     C_R   0.724300 0.502686 0.262749 -0.024283
C32   C     C_R   0.579069 0.753296 0.284662 -0.134727
C33   C     C_R   0.590963 0.776918 0.213382 -0.168429
C34   C     C_R   0.221044 0.652348 0.401224 0.534168
C35   C     C_R   0.760315 0.411129 0.141560 0.257944
C36   C     C_R   0.874769 0.284640 0.163473 -0.088291
C37   C     C_R   0.914804 0.267332 0.233896 -0.179555
C38   C     C_R   0.834745 0.369709 0.283901 -0.145747
C39   C     C_R   0.642845 0.616447 0.310457 0.005835
C40   C     C_R   0.645916 0.164765 0.174204 0.046377
C41   C     C_R   0.505510 0.247065 0.198221 -0.018438
C42   C     C_R   0.480710 0.267104 0.271539 0.007149
C43   C     C_R   0.732722 0.148706 0.292637 -0.138133
C44   C     C_R   0.756904 0.102998 0.223277 0.207539
C45   C     C_R   0.621969 0.592912 0.385325 0.544187
C46   C     C_R   0.389012 0.294290 0.152114 -0.084968
C47   C     C_R   0.260787 0.315031 0.177732 -0.118226
C48   C     C_R   0.241392 0.310840 0.250170 -0.150278
C49   C     C_R   0.344564 0.300841 0.296785 -0.090709
C50   C     C_R   0.597279 0.239196 0.315840 -0.018301
C51   C     C_R   0.147170 0.671413 0.183599 0.019825
C52   C     C_R   0.217550 0.737924 0.212768 0.029733
C53   C     C_R   0.199111 0.769375 0.285139 0.024646
C54   C     C_R   0.097204 0.617481 0.301071 -0.161482
C55   C     C_R   0.079880 0.619715 0.228260 -0.122143
C56   C     C_R   0.580540 0.289391 0.387839 0.548461
C57   C     C_R   0.280264 0.797799 0.169587 -0.061014
C58   C     C_R   0.286321 0.914820 0.192951 -0.105406
C59   C     C_R   0.250191 0.960084 0.262454 -0.154230
C60   C     C_R   0.207122 0.888891 0.308294 -0.100816
C61   C     C_R   0.162905 0.686386 0.329953 -0.001395
C62   C     C_R   0.702895 0.102358 0.895787 0.531720
C63   C     C_R   0.725466 0.689011 0.887504 0.556370
C64   C     C_R   0.121250 0.704495 0.906470 0.532549
C65   C     C_R   0.674674 0.107370 0.103425 0.574756
C66   C     C_R   0.693863 0.689320 0.096367 0.604193
C67   C     C_3   0.627648 0.822839 0.774786 -0.201413
C68   C     C_R   0.094315 0.708234 0.112200 0.555679
C69   C     C_3   0.609693 0.807761 0.694300 0.099408
C70   C     C_3   0.848994 0.588530 0.773880 -0.234843
Cr1   Cr    Cr6+3 0.392940 0.397950 0.502230 0.996735
Cr2   Cr    Cr6+3 0.398400 0.708500 0.501260 1.030658
Cr3   Cr    Cr6+3 0.708640 0.393530 0.496460 0.985324
Cr4   Cr    Cr6+3 0.937880 0.938320 0.007620 1.015139
Cr5   Cr    Cr6+3 0.625560 0.937220 0.994510 0.998371
Cr6   Cr    Cr6+3 0.938080 0.625010 0.001190 1.010335
H1    H     H_    0.691334 0.875657 0.782204 0.117353
H2    H     H_    0.653376 0.467553 0.709654 0.140067
H3    H     H_    0.906514 0.481468 0.797042 0.166659
H4    H     H_    0.884900 0.461105 0.680906 0.163540
H5    H     H_    0.467097 0.185173 0.692037 0.182558
H6    H     H_    0.930894 0.153281 0.869370 0.137854
H7    H     H_    0.482142 0.176265 0.815308 0.158385
H8    H     H_    0.132733 0.104595 0.796589 0.097059
H9    H     H_    0.126288 0.084144 0.666427 0.122696
H10   H     H_    0.921019 0.102621 0.609365 0.135345
H11   H     H_    0.215908 0.842490 0.698214 0.150066
H12   H     H_    0.523550 0.890871 0.800466 0.141104
H13   H     H_    0.243310 0.413035 0.893220 0.126967
H14   H     H_    0.199812 0.853678 0.824411 0.140756
H15   H     H_    0.230969 0.226529 0.831907 0.099158
H16   H     H_    0.189420 0.240322 0.702163 0.127327
H17   H     H_    0.156591 0.440379 0.635606 0.140346
H18   H     H_    0.527170 0.842284 0.320276 0.149406
H19   H     H_    0.558051 0.883029 0.196428 0.144838
H20   H     H_    0.930809 0.198576 0.126628 0.142948
H21   H     H_    0.000692 0.169095 0.251146 0.135015
H22   H     H_    0.869524 0.341405 0.337411 0.167283
H23   H     H_    0.820545 0.110085 0.328961 0.121393
H24   H     H_    0.398532 0.304690 0.095643 0.133738
H25   H     H_    0.175723 0.336826 0.141641 0.120463
H26   H     H_    0.141310 0.327821 0.270520 0.107394
H27   H     H_    0.314558 0.312381 0.351652 0.165817
H28   H     H_    0.059116 0.563086 0.334662 0.123183
H29   H     H_    0.310527 0.763926 0.115206 0.124782
H30   H     H_    0.014870 0.579516 0.206796 0.144620
H31   H     H_    0.670058 0.848872 0.664734 0.150018
H32   H     H_    0.319828 0.969955 0.157176 0.118722
H33   H     H_    0.254506 0.051241 0.280925 0.111188
H34   H     H_    0.169061 0.937171 0.359564 0.140361
H35   H     H_    0.913690 0.639910 0.782167 0.143638
H36   H     H_    0.885409 0.621864 0.663777 0.104139
H37   H     H_    0.666168 0.499381 0.827758 0.133415
H38   H     H_    0.508907 0.667699 0.824568 0.119387
H39   H     H_    0.489826 0.626793 0.707195 0.136925
O1    O     O_R   0.507340 0.255690 0.581430 -0.508637
O2    O     O_R   0.524510 0.695820 0.424050 -0.496126
O3    O     O_R   0.736370 0.504260 0.414810 -0.541835
O4    O     O_R   0.691220 0.277270 0.422180 -0.523019
O5    O     O_3   0.499990 0.499990 0.499980 -0.278645
O6    O     O_R   0.089570 0.825450 0.930590 -0.529409
O7    O     O_R   0.818700 0.054260 0.929860 -0.519538
O8    O     O_R   0.606310 0.077010 0.915520 -0.538282
O9    O     O_R   0.646730 0.806540 0.917560 -0.511505
O10   O     O_R   0.837290 0.593240 0.915240 -0.517330
O11   O     O_R   0.065320 0.635310 0.931580 -0.516013
O12   O     O_R   0.280360 0.527380 0.578910 -0.511715
O13   O     O_R   0.068470 0.828620 0.091850 -0.483337
O14   O     O_R   0.799150 0.057200 0.079350 -0.456669
O15   O     O_R   0.585220 0.080180 0.076770 -0.547147
O16   O     O_R   0.627170 0.809480 0.067050 -0.514125
O17   O     O_R   0.816200 0.596410 0.076500 -0.486273
O18   O     O_R   0.045770 0.638240 0.081070 -0.523243
O19   O     O_3   0.833840 0.833520 0.001110 -0.246867
O20   O     O_R   0.260600 0.739610 0.584580 -0.516938
O21   O     O_R   0.532370 0.695050 0.573830 -0.445499
O22   O     O_R   0.744850 0.503430 0.576380 -0.537918
O23   O     O_R   0.699080 0.276500 0.571950 -0.508983
O24   O     O_R   0.498860 0.256520 0.419860 -0.528093
O25   O     O_R   0.272490 0.528150 0.429140 -0.528084
O26   O     O_R   0.252110 0.740440 0.423010 -0.537485
O27   O     O_3   0.707853 0.426893 0.073602 -0.710512
H40   H     H_    0.760390 0.336401 0.047826 0.315893
O28   O     O_3   0.468050 0.889393 0.674022 -0.707050
H41   H     H_    0.410302 0.866135 0.705893 0.317063
O29   O     O_3   0.888435 0.997561 0.202664 -0.672197
H42   H     H_    0.949428 0.962563 0.244707 0.318153

loop_
_geom_bond_atom_site_label_1
_geom_bond_atom_site_label_2
_ccdc_geom_bond_type
C45   O3    A    
C57   H29   S    
C21   H11   S    
C34   O26   A    
C8    C13   A    
C47   H25   S    
Cr6   O11   S    
C41   C42   A    
C23   O23   A    
C32   H18   S    
C35   C36   A    
C67   H1    S    
C14   H8    S    
C38   H22   S    
C24   H13   S    
C37   H21   S    
C65   O15   A    
C69   H31   S    
Cr5   O19   S    
C7    C8    A    
C69   O28   S    
C7    C11   A    
C26   C27   A    
C17   C23   S    
Cr1   O5    S    
Cr5   O8    S    
C54   H28   S    
C36   C37   A    
C9    C16   A    
C43   H23   S    
C66   O16   A    
C30   C31   A    
C2    H37   S    
Cr3   O4    S    
Cr2   O21   S    
Cr3   O23   S    
C10   C17   A    
C26   H16   S    
C15   C16   A    
C29   C33   A    
C18   C19   A    
C32   C39   A    
C62   O8    A    
C23   O1    A    
C54   C55   A    
C53   C61   A    
Cr4   O13   S    
C19   C20   A    
C8    C9    A    
Cr2   O2    S    
C1    C28   S    
C44   O29   S    
C41   C46   A    
C4    C12   S    
C68   O13   A    
C58   H32   S    
Cr5   O15   S    
C39   C45   S    
C68   O18   A    
C42   C49   A    
C59   C60   A    
Cr3   O5    S    
C13   C14   A    
C16   H10   S    
Cr6   O10   S    
Cr1   O12   S    
C2    C6    S    
C33   H19   S    
C4    C69   S    
C53   C60   A    
Cr5   O16   S    
C63   O9    A    
C66   O17   A    
Cr2   O26   S    
C25   H15   S    
C54   C61   A    
C55   H30   S    
Cr5   O9    S    
C3    C70   S    
C60   H34   S    
C24   C25   A    
C4    C6    S    
C52   C57   A    
C56   O24   A    
Cr6   O19   S    
O28   H41   S    
Cr2   O20   S    
Cr1   O24   S    
C20   C28   A    
C11   H7    S    
C58   C59   A    
C13   H6    S    
C34   C61   S    
C50   C56   S    
C51   C52   A    
C67   C69   S    
C37   C38   A    
C43   C44   A    
C7    C62   S    
C29   C30   A    
C36   H20   S    
C47   C48   A    
C14   C15   A    
C48   H26   S    
Cr2   O5    S    
C22   H14   S    
C5    H4    S    
C63   O10   A    
C42   C50   A    
C30   C35   A    
C9    C17   A    
C40   C41   A    
Cr4   O7    S    
C21   C28   A    
C64   O11   A    
C40   C65   S    
C56   O4    A    
C27   H17   S    
C62   O7    A    
C52   C53   A    
O29   H42   S    
C45   O2    A    
C46   H24   S    
C46   C47   A    
C48   C49   A    
Cr3   O3    S    
C70   H3    S    
C18   C22   A    
C12   O22   A    
C3    C67   S    
C1    O12   A    
C4    C5    S    
C5    C70   S    
C49   H27   S    
C65   O14   A    
Cr6   O18   S    
C43   C50   A    
C67   H12   S    
Cr1   O25   S    
C20   C27   A    
C3    C63   S    
C5    H36   S    
C10   H5    S    
C70   H35   S    
C31   C38   A    
C15   H9    S    
C32   C33   A    
C19   C24   A    
C25   C26   A    
C1    O20   A    
Cr6   O17   S    
C2    H38   S    
C18   C64   S    
C57   C58   A    
Cr3   O22   S    
Cr4   O19   S    
C34   O25   A    
C59   H33   S    
C31   C39   A    
Cr1   O1    S    
C2    C3    S    
C51   C55   A    
C51   C68   S    
C6    H39   S    
C6    H2    S    
C10   C11   A    
C35   O27   S    
C29   C66   S    
C40   C44   A    
Cr4   O6    S    
C12   O21   A    
Cr4   O14   S    
O27   H40   S    
C21   C22   A    
C64   O6    A    
