data_str_m3_o10_o27_f0_pcu.sym.6
_audit_creation_date              2012-12-10T16:57:49-0500
_audit_creation_method            fapswitch 2.2
_symmetry_space_group_name_H-M    P1
_symmetry_Int_Tables_number       1
_space_group_crystal_system       triclinic
_cell_length_a                    7.841969
_cell_length_b                    8.441335
_cell_length_c                    19.152613
_cell_angle_alpha                 91.62218
_cell_angle_beta                  84.960212
_cell_angle_gamma                 93.921607
_cell_volume                      1259.66362441

loop_
_atom_site_label
_atom_site_type_symbol
_atom_type_description
_atom_site_fract_x
_atom_site_fract_y
_atom_site_fract_z
_atom_type_partial_charge
C1    C     C_R   0.545503 0.794969 0.507287 0.814874
C2    C     C_R   0.636003 0.441206 0.175626 0.468196
C3    C     C_R   0.506864 0.516207 0.854871 -0.212882
C4    C     C_R   0.502077 0.511542 0.145205 -0.164010
C5    C     C_R   0.645893 0.455521 0.813040 0.428212
C6    C     C_R   0.365996 0.575734 0.187627 0.377282
C7    C     C_R   0.643655 0.453652 0.740626 -0.170590
C8    C     C_R   0.366083 0.570451 0.260076 -0.260743
C9    C     C_R   0.504093 0.508010 0.709884 -0.252933
C10   C     C_R   0.498172 0.501364 0.290170 -0.168656
C11   C     C_R   0.501756 0.513482 0.070013 0.330691
C12   C     C_R   0.454272 0.205766 0.509262 0.817842
C13   C     C_R   0.506445 0.515306 0.930068 0.337646
C14   C     C_2   0.566961 0.959263 0.529234 0.045905
C15   C     C_2   0.429590 0.045406 0.532271 0.069731
C16   C     C_R   0.501128 0.501878 0.634238 0.900817
C17   C     C_R   0.499195 0.499684 0.365799 0.900486
C18   C     C_R   0.367657 0.569542 0.751473 -0.113374
C19   C     C_R   0.631299 0.436191 0.247987 -0.166804
C20   C     C_R   0.367399 0.575578 0.823825 0.440312
H1    H     H_    0.259967 0.613374 0.727847 0.235381
H2    H     H_    0.238287 0.192665 0.657996 0.350133
H3    H     H_    0.936402 0.334828 0.399916 0.342826
H4    H     H_    0.064483 0.632638 0.607631 0.387516
H5    H     H_    0.733266 0.381606 0.271264 0.178617
H6    H     H_    0.749811 0.407504 0.708164 0.260936
H7    H     H_    0.264196 0.621891 0.293209 0.209617
H8    H     H_    0.233589 0.625782 0.912161 0.376193
H9    H     H_    0.777013 0.405724 0.087626 0.380171
H10   H     H_    0.074030 0.307281 0.810464 0.395294
H11   H     H_    0.991625 0.578825 0.228800 0.357721
H12   H     H_    0.709245 0.829286 0.652458 0.348709
N1    N     N_R   0.533828 0.653042 0.966525 -0.087796
N2    N     N_R   0.474484 0.375808 0.033520 -0.093455
N3    N     N_R   0.531856 0.652068 0.035826 -0.065385
N4    N     N_R   0.476428 0.376777 0.964250 -0.075878
N5    N     N_2   0.950330 0.457950 0.481240 0.203780
N6    N     N_2   0.049670 0.542050 0.518760 0.208960
O1    O     O_R   0.389250 0.738570 0.504600 -0.590529
O2    O     O_3   0.773806 0.377194 0.137435 -0.685938
O3    O     O_2   0.881731 0.488569 0.907069 -0.243985
O4    O     O_2   0.768489 0.218858 0.878865 -0.234825
O5    O     O_3   0.986375 0.360572 0.787179 -0.529424
O6    O     O_2   0.256493 0.821520 0.123317 -0.201268
O7    O     O_2   0.129000 0.558605 0.093505 -0.251841
O8    O     O_3   0.031362 0.687520 0.213898 -0.510410
O9    O     O_2   0.879596 0.100141 0.532597 -0.166198
O10   O     O_2   0.678736 0.141743 0.635252 -0.306630
O11   O     O_3   0.807437 0.867666 0.619827 -0.417802
O12   O     O_R   0.610750 0.261430 0.495400 -0.600351
O13   O     O_2   0.118268 0.903709 0.541573 -0.171623
O14   O     O_2   0.284714 0.878975 0.642492 -0.331542
O15   O     O_3   0.153867 0.148489 0.625843 -0.419600
O16   O     O_3   0.030183 0.384122 0.426259 -0.636273
O17   O     O_3   0.970816 0.597367 0.578295 -0.578896
O18   O     O_R   0.678400 0.711620 0.492580 -0.554518
O19   O     O_R   0.321600 0.288380 0.507420 -0.533645
O20   O     O_R   0.355380 0.513500 0.607880 -0.637601
O21   O     O_R   0.644620 0.486500 0.392120 -0.649673
O22   O     O_R   0.644530 0.486550 0.595850 -0.545751
O23   O     O_R   0.355470 0.513450 0.404150 -0.572002
O24   O     O_3   0.227650 0.637979 0.861307 -0.654328
S1    S     S_3+6 0.823085 0.379285 0.849332 0.088729
S2    S     S_3+6 0.193660 0.662177 0.151991 0.085739
S3    S     S_3+6 0.737540 0.022619 0.580087 0.135610
S4    S     S_3+6 0.242692 0.989027 0.587011 0.118028
Zn1   Zn    Zn3+2 0.306930 0.517990 0.508030 1.137487
Zn2   Zn    Zn3+2 0.693070 0.482010 0.491970 1.123717

loop_
_geom_bond_atom_site_label_1
_geom_bond_atom_site_label_2
_ccdc_geom_bond_type
C2    C4    A    
C13   N1    A    
N5    N6    D    
O11   S3    S    
O21   Zn2   S    
C18   H1    S    
C5    C7    A    
C9    C18   A    
O7    S2    D    
N2    N4    A    
C12   O12   A    
C3    C13   S    
C12   C15   S    
C10   C19   A    
C3    C5    A    
C11   N3    A    
O13   S4    D    
O5    S1    S    
C3    C20   A    
C16   O20   A    
O6    S2    D    
H4    O17   S    
O15   S4    S    
O22   Zn2   S    
O10   S3    D    
C7    H6    S    
O23   Zn1   S    
C17   O21   A    
N5    O16   S    
H9    O2    S    
C4    C6    A    
N1    N3    A    
C9    C16   S    
O19   Zn1   S    
H2    O15   S    
C18   C20   A    
H3    O16   S    
C20   O24   S    
C19   H5    S    
C1    O18   A    
H10   O5    S    
H12   O11   S    
C12   O19   A    
C10   C17   S    
N5    Zn2   S    
C2    O2    S    
O20   Zn1   S    
O14   S4    D    
O3    S1    D    
N6    Zn1   S    
C5    S1    S    
C13   N4    A    
C8    C10   A    
C16   O22   A    
C6    S2    S    
C7    C9    A    
C8    H7    S    
C1    O1    A    
C14   C15   D    
C6    C8    A    
C1    C14   S    
O8    S2    S    
C17   O23   A    
C2    C19   A    
O18   Zn2   S    
C15   S4    S    
O12   Zn2   S    
O4    S1    D    
O9    S3    D    
C11   N2    A    
N6    O17   S    
O1    Zn1   S    
C14   S3    S    
C4    C11   S    
H11   O8    S    
H8    O24   S    
