data_str_m12_o9_o11_f0_bcu.sym.54
_audit_creation_date              2012-12-11T17:39:36-0500
_audit_creation_method            fapswitch 2.2
_symmetry_space_group_name_H-M    P1
_symmetry_Int_Tables_number       1
_space_group_crystal_system       triclinic
_cell_length_a                    14.955214
_cell_length_b                    15.196782
_cell_length_c                    14.951497
_cell_angle_alpha                 109.211388
_cell_angle_beta                  109.498599
_cell_angle_gamma                 110.160295
_cell_volume                      2600.82918582

loop_
_atom_site_label
_atom_site_type_symbol
_atom_type_description
_atom_site_fract_x
_atom_site_fract_y
_atom_site_fract_z
_atom_type_partial_charge
C1    C     C_R   0.906655 0.975845 0.719166 -0.124106
C2    C     C_R   0.906123 0.699942 0.499115 -0.171065
C3    C     C_R   0.739905 0.780458 0.185527 -0.125891
C4    C     C_R   0.091535 0.314622 0.548121 -0.029470
C5    C     C_R   0.256820 0.942836 0.531097 -0.124536
C6    C     C_R   0.704243 0.678157 0.172061 0.143741
C7    C     C_R   0.288374 0.964268 0.458579 0.060362
C8    C     C_R   0.996184 0.695978 0.555894 0.069496
C9    C     C_R   0.995265 0.054084 0.190562 0.054742
C10   C     C_R   0.494515 0.588990 0.395771 -0.118661
C11   C     C_R   0.472652 0.662939 0.369814 0.006103
C12   C     C_R   0.998069 0.323159 0.533007 0.011544
C13   C     C_R   0.466121 0.742909 0.445083 -0.004862
C14   C     C_R   0.478491 0.744535 0.543278 -0.150129
C15   C     C_R   0.498356 0.669339 0.566993 -0.070271
C16   C     C_R   0.302082 0.205725 0.798989 -0.140037
C17   C     C_R   0.506829 0.592061 0.493673 -0.159019
C18   C     C_R   0.367524 0.844837 0.434795 -0.230657
C19   C     C_R   0.348276 0.921896 0.413285 0.063248
C20   C     C_R   0.393938 0.960380 0.355320 0.030884
C21   C     C_R   0.467555 0.934438 0.336009 -0.244015
C22   C     C_R   0.511078 0.886948 0.388746 0.037371
C23   C     C_R   0.367910 0.296211 0.801550 0.139382
C24   C     C_R   0.449818 0.826819 0.423816 0.021600
C25   C     C_R   0.292070 0.010104 0.232810 -0.170787
C26   C     C_R   0.276349 0.089152 0.215346 -0.165053
C27   C     C_R   0.355558 0.199407 0.289432 -0.113446
C28   C     C_R   0.693982 0.989496 0.400503 -0.136674
C29   C     C_R   0.451336 0.230359 0.380683 -0.130056
C30   C     C_R   0.465640 0.151514 0.400704 -0.159737
C31   C     C_R   0.383992 0.041612 0.328469 0.112884
C32   C     C_R   0.789396 0.173983 0.175788 -0.121454
C33   C     C_R   0.865821 0.267482 0.278208 -0.114671
C34   C     C_R   0.628307 0.923757 0.426227 0.085862
C35   C     C_R   0.829678 0.312467 0.346577 0.118055
C36   C     C_R   0.716249 0.264143 0.310391 -0.184028
C37   C     C_R   0.640203 0.170174 0.208204 -0.120131
C38   C     C_R   0.676753 0.124939 0.141020 -0.105201
C39   C     C_R   0.910202 0.504266 0.466849 -0.243373
C40   C     C_R   0.306051 0.296585 0.709374 -0.123846
C41   C     C_R   0.988253 0.602629 0.563742 0.061151
C42   C     C_R   0.060656 0.608409 0.657357 0.001980
C43   C     C_R   0.058845 0.513160 0.646932 -0.135204
C44   C     C_R   0.988259 0.416775 0.545404 0.087380
C45   C     C_R   0.737076 0.686584 0.274742 -0.025128
C46   C     C_R   0.909633 0.411161 0.455693 0.002161
C47   C     C_R   0.248932 0.744653 0.823934 -0.161094
C48   C     C_R   0.320707 0.842558 0.923588 -0.127427
C49   C     C_R   0.281311 0.907655 0.965152 -0.096714
C50   C     C_R   0.169879 0.874654 0.907597 -0.115652
C51   C     C_R   0.097742 0.776705 0.808160 -0.138256
C52   C     C_R   0.694820 0.901491 0.493204 -0.132102
C53   C     C_R   0.136761 0.711109 0.764730 0.108092
C54   C     C_2   0.550779 0.452574 0.881051 -0.120085
C55   C     C_2   0.484937 0.367532 0.882110 -0.201917
C56   C     C_R   0.256332 0.035972 0.441755 -0.142103
C57   C     C_2   0.643289 0.546697 0.986729 -0.163788
C58   C     C_2   0.622843 0.581140 0.068050 -0.193520
C59   C     C_R   0.386219 0.289093 0.096656 -0.168569
C60   C     C_R   0.282532 0.217205 0.072615 -0.201309
C61   C     C_R   0.197237 0.240518 0.047984 0.125483
C62   C     C_R   0.214478 0.332742 0.038291 -0.173426
C63   C     C_R   0.317573 0.402807 0.058196 -0.066040
C64   C     C_R   0.907655 0.219840 0.472671 -0.141940
C65   C     C_R   0.404309 0.382846 0.091622 -0.065141
C66   C     C_R   0.083691 0.161117 0.118725 -0.252709
C67   C     C_R   0.089938 0.788675 0.589689 -0.119238
C68   C     C_R   0.988437 0.079803 0.102427 0.050968
C69   C     C_R   0.890049 0.021601 0.999214 0.006742
C70   C     C_R   0.893032 0.043185 0.916985 -0.224046
C71   C     C_R   0.994305 0.097319 0.924297 0.057489
C72   C     C_R   0.089715 0.166532 0.029203 0.024930
C73   C     C_R   0.789910 0.826129 0.942242 -0.135579
C74   C     C_R   0.691797 0.729016 0.893973 -0.140720
C75   C     C_R   0.592422 0.727792 0.868458 -0.095425
C76   C     C_R   0.090189 0.066429 0.811455 -0.141700
C77   C     C_R   0.590335 0.823193 0.887042 -0.118966
C78   C     C_R   0.906982 0.999327 0.199341 -0.133397
C79   C     C_R   0.687696 0.919799 0.931554 -0.197143
C80   C     C_R   0.788714 0.922563 0.962394 0.116390
C81   C     C_R   0.998362 0.054645 0.822466 0.055763
C82   C     C_2   0.457611 0.656619 0.264752 0.440847
C83   C     C_2   0.198829 0.396239 0.573110 0.470961
C84   C     C_R   0.089377 0.091172 0.287597 -0.154591
H1    H     H_    0.820887 0.944414 0.694326 0.097097
H2    H     H_    0.500510 0.527825 0.339463 0.141185
H3    H     H_    0.474795 0.805379 0.602617 0.117670
H4    H     H_    0.507846 0.671382 0.642690 0.131324
H5    H     H_    0.322561 0.802050 0.464821 0.129243
H6    H     H_    0.502630 0.967575 0.294059 0.127425
H7    H     H_    0.229357 0.925368 0.176445 0.126239
H8    H     H_    0.200211 0.063555 0.146197 0.126635
H9    H     H_    0.342731 0.261439 0.277829 0.122317
H10   H     H_    0.512731 0.315323 0.437362 0.104940
H11   H     H_    0.538116 0.175835 0.473825 0.117359
H12   H     H_    0.264947 0.072995 0.393713 0.141479
H13   H     H_    0.617556 0.052184 0.061989 0.099741
H14   H     H_    0.330146 0.173076 0.849499 0.100213
H15   H     H_    0.817918 0.139931 0.123706 0.116000
H16   H     H_    0.952874 0.304389 0.304561 0.114873
H17   H     H_    0.687125 0.298393 0.362059 0.118923
H18   H     H_    0.553032 0.132462 0.181178 0.112887
H19   H     H_    0.854342 0.500797 0.395355 0.135861
H20   H     H_    0.113838 0.514132 0.716810 0.140832
H21   H     H_    0.281243 0.696027 0.792222 0.153436
H22   H     H_    0.407064 0.868262 0.968394 0.105717
H23   H     H_    0.174497 0.815433 0.644313 0.106272
H24   H     H_    0.337120 0.983609 0.041956 0.109257
H25   H     H_    0.139312 0.924961 0.939945 0.106862
H26   H     H_    0.667794 0.011950 0.339356 0.097215
H27   H     H_    0.011525 0.752179 0.764924 0.112179
H28   H     H_    0.527380 0.461627 0.809141 0.122311
H29   H     H_    0.514226 0.359490 0.954452 0.139026
H30   H     H_    0.723690 0.590378 0.996397 0.137160
H31   H     H_    0.539699 0.543312 0.053421 0.175896
H32   H     H_    0.485805 0.438572 0.113304 0.125371
H33   H     H_    0.451917 0.271162 0.117295 0.122536
H34   H     H_    0.823121 0.979128 0.153092 0.112912
H35   H     H_    0.266998 0.140245 0.065904 0.121232
H36   H     H_    0.148582 0.350186 0.015533 0.115085
H37   H     H_    0.330242 0.472976 0.048867 0.133149
H38   H     H_    0.339561 0.346355 0.678546 0.082773
H39   H     H_    0.156581 0.214283 0.199172 0.126553
H40   H     H_    0.816515 0.998756 0.840176 0.126843
H41   H     H_    0.866172 0.825697 0.960578 0.110946
H42   H     H_    0.692625 0.654404 0.874254 0.108965
H43   H     H_    0.516684 0.652460 0.831668 0.126607
H44   H     H_    0.512899 0.821700 0.864302 0.111325
H45   H     H_    0.172325 0.152659 0.318397 0.106376
H46   H     H_    0.684165 0.991819 0.940038 0.111558
H47   H     H_    0.670544 0.844777 0.520483 0.116061
H48   H     H_    0.822168 0.196246 0.444354 0.122081
H49   H     H_    0.175467 0.118081 0.871465 0.129475
H50   H     H_    0.716797 0.621130 0.292355 0.091613
H51   H     H_    0.401425 0.677690 0.222146 0.026987
H52   H     H_    0.247505 0.369413 0.544616 -0.008478
H53   H     H_    0.820918 0.646315 0.471679 0.100363
H54   H     H_    0.721896 0.801616 0.122036 0.124511
H55   H     H_    0.269514 0.892135 0.564190 0.093305
H56   H     H_    0.522675 0.534194 0.512580 0.109732
N1    N     N_R   0.941940 0.944580 0.650780 -0.041560
N2    N     N_R   0.204460 0.150250 0.707090 -0.042415
N3    N     N_R   0.794270 0.003240 0.446420 -0.040418
N4    N     N_R   0.204920 0.207570 0.650770 -0.051716
N5    N     N_R   0.793810 0.945920 0.502740 -0.042763
N6    N     N_R   0.943620 0.152590 0.446420 -0.044600
N7    N     N_R   0.055110 0.000900 0.707100 -0.041850
N8    N     N_R   0.795080 0.792430 0.349230 -0.047761
N9    N     N_R   0.206190 0.054080 0.497260 -0.044752
N10   N     N_R   0.056380 0.847410 0.553580 -0.042806
N11   N     N_R   0.944890 0.999100 0.292900 -0.040237
N12   N     N_R   0.058060 0.055420 0.349220 -0.042075
N13   N     N_R   0.943200 0.791100 0.497260 -0.041364
N14   N     N_R   0.795540 0.849750 0.292910 -0.048414
N15   N     N_R   0.205730 0.996760 0.553580 -0.040287
N16   N     N_R   0.056800 0.208900 0.502740 -0.078002
Ni1   Ni    Ni4+2 0.869690 0.869690 0.500000 0.223245
Ni2   Ni    Ni4+2 0.130310 0.130310 0.500000 0.196569
Ni3   Ni    Ni4+2 0.129250 0.998840 0.629170 0.212478
Ni4   Ni    Ni4+2 0.870750 0.001160 0.370830 0.216891
O1    O     O_2   0.510800 0.631147 0.226419 -0.637975
O2    O     O_2   0.232998 0.493062 0.622406 -0.617151

loop_
_geom_bond_atom_site_label_1
_geom_bond_atom_site_label_2
_ccdc_geom_bond_type
C25   C31   A    
C66   C68   A    
C63   C65   A    
C52   N5    A    
C6    C45   A    
C27   C29   A    
C45   N8    A    
C41   C42   A    
C6    C58   S    
C35   C36   A    
N2    Ni3   S    
C3    C6    A    
N7    Ni3   S    
N8    Ni1   S    
N3    Ni4   S    
C39   C41   A    
C74   H42   S    
C45   H50   S    
C37   C38   A    
C18   C24   A    
C21   C22   A    
C36   C37   A    
C78   H34   S    
C14   H3    S    
C42   C53   S    
C37   H18   S    
C12   C64   A    
N6    Ni4   S    
C10   C17   A    
C1    C81   A    
C23   C40   A    
C84   H45   S    
C60   H35   S    
C56   H12   S    
C18   C19   A    
C73   C74   A    
C82   H51   S    
C43   H20   S    
C66   C72   A    
C64   H48   S    
C76   N7    A    
C68   C69   A    
C47   H21   S    
N10   N13   A    
C2    N13   A    
N11   N12   A    
C70   C71   A    
C32   C38   A    
C4    C12   A    
C29   C30   A    
N9    Ni2   S    
C62   H36   S    
C47   C53   A    
C28   C34   A    
C59   C60   A    
C59   H33   S    
C13   C14   A    
C67   N10   A    
C52   H47   S    
C61   C62   A    
N8    N14   A    
C7    C56   A    
C38   H13   S    
C63   H37   S    
C44   C46   A    
C78   N11   A    
C5    H55   S    
C49   H24   S    
C21   H6    S    
C77   C79   A    
C11   C82   S    
C1    H1    S    
C22   C34   S    
N12   Ni2   S    
C25   H7    S    
C74   C75   A    
N15   Ni3   S    
C8    C41   S    
N10   Ni3   S    
C5    C7    A    
C55   H29   S    
C28   H26   S    
C25   C26   A    
C5    N15   A    
C79   H46   S    
C50   H25   S    
C13   C24   S    
C36   H17   S    
C51   C53   A    
C16   N2    A    
C43   C44   A    
N14   Ni4   S    
C62   C63   A    
N5    Ni1   S    
C47   C48   A    
C50   C51   A    
C26   C27   A    
C54   H28   S    
C54   C57   S    
C3    H54   S    
C39   H19   S    
C75   C77   A    
C83   H52   S    
C77   H44   S    
C39   C46   A    
C84   N12   A    
C61   C72   S    
N1    Ni1   S    
C48   C49   A    
C4    N16   A    
C83   O2    D    
C17   H56   S    
C16   C23   A    
C7    C19   S    
C40   N4    A    
C58   H31   S    
C65   H32   S    
C22   C24   A    
C27   H9    S    
C42   C43   A    
N4    Ni2   S    
N3    N5    A    
C54   C55   D    
C10   H2    S    
C51   H27   S    
C64   N6    A    
C66   H39   S    
C18   H5    S    
C2    C8    A    
C76   C81   A    
C76   H49   S    
C23   C55   S    
C57   H30   S    
C82   O1    D    
C2    H53   S    
C40   H38   S    
C34   C52   A    
C32   H15   S    
C48   H22   S    
C33   H16   S    
N11   Ni4   S    
C19   C20   A    
N16   Ni2   S    
N9    N15   A    
C9    C68   S    
C71   C72   A    
C12   C44   S    
C32   C33   A    
C11   C13   A    
C67   H23   S    
C57   C58   D    
C30   C31   A    
C4    C83   S    
C28   N3    A    
C73   H41   S    
C33   C35   A    
C73   C80   A    
C29   H10   S    
C30   H11   S    
N2    N4    A    
C9    C78   A    
C3    N14   A    
N13   Ni1   S    
C69   C70   A    
C1    N1    A    
C10   C11   A    
N1    N7    A    
C9    C84   A    
C79   C80   A    
C16   H14   S    
C70   H40   S    
N6    N16   A    
C20   C21   A    
C8    C67   A    
C49   C50   A    
C14   C15   A    
C60   C61   A    
C69   C80   S    
C56   N9    A    
C15   C17   A    
C35   C46   S    
C26   H8    S    
C20   C31   S    
C59   C65   A    
C15   H4    S    
C71   C81   S    
C75   H43   S    
