data_str_m2_o9_o16_f0_pcu.sym.257
_audit_creation_date              2013-03-05T16:48:11-0500
_audit_creation_method            fapswitch 2.2
_symmetry_space_group_name_H-M    P1
_symmetry_Int_Tables_number       1
_space_group_crystal_system       triclinic
_cell_length_a                    10.767627
_cell_length_b                    12.494903
_cell_length_c                    13.372305
_cell_angle_alpha                 117.91029
_cell_angle_beta                  74.718598
_cell_angle_gamma                 101.388981
_cell_volume                      1527.82829616

loop_
_atom_site_label
_atom_site_type_symbol
_atom_site_description
_atom_site_fract_x
_atom_site_fract_y
_atom_site_fract_z
_atom_type_partial_charge
O1    O     O_R   0.536940 0.972510 0.318130 -0.602168
O2    O     O_R   0.487330 0.806530 0.359650 -0.562028
C1    C     C_R   0.515883 0.854846 0.286936 0.839975
O3    O     O_R   0.705160 0.082990 0.479250 -0.602066
O4    O     O_R   0.655550 0.917010 0.520760 -0.524035
C2    C     C_R   0.736487 0.002337 0.502823 0.814428
Cu1   Cu    Cu3+1 0.529370 0.098270 0.475420 1.029593
Cu2   Cu    Cu3+1 0.470630 0.901730 0.524580 1.033905
O5    O     O_R   0.512670 0.193470 0.640350 -0.507227
O6    O     O_R   0.463060 0.027490 0.681870 -0.543929
O7    O     O_R   0.344450 0.082990 0.479240 -0.530173
O8    O     O_R   0.294840 0.917010 0.520750 -0.568333
C3    C     C_R   0.480538 0.145369 0.713181 0.797992
C4    C     C_R   0.263384 0.997794 0.497236 0.788459
H1    H     H_    0.514251 0.878791 0.881830 0.125714
C5    C     C_R   0.625969 0.019131 0.837297 -0.113073
H2    H     H_    0.565920 0.090007 0.902509 0.154010
C6    C     C_R   0.730074 0.045927 0.762021 -0.165121
H3    H     H_    0.748256 0.137216 0.768661 0.116529
C7    C     C_R   0.807262 0.954027 0.675778 0.087829
C8    C     C_R   0.782025 0.836388 0.669006 -0.074131
H4    H     H_    0.841963 0.764812 0.604644 0.176662
C9    C     C_R   0.675134 0.809092 0.741771 -0.090437
H5    H     H_    0.653249 0.717341 0.733372 0.198078
C10   C     C_R   0.596774 0.900246 0.825550 -0.139668
C11   C     C_R   0.034730 0.971982 0.578119 -0.221700
H6    H     H_    0.062273 0.952698 0.639878 0.157664
C12   C     C_R   0.129211 0.995053 0.494399 -0.050625
C13   C     C_R   0.094207 0.020356 0.413414 0.049179
C14   C     C_R   0.964686 0.027538 0.421662 -0.189380
H7    H     H_    0.936686 0.044866 0.358669 0.140153
C15   C     C_R   0.870476 0.005206 0.505778 -0.015688
C16   C     C_R   0.905060 0.977513 0.585340 0.035885
C17   C     C_R   0.212394 0.142233 0.306969 -0.164352
H8    H     H_    0.154791 0.216593 0.368877 0.209063
C18   C     C_R   0.312550 0.157774 0.221622 0.375384
C19   C     C_R   0.381964 0.058063 0.139113 -0.197601
H9    H     H_    0.458931 0.067047 0.072246 0.155750
C20   C     C_R   0.352185 0.945599 0.142111 -0.194653
H10   H     H_    0.404077 0.868675 0.076466 0.147266
C21   C     C_R   0.257610 0.932978 0.230976 -0.141821
H11   H     H_    0.237105 0.846184 0.233937 0.118851
C22   C     C_R   0.189369 0.032074 0.315620 0.048753
C23   C     C_R   0.278443 0.305553 0.003838 -0.113151
H12   H     H_    0.274397 0.122673 0.871639 0.176374
H13   H     H_    0.198232 0.499880 0.193328 0.166466
H14   H     H_    0.187432 0.288138 0.054832 0.134912
C24   C     C_R   0.446563 0.230735 0.834625 -0.075988
C25   C     C_R   0.651957 0.801736 0.095982 -0.330338
C26   C     C_R   0.691585 0.722917 0.979089 0.479799
C27   C     C_R   0.626070 0.605987 0.933094 0.246144
C28   C     C_R   0.520768 0.568033 0.004697 -0.098126
C29   C     C_R   0.472150 0.657161 0.117200 0.026100
C30   C     C_R   0.460740 0.446083 0.970479 0.133110
C31   C     C_R   0.342286 0.422884 0.038511 0.188389
C32   C     C_R   0.288997 0.516298 0.141426 -0.140733
C33   C     C_R   0.354213 0.630697 0.181608 -0.166715
C34   C     C_R   0.515625 0.345091 0.873554 -0.128016
C35   C     C_R   0.329446 0.210315 0.901402 -0.180994
C36   C     C_R   0.542142 0.771596 0.163503 -0.111380
H15   H     H_    0.611513 0.351876 0.825089 0.176784
H16   H     H_    0.707403 0.887368 0.136579 0.163550
H17   H     H_    0.309410 0.698870 0.263487 0.145662
C37   C     C_R   0.676875 0.318746 0.299637 -0.241571
H18   H     H_    0.720869 0.157624 0.297040 0.129631
H19   H     H_    0.689076 0.486934 0.237054 0.177502
H20   H     H_    0.744829 0.305443 0.219685 0.146251
N1    N     N_R   0.573890 0.246290 0.438210 -0.234186
C38   C     C_R   0.337772 0.772204 0.660021 0.731888
C39   C     C_R   0.322354 0.689586 0.706538 -0.365916
C40   C     C_R   0.385829 0.584753 0.646191 -0.115363
C41   C     C_R   0.461189 0.553750 0.534617 0.000111
C42   C     C_R   0.490289 0.646611 0.495598 0.064073
C43   C     C_R   0.519313 0.439430 0.466660 -0.066255
C44   C     C_R   0.603970 0.419788 0.360768 0.067853
C45   C     C_R   0.621244 0.503679 0.318018 -0.133470
C46   C     C_R   0.583910 0.620726 0.388777 0.359060
C47   C     C_R   0.493839 0.340231 0.495723 0.538579
C48   C     C_R   0.664852 0.235786 0.343410 0.015606
N2    N     N_R   0.426890 0.754320 0.561170 -0.242697
H21   H     H_    0.376910 0.531981 0.691987 0.244256
H22   H     H_    0.264586 0.706852 0.791227 0.166950
N3    N     N_R   0.658426 0.534031 0.810583 0.102201
O9    O     O_R   0.777928 0.513479 0.759045 -0.314634
O10   O     O_R   0.570056 0.498318 0.748863 -0.403735
O11   O     O_3   0.796091 0.752465 0.905776 -0.531142
C49   C     C_3   0.832365 0.878482 0.945790 -0.332451
H23   H     H_    0.894548 0.909581 0.010431 0.165344
H24   H     H_    0.747698 0.933100 0.980679 0.158761
H25   H     H_    0.889275 0.895149 0.871797 0.186326
N4    N     N_R   0.369337 0.323616 0.562396 0.111099
O12   O     O_R   0.266020 0.331600 0.534241 -0.379343
O13   O     O_R   0.358154 0.328000 0.663290 -0.338036
O14   O     O_3   0.277439 0.879730 0.717350 -0.560902
C50   C     C_3   0.154123 0.869581 0.783797 -0.403407
H26   H     H_    0.162195 0.875822 0.867506 0.178270
H27   H     H_    0.095142 0.785406 0.735794 0.205043
H28   H     H_    0.102896 0.948336 0.804639 0.169841
N5    N     N_R   0.683088 0.707080 0.369695 0.137299
O15   O     O_R   0.707828 0.709300 0.270043 -0.394987
O16   O     O_R   0.781826 0.728990 0.417432 -0.405472
N6    N     N_R   0.345635 0.274474 0.220300 0.102836
O17   O     O_R   0.278638 0.366021 0.293907 -0.380488
O18   O     O_R   0.447567 0.291959 0.149761 -0.409483

loop_
_geom_bond_atom_site_label_1
_geom_bond_atom_site_label_2
_geom_bond_distance
_ccdc_geom_bond_type
C2    C15   1.446588 S    
C49   H23   1.111030 S    
H18   C48   1.081970 S    
C21   H11   1.080486 S    
C50   H26   1.110644 S    
C31   C32   1.389245 A    
C50   H28   1.107629 S    
Cu1   Cu2   2.746202 S    
C20   C21   1.395762 A    
Cu1   O7    1.951696 S    
C11   H6    1.082437 S    
C13   C14   1.387189 A    
C25   C36   1.391025 A    
C12   C13   1.413362 A    
C6    H3    1.083265 S    
C38   C39   1.399701 A    
C14   H7    1.085236 S    
O7    C4    1.309638 A    
H1    C10   1.081725 S    
C23   C35   1.389103 A    
C32   C33   1.381470 A    
C18   N6    1.438438 S    
C17   H8    1.081744 S    
O5    C3    1.310605 A    
Cu1   N1    2.069704 S    
C37   C44   1.401919 A    
H12   C35   1.081171 S    
N5    O15   1.300790 A    
C5    H2    1.081081 S    
C9    H5    1.081267 S    
C39   C40   1.381088 A    
C17   C18   1.406860 A    
C23   H14   1.084038 S    
C1    C36   1.466016 S    
C34   H15   1.075821 S    
C8    H4    1.082437 S    
C13   C22   1.481621 S    
C21   C22   1.401099 A    
N6    O17   1.302025 A    
O3    Cu1   1.955736 S    
C29   C36   1.409750 A    
C28   C30   1.436367 A    
C33   H17   1.080684 S    
N1    C47   1.384652 A    
C43   C44   1.406724 A    
C27   C28   1.437985 A    
C37   H20   1.084148 S    
C45   C46   1.389950 A    
C41   C43   1.447736 A    
C38   O14   1.390245 S    
C20   H10   1.081803 S    
C29   C33   1.409982 A    
O11   C49   1.413033 S    
O1    C1    1.315659 A    
C3    C24   1.458827 S    
C44   C45   1.374084 A    
C19   H9    1.079615 S    
N4    O13   1.298302 A    
C11   C16   1.387214 A    
N3    O9    1.301541 A    
Cu2   O8    1.955735 S    
H19   C45   1.086684 S    
C26   C27   1.411006 A    
C5    C6    1.398006 A    
N6    O18   1.301785 A    
C7    C16   1.482056 S    
O3    C2    1.310127 A    
N5    O16   1.300755 A    
O8    C4    1.311775 A    
C8    C9    1.397562 A    
C37   C48   1.381652 A    
C27   N3    1.434405 S    
N4    O12   1.299642 A    
C28   C29   1.422739 A    
C24   C35   1.394785 A    
C30   C34   1.407526 A    
C5    C10   1.397593 A    
Cu1   O5    1.931547 S    
C30   C31   1.423969 A    
C18   C19   1.405126 A    
C25   H16   1.082011 S    
N3    O10   1.298926 A    
O1    Cu1   1.940587 S    
O2    Cu2   1.931549 S    
C17   C22   1.403059 A    
C41   C42   1.433079 A    
O6    C3    1.317133 A    
O4    Cu2   1.951697 S    
C50   H27   1.113834 S    
C24   C34   1.397744 A    
C47   N4    1.438231 S    
C11   C12   1.399067 A    
C15   C16   1.412360 A    
C49   H24   1.112639 S    
O2    C1    1.312678 A    
C40   C41   1.406930 A    
C19   C20   1.395389 A    
C14   C15   1.397394 A    
C23   C31   1.403728 A    
O4    C2    1.309953 A    
N1    C48   1.350599 A    
C42   N2    1.410197 A    
C46   N5    1.424369 S    
C6    C7    1.404009 A    
C9    C10   1.396762 A    
O14   C50   1.409174 S    
C39   H22   1.081166 S    
C26   O11   1.398917 S    
C7    C8    1.404713 A    
Cu2   O6    1.940585 S    
C25   C26   1.403043 A    
C43   C47   1.422351 A    
C49   H25   1.104902 S    
H13   C32   1.084213 S    
Cu2   N2    2.057512 S    
C42   C46   1.448611 A    
C38   N2    1.362939 A    
C4    C12   1.448438 S    
C40   H21   1.068205 S    
