data_str_m3_o1_o9_f0_pcu.sym.133
_audit_creation_date              2012-12-10T18:59:54-0500
_audit_creation_method            fapswitch 2.2
_symmetry_space_group_name_H-M    P1
_symmetry_Int_Tables_number       1
_space_group_crystal_system       triclinic
_cell_length_a                    10.729872
_cell_length_b                    10.67752
_cell_length_c                    9.822723
_cell_angle_alpha                 90.18236
_cell_angle_beta                  90.222691
_cell_angle_gamma                 90.169165
_cell_volume                      1125.35473601

loop_
_atom_site_label
_atom_site_type_symbol
_atom_type_description
_atom_site_fract_x
_atom_site_fract_y
_atom_site_fract_z
_atom_type_partial_charge
C1    C     C_R   0.499714 0.259905 0.499782 0.861237
C2    C     C_R   0.500280 0.740095 0.500218 0.861235
C3    C     C_R   0.872485 0.493641 0.501241 -0.084711
C4    C     C_R   0.127517 0.506353 0.498754 -0.084705
C5    C     C_R   0.939433 0.447794 0.614226 0.018352
C6    C     C_R   0.060570 0.552195 0.385767 0.018358
C7    C     C_R   0.549985 0.063945 0.388631 -0.198208
C8    C     C_R   0.449979 0.936055 0.611368 -0.198185
C9    C     C_R   0.551001 0.935613 0.389250 -0.180012
C10   C     C_R   0.448941 0.064388 0.610746 -0.179993
C11   C     C_R   0.500644 0.872452 0.500444 -0.000082
C12   C     C_R   0.499330 0.127548 0.499552 -0.000058
C13   C     C_R   0.574470 0.580978 0.072578 -0.090301
C14   C     C_R   0.425529 0.419023 0.927422 -0.090328
C15   C     C_R   0.574552 0.580833 0.928559 -0.069566
C16   C     C_R   0.425445 0.419170 0.071441 -0.069610
C17   C     C_R   0.260018 0.503743 0.499520 0.874592
C18   C     C_R   0.739983 0.496258 0.500479 0.874593
C19   C     C_R   0.238916 0.779970 0.163196 0.153536
C20   C     C_R   0.761072 0.220056 0.836819 0.153587
C21   C     C_R   0.182619 0.725398 0.277075 -0.140773
C22   C     C_R   0.817381 0.274607 0.722937 -0.140808
C23   C     C_R   0.119627 0.610530 0.265254 0.100225
C24   C     C_R   0.880375 0.389474 0.734743 0.100226
C25   C     C_R   0.113218 0.550381 0.138395 -0.201838
C26   C     C_R   0.886772 0.449645 0.861588 -0.201817
C27   C     C_R   0.169262 0.604024 0.024502 -0.203080
C28   C     C_R   0.830735 0.396014 0.975490 -0.203129
C29   C     C_R   0.232679 0.718961 0.035587 0.146663
C30   C     C_R   0.767324 0.281077 0.964421 0.146647
C31   C     C_R   0.932790 0.544176 0.388173 -0.260764
C32   C     C_R   0.067211 0.455813 0.611820 -0.260759
H1    H     H_    0.634254 0.645274 0.874317 0.130772
H2    H     H_    0.365741 0.354731 0.125683 0.130783
H3    H     H_    0.187983 0.772405 0.374885 0.127461
H4    H     H_    0.812012 0.227587 0.625135 0.127463
H5    H     H_    0.066249 0.460950 0.128244 0.145945
H6    H     H_    0.933728 0.539082 0.871721 0.145945
H7    H     H_    0.164036 0.555349 0.927779 0.139013
H8    H     H_    0.835952 0.444706 0.072203 0.139014
H9    H     H_    0.880226 0.581304 0.302794 0.157370
H10   H     H_    0.119774 0.418687 0.697200 0.157373
H11   H     H_    0.589896 0.113191 0.303023 0.154410
H12   H     H_    0.410089 0.886808 0.696981 0.154408
H13   H     H_    0.591620 0.885979 0.303936 0.139757
H14   H     H_    0.408306 0.114023 0.696061 0.139734
H15   H     H_    0.634115 0.645526 0.127709 0.119105
H16   H     H_    0.365886 0.354474 0.872291 0.119113
N1    N     N_R   0.499970 0.499970 0.857200 -0.076373
N2    N     N_R   0.500030 0.500030 0.142800 -0.076372
O1    O     O_R   0.499990 0.316750 0.614620 -0.622438
O2    O     O_R   0.500010 0.683250 0.385380 -0.622439
O3    O     O_R   0.499990 0.316780 0.385290 -0.633252
O4    O     O_R   0.500010 0.683220 0.614710 -0.633254
O5    O     O_R   0.316760 0.500000 0.614660 -0.637349
O6    O     O_R   0.683240 0.500000 0.385340 -0.637347
O7    O     O_R   0.316760 0.500020 0.385330 -0.604138
O8    O     O_R   0.683240 0.499980 0.614670 -0.604133
Zn1   Zn    Zn3+2 0.500000 0.499980 0.653120 0.938532
Zn2   Zn    Zn3+2 0.500000 0.500020 0.346880 0.938534
N3    N     N_3   0.289339 0.775004 0.918312 -0.488146
H17   H     H_    0.385777 0.773882 0.933367 0.175393
H18   H     H_    0.271810 0.720657 0.831519 0.196953
N4    N     N_3   0.710655 0.225057 0.081695 -0.488135
H19   H     H_    0.614209 0.226291 0.066668 0.175453
H20   H     H_    0.728284 0.279353 0.168523 0.196934
N5    N     N_3   0.301256 0.897860 0.178743 -0.460620
H21   H     H_    0.394043 0.886564 0.149338 0.182744
H22   H     H_    0.259755 0.961896 0.112407 0.189563
N6    N     N_3   0.698675 0.102184 0.821275 -0.460615
H23   H     H_    0.605882 0.113535 0.850656 0.182757
H24   H     H_    0.740134 0.038123 0.887622 0.189558

loop_
_geom_bond_atom_site_label_1
_geom_bond_atom_site_label_2
_ccdc_geom_bond_type
C25   H5    S    
C10   H14   S    
C14   H16   S    
C28   H8    S    
C9    H13   S    
N6    H23   S    
C21   H3    S    
C30   N4    S    
C27   C29   A    
C9    C11   A    
C17   O5    A    
C26   C28   A    
N1    Zn1   S    
C2    O2    A    
C18   O6    A    
C3    C5    A    
C5    C32   A    
N2    Zn2   S    
N4    H19   S    
C28   C30   A    
C6    C31   A    
C29   N3    S    
C20   C30   A    
C15   N1    A    
C3    C31   A    
C1    O1    A    
C20   N6    S    
N3    H17   S    
C1    C12   S    
C10   C12   A    
C8    C11   A    
C6    C23   S    
C22   C24   A    
C8    C10   A    
C19   C21   A    
O3    Zn2   S    
C20   C22   A    
O5    Zn1   S    
O4    Zn1   S    
C13   C15   A    
C21   C23   A    
C8    H12   S    
C7    C12   A    
C16   N2    A    
C14   C16   A    
C14   N1    A    
O1    Zn1   S    
C2    C11   S    
C31   H9    S    
C1    O3    A    
C13   N2    A    
C19   C29   A    
O6    Zn2   S    
C23   C25   A    
C22   H4    S    
C27   H7    S    
C3    C18   S    
N3    H18   S    
C4    C6    A    
C2    O4    A    
C4    C32   A    
C7    H11   S    
C13   H15   S    
C32   H10   S    
C5    C24   S    
O7    Zn2   S    
N6    H24   S    
N4    H20   S    
O2    Zn2   S    
C16   H2    S    
O8    Zn1   S    
C17   O7    A    
C25   C27   A    
C15   H1    S    
C26   H6    S    
C18   O8    A    
N5    H21   S    
C24   C26   A    
C19   N5    S    
N5    H22   S    
C7    C9    A    
C4    C17   S    
