data_str_m9_o16_o17_f0_sra.sym.23
_audit_creation_date              2012-12-11T15:07:31-0500
_audit_creation_method            fapswitch 2.2
_symmetry_space_group_name_H-M    P1
_symmetry_Int_Tables_number       1
_space_group_crystal_system       triclinic
_cell_length_a                    21.636102
_cell_length_b                    7.21148
_cell_length_c                    18.603803
_cell_angle_alpha                 89.996012
_cell_angle_beta                  95.941812
_cell_angle_gamma                 90.087802
_cell_volume                      2887.12191627

loop_
_atom_site_label
_atom_site_type_symbol
_atom_type_description
_atom_site_fract_x
_atom_site_fract_y
_atom_site_fract_z
_atom_type_partial_charge
O1    O     O_R   0.449650 0.506500 0.414480 -0.532637
O2    O     O_R   0.550350 0.006500 0.585520 -0.532100
O3    O     O_R   0.432010 0.173150 0.560250 -0.539243
O4    O     O_R   0.567990 0.673150 0.439750 -0.539678
C1    C     C_R   0.415598 0.344586 0.580360 0.685149
C2    C     C_R   0.583863 0.844777 0.418928 0.685514
O5    O     O_R   0.442320 0.176650 0.413480 -0.534182
O6    O     O_R   0.557680 0.676650 0.586520 -0.533306
O7    O     O_R   0.560730 0.008380 0.437700 -0.538509
O8    O     O_R   0.439270 0.508380 0.562300 -0.537829
C3    C     C_R   0.428464 0.344973 0.387627 0.673612
C4    C     C_R   0.571502 0.845176 0.612378 0.676514
O9    O     O_3   0.538840 0.339860 0.508120 -0.371890
O10   O     O_3   0.461160 0.839860 0.491880 -0.373109
V1    V     V_3+5 0.492800 0.064220 0.498490 1.414994
V2    V     V_3+5 0.507200 0.564220 0.501510 1.415201
C5    C     C_R   0.871848 0.974195 0.689548 -0.159266
C6    C     C_R   0.128925 0.486953 0.309959 -0.159360
H1    H     H_    0.959897 0.001290 0.753020 0.105553
H2    H     H_    0.040917 0.514221 0.246480 0.103511
H3    H     H_    0.790196 0.968303 0.573183 0.126383
H4    H     H_    0.210944 0.487398 0.426025 0.126400
C7    C     C_R   0.886512 0.941660 0.819648 -0.034614
C8    C     C_R   0.113545 0.442980 0.180374 -0.034159
C9    C     C_R   0.585616 0.819936 0.744893 -0.160315
C10   C     C_R   0.413816 0.311199 0.255424 -0.159416
C11   C     C_R   0.621624 0.819027 0.811252 -0.119396
C12   C     C_R   0.377597 0.306769 0.189226 -0.119375
C13   C     C_R   0.685570 0.848549 0.815388 -0.157282
C14   C     C_R   0.313864 0.339631 0.184983 -0.157765
C15   C     C_R   0.715574 0.880455 0.752471 0.077139
C16   C     C_R   0.284301 0.378745 0.247614 0.076981
C17   C     C_R   0.678044 0.882758 0.684238 0.068653
C18   C     C_R   0.322090 0.385250 0.315644 0.069162
C19   C     C_R   0.781446 0.909906 0.755014 0.073236
C20   C     C_R   0.218611 0.411239 0.244979 0.073155
C21   C     C_R   0.807769 0.942472 0.689235 0.138031
C22   C     C_R   0.192763 0.451492 0.310423 0.138136
C23   C     C_R   0.770139 0.943890 0.623385 -0.199773
C24   C     C_R   0.230641 0.457084 0.376073 -0.200468
C25   C     C_R   0.706456 0.914215 0.620792 -0.191917
C26   C     C_R   0.294120 0.424108 0.378786 -0.192602
C27   C     C_R   0.822390 0.908948 0.820236 -0.213883
C28   C     C_R   0.177412 0.406209 0.179968 -0.214232
C29   C     C_R   0.910693 0.974799 0.754130 -0.166144
C30   C     C_R   0.089875 0.484035 0.245538 -0.165389
C31   C     C_R   0.612762 0.851917 0.681043 -0.078591
C32   C     C_R   0.387145 0.350660 0.318975 -0.078173
H5    H     H_    0.806065 0.885276 0.872256 0.093975
H6    H     H_    0.193391 0.376881 0.128197 0.093668
H7    H     H_    0.536064 0.795244 0.743286 0.104489
H8    H     H_    0.463153 0.283155 0.257156 0.102124
H9    H     H_    0.710159 0.845393 0.868739 0.108564
H10   H     H_    0.289077 0.333184 0.131782 0.108376
H11   H     H_    0.599747 0.794445 0.860161 0.119600
H12   H     H_    0.399122 0.276484 0.140551 0.119742
H13   H     H_    0.679535 0.916447 0.568382 0.111965
H14   H     H_    0.321235 0.429763 0.431040 0.111068
C33   C     C_R   0.638067 0.019421 0.326848 -0.210359
C34   C     C_R   0.354197 0.209806 0.676001 -0.217376
C35   C     C_R   0.633024 0.857803 0.368669 -0.079205
C36   C     C_R   0.365099 0.356391 0.628861 -0.077209
C37   C     C_R   0.675267 0.711798 0.362285 -0.226112
C38   C     C_R   0.328694 0.518332 0.629827 -0.221196
C39   C     C_R   0.722276 0.727434 0.315680 0.090556
C40   C     C_R   0.282457 0.535026 0.677189 0.088694
C41   C     C_R   0.726657 0.889852 0.274006 0.054763
C42   C     C_R   0.272684 0.388914 0.725124 0.054825
C43   C     C_R   0.684225 0.035957 0.279508 0.085926
C44   C     C_R   0.308727 0.225848 0.724567 0.089705
C45   C     C_R   0.765218 0.583803 0.310139 -0.185246
C46   C     C_R   0.245964 0.695807 0.677718 -0.197241
C47   C     C_R   0.811550 0.599807 0.263237 -0.196870
C48   C     C_R   0.200581 0.712632 0.725819 -0.187206
C49   C     C_R   0.815944 0.760050 0.221149 0.086823
C50   C     C_R   0.190929 0.569325 0.774506 0.090709
C51   C     C_R   0.773561 0.906261 0.226739 0.055068
C52   C     C_R   0.226905 0.406135 0.773852 0.054785
C53   C     C_R   0.777948 0.068724 0.185090 0.091474
C54   C     C_R   0.217107 0.259951 0.821745 0.089076
C55   C     C_R   0.735034 0.212402 0.190661 -0.185623
C56   C     C_R   0.253547 0.099084 0.821162 -0.196732
C57   C     C_R   0.688656 0.196286 0.237483 -0.196662
C58   C     C_R   0.299005 0.082404 0.773160 -0.187025
C59   C     C_R   0.861973 0.776376 0.173608 -0.212027
C60   C     C_R   0.145646 0.585661 0.823314 -0.219876
C61   C     C_R   0.866975 0.938014 0.131800 -0.080426
C62   C     C_R   0.134799 0.439088 0.870486 -0.079562
C63   C     C_R   0.824896 0.084293 0.138416 -0.227414
C64   C     C_R   0.170952 0.276743 0.869196 -0.220623
H15   H     H_    0.605612 0.132587 0.330506 0.127962
H16   H     H_    0.382085 0.085003 0.676156 0.125661
H17   H     H_    0.672180 0.587096 0.394264 0.131467
H18   H     H_    0.336168 0.631709 0.593422 0.131198
H19   H     H_    0.762827 0.458499 0.341886 0.136434
H20   H     H_    0.252753 0.809291 0.641150 0.133693
H21   H     H_    0.843825 0.486221 0.259656 0.131268
H22   H     H_    0.173155 0.838336 0.725104 0.136052
H23   H     H_    0.894348 0.663091 0.169738 0.126814
H24   H     H_    0.117874 0.710663 0.823359 0.124831
H25   H     H_    0.828028 0.209075 0.106492 0.129570
H26   H     H_    0.163400 0.163220 0.905504 0.129763
H27   H     H_    0.656356 0.309825 0.241031 0.131253
H28   H     H_    0.326451 0.956735 0.773901 0.135925
O11   O     O_R   0.060820 0.290050 0.937800 -0.538781
O12   O     O_R   0.939180 0.790050 0.062200 -0.539495
O13   O     O_R   0.057690 0.616620 0.086540 -0.535959
O14   O     O_R   0.942310 0.116620 0.913460 -0.534991
C65   C     C_R   0.071578 0.448872 0.112496 0.682410
C66   C     C_R   0.928431 0.948655 0.887524 0.685698
O15   O     O_R   0.068010 0.619890 0.939770 -0.540376
O16   O     O_R   0.931990 0.119890 0.060230 -0.540732
O17   O     O_R   0.949640 0.787940 0.914460 -0.532706
O18   O     O_R   0.050360 0.287940 0.085540 -0.533121
C67   C     C_R   0.084561 0.451109 0.919326 0.696706
C68   C     C_R   0.915958 0.950940 0.081341 0.697266
O19   O     O_3   0.961210 0.453080 0.991940 -0.373358
O20   O     O_3   0.038790 0.953080 0.008060 -0.374594
V3    V     V_3+5 0.007200 0.728820 0.001500 1.409025
V4    V     V_3+5 0.992800 0.228820 0.998500 1.409621
H29   H     H_    0.737440 0.337741 0.158938 0.136130
H30   H     H_    0.246721 0.985525 0.857681 0.132900
H31   H     H_    0.892005 0.999710 0.639499 0.113774
H32   H     H_    0.109143 0.518533 0.359731 0.113981

loop_
_geom_bond_atom_site_label_1
_geom_bond_atom_site_label_2
_ccdc_geom_bond_type
C40   C42   A    
C37   C39   A    
C7    C29   A    
O12   V3    S    
C11   C13   A    
O13   C65   A    
O14   V4    S    
O1    C3    A    
O2    C4    A    
C26   H14   S    
C2    O7    A    
C12   H12   S    
O3    V1    S    
C23   C25   A    
C47   H21   S    
C14   H10   S    
C57   H27   S    
C43   C57   A    
C16   C20   A    
C2    C35   S    
O15   V3    S    
C19   C21   A    
C5    C29   A    
C60   C62   A    
C45   H19   S    
C7    C27   A    
C34   C36   A    
C35   C37   A    
O20   V3    S    
C64   H26   S    
C36   C38   A    
O17   V3    S    
C49   C59   A    
C40   C46   A    
C18   C26   A    
C39   C41   A    
C41   C51   A    
C15   C17   A    
O11   V4    S    
C19   C27   A    
C9    C31   A    
C10   C32   A    
C59   C61   A    
O6    V2    S    
C22   C24   A    
C54   C64   A    
C47   C49   A    
C3    C32   S    
C4    C31   S    
C55   H29   S    
C6    C30   A    
O13   V3    S    
C55   C57   A    
C5    H31   S    
C51   C53   A    
C42   C52   A    
C33   C35   A    
C46   C48   A    
O19   V4    S    
C53   C55   A    
C27   H5    S    
C33   H15   S    
O5    V1    S    
C39   C45   A    
O12   C68   A    
C41   C43   A    
C38   C40   A    
O4    V2    S    
O5    C3    A    
C9    H7    S    
C59   H23   S    
C10   H8    S    
H3    C23   S    
C34   C44   A    
O6    C4    A    
H4    C24   S    
C52   C54   A    
O1    V2    S    
C5    C21   A    
O2    V1    S    
C49   C51   A    
C66   O17   A    
C61   C68   S    
C48   C50   A    
C65   O18   A    
C33   C43   A    
C54   C56   A    
C25   H13   S    
C62   C64   A    
C56   C58   A    
C61   C63   A    
C8    C28   A    
C15   C19   A    
C20   C28   A    
O4    C2    A    
C18   C32   A    
C50   C60   A    
O16   C68   A    
C44   C58   A    
O16   V4    S    
C28   H6    S    
C7    C66   S    
C48   H22   S    
C63   H25   S    
O11   C67   A    
C8    C65   S    
C50   C52   A    
O3    C1    A    
H1    C29   S    
C9    C11   A    
C37   H17   S    
C10   C12   A    
C17   C25   A    
C62   C67   S    
C20   C22   A    
O7    V1    S    
C8    C30   A    
C12   C14   A    
C21   C23   A    
O8    V2    S    
C14   C16   A    
C60   H24   S    
C58   H28   S    
C13   H9    S    
C17   C31   A    
C24   C26   A    
O14   C66   A    
C1    C36   S    
C11   H11   S    
C6    C22   A    
O18   V4    S    
C53   C63   A    
C38   H18   S    
C46   H20   S    
C1    O8    A    
C13   C15   A    
O9    V2    S    
C45   C47   A    
C42   C44   A    
O10   V1    S    
O15   C67   A    
C6    H32   S    
C34   H16   S    
C56   H30   S    
H2    C30   S    
C16   C18   A    
