data_str_m2_o16_o18_f0_pcu.sym.201
_audit_creation_date              2012-12-10T17:33:00-0500
_audit_creation_method            fapswitch 2.2
_symmetry_space_group_name_H-M    P1
_symmetry_Int_Tables_number       1
_space_group_crystal_system       triclinic
_cell_length_a                    12.481588
_cell_length_b                    13.481864
_cell_length_c                    14.421653
_cell_angle_alpha                 94.630885
_cell_angle_beta                  108.220555
_cell_angle_gamma                 117.953537
_cell_volume                      1960.03684753

loop_
_atom_site_label
_atom_site_type_symbol
_atom_type_description
_atom_site_fract_x
_atom_site_fract_y
_atom_site_fract_z
_atom_type_partial_charge
C1    C     C_R   0.647703 0.712698 0.504589 0.868246
C2    C     C_R   0.851128 0.498144 0.912824 -0.030985
C3    C     C_R   0.782986 0.482976 0.978492 0.077732
C4    C     C_R   0.963135 0.483583 0.938645 -0.093730
C5    C     C_R   0.014137 0.469984 0.036586 -0.000781
C6    C     C_R   0.937985 0.445949 0.095257 -0.312717
C7    C     C_R   0.821179 0.447586 0.065184 0.419717
C8    C     C_R   0.024167 0.477960 0.870754 0.432860
C9    C     C_R   0.138562 0.471926 0.903194 0.315455
C10   C     C_R   0.189969 0.460799 0.001194 -0.146847
C11   C     C_R   0.134136 0.469962 0.070676 0.006292
C12   C     C_R   0.619892 0.518942 0.686493 0.833726
C13   C     C_R   0.292710 0.436243 0.030916 0.477368
C14   C     C_R   0.354927 0.443904 0.132646 -0.202977
C15   C     C_R   0.201443 0.480855 0.173433 -0.204463
C16   C     C_R   0.158767 0.956229 0.394136 0.396006
C17   C     C_R   0.252668 0.160494 0.472776 -0.287251
C18   C     C_R   0.695055 0.917388 0.529434 0.383297
C19   C     C_R   0.781804 0.035943 0.542806 0.234815
C20   C     C_R   0.890405 0.071176 0.515231 0.342444
C21   C     C_R   0.916677 0.986706 0.479035 -0.026454
C22   C     C_R   0.818464 0.867155 0.453883 -0.248191
C23   C     C_R   0.346494 0.285402 0.487819 0.828480
C24   C     C_R   0.033432 0.015895 0.461731 0.021248
C25   C     C_R   0.039381 0.928011 0.405629 -0.204313
C26   C     C_R   0.924795 0.816175 0.358170 0.454740
C27   C     C_R   0.813119 0.786976 0.379743 0.365439
C28   C     C_R   0.145762 0.129585 0.500153 -0.179227
C29   C     C_R   0.263642 0.071883 0.426544 0.477642
C30   C     C_R   0.721076 0.833297 0.495007 -0.274545
C31   C     C_R   0.270228 0.722601 0.623176 0.284154
C32   C     C_R   0.646626 0.335100 0.366239 0.503420
C33   C     C_R   0.720376 0.299356 0.332453 0.194298
C34   C     C_R   0.380537 0.481813 0.313219 0.782343
C35   C     C_R   0.859411 0.371161 0.372360 0.359878
C36   C     C_R   0.926541 0.467405 0.459103 -0.140550
C37   C     C_R   0.847528 0.501787 0.490040 -0.012698
C38   C     C_R   0.069889 0.535693 0.512802 -0.118493
C39   C     C_R   0.130777 0.650983 0.573658 -0.128400
C40   C     C_R   0.050963 0.691424 0.587692 0.329420
C41   C     C_R   0.917191 0.610917 0.564638 0.380184
C42   C     C_R   0.156042 0.495568 0.508280 0.535265
C43   C     C_R   0.347489 0.674588 0.619281 0.502660
C44   C     C_R   0.683816 0.523353 0.792431 -0.140379
C45   C     C_R   0.312358 0.469691 0.205045 -0.141975
C46   C     C_R   0.675813 0.501719 0.955189 0.487156
C47   C     C_R   0.622598 0.515046 0.859539 -0.336298
C48   C     C_R   0.804076 0.527940 0.824144 -0.187485
Cu1   Cu    Cu3+1 0.416420 0.526630 0.522910 1.004800
Cu2   Cu    Cu3+1 0.583580 0.473370 0.477090 1.047533
H1    H     H_    0.154677 0.196446 0.553432 0.250032
H2    H     H_    0.171289 0.502328 0.230713 0.174970
H3    H     H_    0.436494 0.429179 0.154373 0.220312
H4    H     H_    0.532527 0.516983 0.837508 0.170690
H5    H     H_    0.858469 0.556377 0.777712 0.241964
H6    H     H_    0.963767 0.418134 0.162320 0.177047
N1    N     N_R   0.290690 0.566960 0.557640 -0.299001
N2    N     N_R   0.709100 0.433710 0.442970 -0.217336
O1    O     O_R   0.545970 0.684450 0.528810 -0.497993
O2    O     O_R   0.687130 0.639470 0.490120 -0.508978
O3    O     O_R   0.519670 0.535100 0.660030 -0.562344
O4    O     O_R   0.660830 0.490120 0.621340 -0.529334
O5    O     O_R   0.312870 0.360530 0.509880 -0.574005
O6    O     O_R   0.454030 0.315550 0.471190 -0.500612
O7    O     O_R   0.339170 0.509880 0.378660 -0.632438
O8    O     O_R   0.480330 0.464900 0.339970 -0.518668
O9    O     O_3   0.739938 0.410295 0.117344 -0.675349
H7    H     H_    0.775924 0.381043 0.171811 0.341927
O10   O     O_3   0.332291 0.402697 0.961148 -0.592724
C49   C     C_3   0.254568 0.280241 0.923317 -0.198904
H8    H     H_    0.147834 0.249562 0.884136 0.155872
H9    H     H_    0.269661 0.237090 0.984713 0.161964
H10   H     H_    0.285685 0.253408 0.866699 0.194494
O11   O     O_3   0.376623 0.096646 0.411711 -0.528742
C50   C     C_3   0.471786 0.109378 0.503836 -0.262006
H11   H     H_    0.495744 0.179317 0.567120 0.147468
H12   H     H_    0.564103 0.135060 0.492907 0.204758
H13   H     H_    0.438678 0.026249 0.525934 0.172478
O12   O     O_3   0.914824 0.744195 0.277465 -0.529013
C51   C     C_3   0.898747 0.639527 0.300111 -0.124014
H14   H     H_    0.792617 0.573064 0.276730 0.234806
H15   H     H_    0.954792 0.652720 0.381170 0.063155
H16   H     H_    0.939585 0.605445 0.257195 0.187819
O13   O     O_3   0.177822 0.873002 0.353302 -0.681387
H17   H     H_    0.151031 0.810816 0.388244 0.314645
O14   O     O_3   0.581103 0.884556 0.546027 -0.552930
C52   C     C_3   0.476586 0.851844 0.451753 -0.243884
H18   H     H_    0.456919 0.775503 0.397884 0.151024
H19   H     H_    0.496953 0.925471 0.416425 0.161534
H20   H     H_    0.385091 0.826019 0.464589 0.186217
O15   O     O_3   0.961469 0.184873 0.511512 -0.698184
H21   H     H_    0.928744 0.232560 0.533819 0.380487
O16   O     O_3   0.761521 0.119564 0.581604 -0.823216
H22   H     H_    0.700902 0.086577 0.616432 0.352686
O17   O     O_3   0.695749 0.686737 0.316970 -0.700217
H23   H     H_    0.621323 0.697176 0.313831 0.303921
O18   O     O_3   0.482229 0.736812 0.675835 -0.521890
C53   C     C_3   0.505067 0.729256 0.776523 -0.268094
H24   H     H_    0.611688 0.762162 0.817801 0.186256
H25   H     H_    0.448557 0.637755 0.780170 0.157818
H26   H     H_    0.480482 0.784446 0.816444 0.169661
O19   O     O_3   0.105678 0.808373 0.631851 -0.666960
H27   H     H_    0.035059 0.827070 0.611747 0.313172
O20   O     O_3   0.328879 0.837195 0.676997 -0.653826
H28   H     H_    0.424131 0.880525 0.690055 0.348356
O21   O     O_3   0.105211 0.381236 0.463564 -0.627351
H29   H     H_    0.143370 0.381659 0.412856 0.371049
O22   O     O_3   0.510491 0.276081 0.319104 -0.648035
H30   H     H_    0.476991 0.207858 0.263271 0.362209
O23   O     O_3   0.927986 0.359647 0.317693 -0.750089
H31   H     H_    0.872721 0.284322 0.264731 0.360703
O24   O     O_3   0.655622 0.202304 0.250876 -0.588564
C54   C     C_3   0.646331 0.106650 0.288720 -0.304008
H32   H     H_    0.593528 0.028291 0.223725 0.198849
H33   H     H_    0.588371 0.087906 0.336706 0.179879
H34   H     H_    0.745769 0.120993 0.331804 0.198186
O25   O     O_3   0.859998 0.638484 0.620807 -0.695905
H35   H     H_    0.928114 0.698164 0.685644 0.316927
O26   O     O_3   0.198929 0.479993 0.836332 -0.679242
H36   H     H_    0.295373 0.533507 0.875170 0.338189
O27   O     O_3   0.624927 0.507487 0.026470 -0.635455
H37   H     H_    0.570510 0.542972 0.005254 0.344403
O28   O     O_3   0.974078 0.476744 0.770463 -0.580213
C55   C     C_3   0.886026 0.359944 0.712046 -0.211674
H38   H     H_    0.802063 0.315164 0.735562 0.143143
H39   H     H_    0.938534 0.311660 0.716584 0.218300
H40   H     H_    0.844055 0.358738 0.631612 0.197348

loop_
_geom_bond_atom_site_label_1
_geom_bond_atom_site_label_2
_ccdc_geom_bond_type
C48   H5    S    
C52   H18   S    
O16   H22   S    
Cu1   O5    S    
Cu2   O6    S    
C27   O17   S    
O17   H23   S    
C32   N2    A    
C4    C8    A    
C34   O8    A    
O18   C53   S    
Cu1   N1    S    
O28   C55   S    
C26   C27   A    
C17   C23   S    
C31   C43   A    
C36   C37   A    
C38   C42   A    
C3    C7    A    
C1    O1    A    
C5    C6    A    
C28   H1    S    
O21   H29   S    
C16   O13   S    
C17   C29   A    
O22   H30   S    
C42   N1    A    
C18   C19   A    
C50   H12   S    
O23   H31   S    
O20   H28   S    
C11   C15   A    
C19   C20   A    
C8    C9    A    
C46   O27   S    
C49   H8    S    
C18   C30   A    
C9    C10   A    
C37   N2    A    
C19   O16   S    
C44   C47   A    
C54   H34   S    
C23   O5    A    
C21   C22   A    
O19   H27   S    
C51   H16   S    
C34   O7    A    
O24   C54   S    
C14   C45   A    
C20   O15   S    
Cu1   O3    S    
O11   C50   S    
O9    H7    S    
Cu2   N2    S    
C43   O18   S    
C24   C25   A    
C51   H15   S    
C1    O2    A    
O15   H21   S    
C33   O24   S    
O14   C52   S    
C51   H14   S    
C29   O11   S    
C2    C48   A    
C16   C29   A    
C40   O19   S    
C35   C36   A    
C2    C4    A    
C50   H11   S    
C12   O4    A    
C49   H10   S    
C34   C45   S    
C18   O14   S    
C15   H2    S    
O13   H17   S    
Cu2   O8    S    
O27   H37   S    
C35   O23   S    
Cu1   O7    S    
C55   H40   S    
C40   C41   A    
C53   H24   S    
C53   H25   S    
C22   C27   A    
C52   H19   S    
C9    O26   S    
C52   H20   S    
C15   C45   A    
C39   C40   A    
C55   H39   S    
C54   H32   S    
C16   C25   A    
C46   C47   A    
C23   O6    A    
C22   C30   A    
C17   C28   A    
C24   C28   A    
C6    H6    S    
C4    C5    A    
C10   C13   A    
O26   H36   S    
C8    O28   S    
C5    C11   A    
C6    C7    A    
C53   H26   S    
C3    C46   A    
C26   O12   S    
Cu1   O1    S    
Cu2   O2    S    
C31   O20   S    
C36   C38   A    
C2    C3    A    
C25   C26   A    
C12   C44   S    
O25   H35   S    
C32   C33   A    
C12   O3    A    
C38   C39   A    
C13   O10   S    
Cu2   O4    S    
C1    C30   S    
C33   C35   A    
C31   C39   A    
C37   C41   A    
O10   C49   S    
C50   H13   S    
C10   C11   A    
C43   N1    A    
C7    O9    S    
O12   C51   S    
C42   O21   S    
C14   H3    S    
C20   C21   A    
Cu1   Cu2   S    
C32   O22   S    
C21   C24   A    
C49   H9    S    
C41   O25   S    
C13   C14   A    
C44   C48   A    
C47   H4    S    
C55   H38   S    
C54   H33   S    
