data_str_m2_o9_o20_f0_pcu.sym.147
_audit_creation_date              2012-12-10T19:46:53-0500
_audit_creation_method            fapswitch 2.2
_symmetry_space_group_name_H-M    P1
_symmetry_Int_Tables_number       1
_space_group_crystal_system       triclinic
_cell_length_a                    10.949308
_cell_length_b                    10.959719
_cell_length_c                    13.132112
_cell_angle_alpha                 91.254261
_cell_angle_beta                  91.197846
_cell_angle_gamma                 88.578395
_cell_volume                      1574.68162713

loop_
_atom_site_label
_atom_site_type_symbol
_atom_type_description
_atom_site_fract_x
_atom_site_fract_y
_atom_site_fract_z
_atom_type_partial_charge
C1    C     C_R   0.503038 0.259359 0.498589 0.819887
C2    C     C_R   0.503837 0.740423 0.501458 0.843599
C3    C     C_R   0.873018 0.487499 0.502799 -0.082036
C4    C     C_R   0.126726 0.496651 0.496437 -0.087608
C5    C     C_R   0.942888 0.471116 0.593459 0.021447
C6    C     C_R   0.056741 0.503946 0.404903 -0.000067
C7    C     C_R   0.409443 0.226556 0.161695 -0.115932
C8    C     C_R   0.650783 0.757639 0.818818 -0.127295
C9    C     C_R   0.399546 0.182568 0.260184 0.472961
C10   C     C_R   0.645291 0.808664 0.722328 0.455071
C11   C     C_R   0.496251 0.108870 0.300908 -0.009683
C12   C     C_R   0.545446 0.888015 0.696876 -0.009817
C13   C     C_R   0.594230 0.073781 0.238416 -0.258609
C14   C     C_R   0.460545 0.921229 0.771877 -0.261380
C15   C     C_R   0.601970 0.114080 0.137750 0.072990
C16   C     C_R   0.467487 0.872545 0.870358 0.068714
C17   C     C_R   0.509455 0.194430 0.101666 -0.239859
C18   C     C_R   0.563296 0.788046 0.891524 -0.235184
C19   C     C_R   0.495560 0.930860 0.410360 -0.253096
C20   C     C_R   0.524344 0.068569 0.589256 -0.248962
C21   C     C_R   0.509109 0.872737 0.503599 -0.099334
C22   C     C_R   0.506482 0.126806 0.496180 -0.095889
C23   C     C_R   0.259268 0.500346 0.498655 0.838731
C24   C     C_R   0.740446 0.492818 0.501110 0.839707
C25   C     C_R   0.527797 0.942059 0.594463 0.008853
C26   C     C_R   0.495553 0.057060 0.404658 0.002829
C27   C     C_1   0.500263 0.500651 0.173616 0.146045
C28   C     C_1   0.499635 0.499528 0.826388 0.148758
C29   C     C_1   0.500056 0.500426 0.050686 -0.110707
C30   C     C_1   0.499661 0.499653 0.949313 -0.111092
C31   C     C_R   0.203881 0.628080 0.171315 -0.143024
C32   C     C_R   0.766188 0.305055 0.791083 -0.122930
C33   C     C_R   0.165173 0.618340 0.271578 -0.113482
C34   C     C_R   0.816995 0.335061 0.698533 -0.107117
C35   C     C_R   0.108537 0.511891 0.301975 0.136358
C36   C     C_R   0.889404 0.438718 0.692116 0.133969
C37   C     C_R   0.089155 0.416872 0.230176 -0.083675
C38   C     C_R   0.914749 0.508135 0.781066 -0.135544
C39   C     C_R   0.126603 0.427853 0.129796 -0.164890
C40   C     C_R   0.866407 0.475638 0.874190 -0.175356
C41   C     C_R   0.184301 0.533288 0.100439 -0.127792
C42   C     C_R   0.791602 0.374555 0.879084 -0.107032
C43   C     C_R   0.930664 0.501245 0.409976 -0.251744
C44   C     C_R   0.069065 0.479561 0.589206 -0.242152
Cu1   Cu    Cu3+1 0.499990 0.499990 0.592680 0.991565
Cu2   Cu    Cu3+1 0.500010 0.500010 0.407320 0.990739
H1    H     H_    0.213672 0.541667 0.022762 0.138015
H2    H     H_    0.752854 0.350421 0.950875 0.136769
H3    H     H_    0.661661 0.010081 0.268854 0.144692
H4    H     H_    0.390604 0.988006 0.751869 0.143115
H5    H     H_    0.486294 0.877269 0.340386 0.153410
H6    H     H_    0.537151 0.122066 0.659007 0.151474
H7    H     H_    0.248342 0.709295 0.148167 0.142556
H8    H     H_    0.706512 0.228291 0.794129 0.113296
H9    H     H_    0.178410 0.693666 0.325128 0.110771
H10   H     H_    0.798034 0.278887 0.631420 0.099751
H11   H     H_    0.043575 0.335006 0.251758 0.136193
H12   H     H_    0.971259 0.587666 0.778183 0.134486
H13   H     H_    0.110939 0.354574 0.074809 0.132475
H14   H     H_    0.885979 0.529576 0.942361 0.137134
H15   H     H_    0.877008 0.510679 0.340038 0.159959
H16   H     H_    0.123041 0.468121 0.658699 0.155207
H17   H     H_    0.512201 0.231898 0.026400 0.142595
H18   H     H_    0.573009 0.744996 0.964369 0.148823
H19   H     H_    0.337583 0.284575 0.130255 0.157520
H20   H     H_    0.725162 0.695267 0.838557 0.159340
N1    N     N_1   0.500030 0.500030 0.268070 -0.133663
N2    N     N_1   0.499970 0.499970 0.731930 -0.135555
O1    O     O_R   0.499980 0.319630 0.578260 -0.595443
O2    O     O_R   0.500020 0.680370 0.421740 -0.595738
O3    O     O_R   0.500000 0.319650 0.421740 -0.561718
O4    O     O_R   0.500000 0.680350 0.578260 -0.560426
O5    O     O_R   0.319630 0.500000 0.578260 -0.591422
O6    O     O_R   0.680370 0.500000 0.421740 -0.595612
O7    O     O_R   0.319650 0.500020 0.421740 -0.555036
O8    O     O_R   0.680350 0.499980 0.578260 -0.551657
C45   C     C_R   0.701286 0.065765 0.069587 0.118152
C46   C     C_R   0.685305 0.063770 0.962548 -0.158433
C47   C     C_R   0.774580 0.011288 0.899637 -0.116509
C48   C     C_R   0.878665 0.955286 0.941915 -0.116585
C49   C     C_R   0.896253 0.956105 0.047289 -0.157181
C50   C     C_R   0.810733 0.014027 0.110485 -0.162926
H21   H     H_    0.602789 0.099112 0.926289 0.119927
H22   H     H_    0.761327 0.011038 0.817786 0.130444
H23   H     H_    0.945830 0.911528 0.893031 0.132800
H24   H     H_    0.976654 0.912047 0.080357 0.140234
H25   H     H_    0.831514 0.016862 0.191225 0.116743
C51   C     C_R   0.378287 0.913460 0.950694 0.122491
C52   C     C_R   0.404568 0.896404 0.055406 -0.143506
C53   C     C_R   0.322990 0.938253 0.129535 -0.142476
C54   C     C_R   0.216669 0.002452 0.101811 -0.115594
C55   C     C_R   0.189432 0.021553 0.999356 -0.162818
C56   C     C_R   0.266849 0.974290 0.924375 -0.159407
H26   H     H_    0.488781 0.853587 0.081926 0.123003
H27   H     H_    0.343247 0.922731 0.209096 0.123682
H28   H     H_    0.155579 0.037667 0.159792 0.141734
H29   H     H_    0.107429 0.072391 0.977640 0.143374
H30   H     H_    0.237269 0.986288 0.846317 0.117762
O9    O     O_3   0.294244 0.212305 0.312262 -0.755180
H31   H     H_    0.292976 0.166062 0.376033 0.309897
O10   O     O_3   0.738953 0.779120 0.656686 -0.751176
H32   H     H_    0.733229 0.832565 0.596992 0.309308

loop_
_geom_bond_atom_site_label_1
_geom_bond_atom_site_label_2
_ccdc_geom_bond_type
C33   H9    S    
C34   H10   S    
O10   H32   S    
C40   H14   S    
C27   C29   S    
C24   O6    A    
C48   H23   S    
C49   C50   A    
C53   H27   S    
C39   C41   A    
C15   C45   S    
C45   C46   A    
C8    H20   S    
C3    C43   A    
C1    O3    A    
Cu1   O8    S    
C35   C37   A    
C23   O5    A    
C47   H22   S    
C20   C25   A    
C50   H25   S    
C5    C36   S    
C6    C35   S    
Cu1   O5    S    
C52   H26   S    
C19   C26   A    
C54   H28   S    
C38   H12   S    
C46   H21   S    
C7    C17   A    
C31   C33   A    
C49   H24   S    
C40   C42   A    
C1    C22   S    
C9    O9    S    
Cu1   O4    S    
C3    C24   S    
C2    C21   S    
C2    O4    A    
C32   H8    S    
Cu2   O7    S    
C55   H29   S    
Cu1   O1    S    
C4    C6    A    
C54   C55   A    
C4    C23   S    
C46   C47   A    
C24   O8    A    
C4    C44   A    
C11   C26   S    
C44   H16   S    
Cu1   Cu2   S    
C1    O1    A    
C32   C34   A    
C29   C30   T    
C19   H5    S    
C7    H19   S    
O9    H31   S    
C39   H13   S    
Cu1   N2    S    
C41   H1    S    
C42   H2    S    
C31   H7    S    
C9    C11   A    
Cu2   O3    S    
C10   C12   A    
C13   H3    S    
C8    C10   A    
C5    C44   A    
C12   C14   A    
C6    C43   A    
C13   C15   A    
C14   C16   A    
C20   C22   A    
Cu2   O6    S    
C43   H15   S    
C15   C17   A    
C21   C25   A    
C51   C56   A    
C31   C41   A    
C28   N2    T    
C10   O10   S    
C23   O7    A    
C48   C49   A    
C3    C5    A    
C12   C25   S    
C20   H6    S    
C28   C30   S    
Cu2   N1    S    
C37   C39   A    
C17   H17   S    
C38   C40   A    
C11   C13   A    
C18   H18   S    
C53   C54   A    
C14   H4    S    
C45   C50   A    
C36   C38   A    
C55   C56   A    
C33   C35   A    
C34   C36   A    
C8    C18   A    
Cu2   O2    S    
C27   N1    T    
C47   C48   A    
C7    C9    A    
C51   C52   A    
C16   C18   A    
C22   C26   A    
C16   C51   S    
C32   C42   A    
C52   C53   A    
C2    O2    A    
C56   H30   S    
C37   H11   S    
C19   C21   A    
