data_str_m3_o10_o15_f0_pcu.sym.42
_audit_creation_date              2012-12-10T16:50:58-0500
_audit_creation_method            fapswitch 2.2
_symmetry_space_group_name_H-M    P1
_symmetry_Int_Tables_number       1
_space_group_crystal_system       triclinic
_cell_length_a                    7.767648
_cell_length_b                    8.5533
_cell_length_c                    10.936076
_cell_angle_alpha                 91.916493
_cell_angle_beta                  85.302263
_cell_angle_gamma                 93.560769
_cell_volume                      722.449656728

loop_
_atom_site_label
_atom_site_type_symbol
_atom_type_description
_atom_site_fract_x
_atom_site_fract_y
_atom_site_fract_z
_atom_type_partial_charge
C1    C     C_R   0.545672 0.794713 0.496808 0.957562
C2    C     C_R   0.953079 0.409399 0.051005 -0.102477
C3    C     C_R   0.028920 0.561244 0.074969 -0.109816
C4    C     C_R   0.971112 0.438832 0.925027 -0.109843
C5    C     C_R   0.182238 0.568675 0.136029 -0.162275
C6    C     C_R   0.817794 0.431401 0.863967 -0.162259
C7    C     C_R   0.343468 0.532347 0.071861 0.054867
C8    C     C_R   0.656560 0.467719 0.928137 0.054865
C9    C     C_R   0.356644 0.551935 0.945132 0.058814
C10   C     C_R   0.643385 0.448129 0.054865 0.058807
C11   C     C_R   0.491663 0.488019 0.127594 -0.206910
C12   C     C_R   0.454328 0.205287 0.503192 0.957574
C13   C     C_R   0.508357 0.512028 0.872404 -0.206907
C14   C     C_2   0.569915 0.958084 0.494837 -0.386725
C15   C     C_2   0.430085 0.041916 0.505163 -0.386730
C16   C     C_R   0.503256 0.505475 0.739858 0.870079
C17   C     C_R   0.496748 0.494536 0.260142 0.870080
C18   C     C_R   0.216559 0.621768 0.896969 -0.177481
C19   C     C_R   0.783476 0.378301 0.103025 -0.177462
C20   C     C_R   0.046956 0.590677 0.948991 -0.102468
H1    H     H_    0.060852 0.362337 0.874116 0.157239
H2    H     H_    0.297901 0.991177 0.515135 0.187244
H3    H     H_    0.935490 0.291495 0.353837 0.321757
H4    H     H_    0.064511 0.708507 0.646160 0.321759
H5    H     H_    0.939177 0.637737 0.125880 0.157232
H6    H     H_    0.237357 0.701282 0.821452 0.149843
H7    H     H_    0.762682 0.298767 0.178529 0.149845
H8    H     H_    0.968952 0.684167 0.923180 0.153359
H9    H     H_    0.031083 0.315908 0.076813 0.153361
H10   H     H_    0.171293 0.623229 0.226124 0.190382
H11   H     H_    0.828739 0.376832 0.773882 0.190391
H12   H     H_    0.702099 0.008823 0.484866 0.187245
N1    N     N_2   0.950330 0.457950 0.466250 0.167014
N2    N     N_2   0.049670 0.542050 0.533750 0.167011
O1    O     O_R   0.389250 0.738570 0.508280 -0.642782
O2    O     O_3   0.970205 0.649824 0.605525 -0.671721
O3    O     O_R   0.610750 0.261430 0.491720 -0.642777
O4    O     O_R   0.678390 0.711630 0.486650 -0.576173
O5    O     O_R   0.321610 0.288370 0.513350 -0.576172
O6    O     O_R   0.355430 0.513480 0.694040 -0.644727
O7    O     O_R   0.644570 0.486520 0.305960 -0.644726
O8    O     O_R   0.644570 0.486540 0.672410 -0.598386
O9    O     O_R   0.355430 0.513460 0.327590 -0.598377
O10   O     O_3   0.029796 0.350179 0.394473 -0.671717
Zn1   Zn    Zn3+2 0.306940 0.517990 0.514440 1.011289
Zn2   Zn    Zn3+2 0.693060 0.482010 0.485560 1.011291

loop_
_geom_bond_atom_site_label_1
_geom_bond_atom_site_label_2
_ccdc_geom_bond_type
C2    C4    A    
O7    Zn2   S    
C17   O9    A    
C8    C13   A    
C4    H1    S    
C19   H7    S    
C18   C20   A    
C18   H6    S    
C12   C15   S    
C10   C19   A    
O5    Zn1   S    
C12   O5    A    
C2    C3    A    
C2    C19   A    
C5    C7    A    
C3    C20   A    
N2    Zn1   S    
C7    C11   A    
N1    Zn2   S    
O9    Zn1   S    
H4    O2    S    
C1    O4    A    
C16   O6    A    
C2    H9    S    
C6    C8    A    
C4    C6    A    
N1    N2    D    
N2    O2    S    
O6    Zn1   S    
C17   O7    A    
O4    Zn2   S    
C10   C11   A    
C4    C20   A    
C16   O8    A    
C9    C18   A    
C3    H5    S    
C1    O1    A    
C8    C10   A    
C5    H10   S    
O8    Zn2   S    
C13   C16   S    
C12   O3    A    
C7    C9    A    
C9    C13   A    
C14   C15   D    
C11   C17   S    
C6    H11   S    
C1    C14   S    
C20   H8    S    
O3    Zn2   S    
N1    O10   S    
C15   H2    S    
H3    O10   S    
C14   H12   S    
C3    C5    A    
O1    Zn1   S    
