data_str_m2_o1_o17_f0_pcu.sym.131
_audit_creation_date              2012-12-10T17:57:49-0500
_audit_creation_method            fapswitch 2.2
_symmetry_space_group_name_H-M    P1
_symmetry_Int_Tables_number       1
_space_group_crystal_system       triclinic
_cell_length_a                    10.827528
_cell_length_b                    9.515964
_cell_length_c                    15.081786
_cell_angle_alpha                 89.537175
_cell_angle_beta                  90.799907
_cell_angle_gamma                 88.756812
_cell_volume                      1553.37050098

loop_
_atom_site_label
_atom_site_type_symbol
_atom_type_description
_atom_site_fract_x
_atom_site_fract_y
_atom_site_fract_z
_atom_type_partial_charge
C1    C     C_R   0.262267 0.501895 0.501315 0.839181
C2    C     C_R   0.737788 0.498260 0.497827 0.840148
C3    C     C_R   0.293027 0.611802 0.040582 0.363051
C4    C     C_R   0.728729 0.451172 0.960467 0.365739
C5    C     C_R   0.066480 0.404114 0.554121 0.365200
C6    C     C_R   0.933661 0.596887 0.443917 0.357081
C7    C     C_R   0.939534 0.394275 0.545197 0.351965
C8    C     C_R   0.061046 0.605740 0.451879 0.342923
C9    C     C_R   0.871795 0.494093 0.493538 -0.390253
C10   C     C_R   0.128418 0.506573 0.504526 -0.399718
C11   C     C_R   0.426361 0.076950 0.442044 0.022198
C12   C     C_R   0.573563 0.923116 0.557992 0.022322
C13   C     C_R   0.573431 0.071958 0.558000 -0.024933
C14   C     C_R   0.426419 0.928084 0.442014 -0.014126
C15   C     C_R   0.499522 0.500553 0.329243 0.775629
C16   C     C_R   0.505130 0.499216 0.671024 0.776428
C17   C     C_R   0.611943 0.447538 0.816135 -0.020667
C18   C     C_R   0.388173 0.533963 0.185436 -0.013100
C19   C     C_R   0.506371 0.498402 0.767786 -0.198293
C20   C     C_R   0.499319 0.502387 0.233028 -0.188217
C21   C     C_R   0.403090 0.556523 0.811604 0.363409
C22   C     C_R   0.611907 0.478089 0.189254 0.359663
C23   C     C_R   0.403996 0.562267 0.904217 0.051533
C24   C     C_R   0.613529 0.483640 0.096713 0.058464
C25   C     C_R   0.509769 0.519189 0.953542 -0.086980
C26   C     C_R   0.505809 0.520463 0.047509 -0.089690
C27   C     C_R   0.618415 0.472372 0.909361 0.069381
C28   C     C_R   0.394047 0.556020 0.091824 0.070833
C29   C     C_R   0.299249 0.612479 0.948083 -0.234886
C30   C     C_R   0.723961 0.455202 0.052832 -0.234852
Cu1   Cu    Cu3+1 0.500000 0.640660 0.500000 0.972333
Cu2   Cu    Cu3+1 0.500000 0.359340 0.500000 0.955258
H1    H     H_    0.219937 0.652149 0.910309 0.201086
H2    H     H_    0.808486 0.434657 0.090463 0.196125
H3    H     H_    0.367316 0.135090 0.395645 0.127837
H4    H     H_    0.632583 0.865090 0.604452 0.127839
H5    H     H_    0.631893 0.126271 0.604426 0.125417
H6    H     H_    0.367644 0.873972 0.395497 0.136436
N1    N     N_R   0.500000 0.852070 0.500000 -0.164761
N2    N     N_R   0.500000 0.147930 0.500000 -0.162659
O1    O     O_R   0.319640 0.618740 0.499990 -0.577675
O2    O     O_R   0.680360 0.381260 0.500010 -0.586018
O3    O     O_R   0.680360 0.618740 0.500010 -0.568358
O4    O     O_R   0.319640 0.381260 0.499990 -0.567623
O5    O     O_R   0.499970 0.618800 0.370260 -0.575151
O6    O     O_R   0.500030 0.381200 0.629740 -0.590705
O7    O     O_R   0.500030 0.618800 0.629740 -0.566727
O8    O     O_R   0.499970 0.381200 0.370260 -0.587245
C31   C     C_3   0.710321 0.356838 0.769766 -0.273551
C32   C     C_3   0.711683 0.204963 0.806234 -0.353325
C33   C     C_3   0.820401 0.117613 0.771804 -0.723409
H7    H     H_    0.810188 0.100576 0.699541 0.260050
H8    H     H_    0.908901 0.170528 0.785911 0.292550
H9    H     H_    0.822993 0.013175 0.805240 0.226154
H10   H     H_    0.717361 0.203372 0.879709 0.242143
H11   H     H_    0.624131 0.153941 0.786611 0.207555
H12   H     H_    0.695216 0.350037 0.697578 0.207722
H13   H     H_    0.802136 0.405239 0.773598 0.265028
C34   C     C_3   0.264791 0.529911 0.234501 -0.264067
C35   C     C_3   0.185538 0.407342 0.202664 -0.368710
C36   C     C_3   0.062985 0.403024 0.251330 -0.741157
H14   H     H_    0.079634 0.381970 0.323050 0.237890
H15   H     H_    0.011015 0.504262 0.242654 0.296717
H16   H     H_    0.005982 0.317451 0.224092 0.248496
H17   H     H_    0.165508 0.415617 0.130488 0.247029
H18   H     H_    0.237054 0.306541 0.214947 0.212699
H19   H     H_    0.277447 0.514591 0.306865 0.180512
H20   H     H_    0.214535 0.632258 0.229894 0.277310
O9    O     O_3   0.297845 0.604840 0.766309 -0.731490
H21   H     H_    0.293777 0.564797 0.706137 0.316490
O10   O     O_3   0.722164 0.446559 0.234098 -0.759283
H22   H     H_    0.709434 0.432491 0.298172 0.317597
O11   O     O_3   0.190801 0.671005 0.080823 -0.748529
H23   H     H_    0.129472 0.704092 0.035435 0.331537
O12   O     O_3   0.841597 0.432088 0.920205 -0.749889
H24   H     H_    0.908314 0.419901 0.965520 0.327293
O13   O     O_3   0.126437 0.311193 0.611956 -0.656991
H25   H     H_    0.202031 0.355275 0.635347 0.322473
O14   O     O_3   0.873514 0.690167 0.386423 -0.652539
H26   H     H_    0.796386 0.647695 0.364548 0.334551
O15   O     O_3   0.882765 0.290751 0.592463 -0.708246
H27   H     H_    0.845270 0.227916 0.547966 0.334487
O16   O     O_3   0.118515 0.705953 0.401898 -0.690211
H28   H     H_    0.158019 0.770088 0.444658 0.340272

loop_
_geom_bond_atom_site_label_1
_geom_bond_atom_site_label_2
_ccdc_geom_bond_type
C8    O16   S    
O11   H23   S    
C6    C9    A    
O15   H27   S    
O13   H25   S    
Cu1   O3    S    
C23   C29   A    
C3    C28   A    
C19   C21   A    
C24   C26   A    
C11   C14   A    
C29   H1    S    
C31   H12   S    
C36   H15   S    
C3    C29   A    
C4    O12   S    
C34   H19   S    
C14   N1    A    
O16   H28   S    
C13   N2    A    
C12   H4    S    
C13   H5    S    
C23   C25   A    
C35   H18   S    
C34   C35   S    
Cu1   O7    S    
Cu2   O8    S    
C36   H14   S    
C15   O8    A    
C16   O7    A    
C15   C20   S    
C30   H2    S    
C11   N2    A    
C17   C27   A    
C18   C28   A    
C16   O6    A    
C5    C7    A    
C6    C8    A    
C25   C26   A    
C32   H11   S    
C31   H13   S    
C33   H7    S    
C21   O9    S    
C35   C36   S    
C33   H8    S    
C36   H16   S    
O12   H24   S    
C34   H20   S    
C14   H6    S    
C1    O4    A    
Cu1   Cu2   S    
C2    O3    A    
C32   C33   S    
Cu2   O4    S    
C1    O1    A    
C7    O15   S    
C20   C22   A    
C35   H17   S    
C21   C23   A    
C22   C24   A    
C15   O5    A    
C17   C31   S    
C22   O10   S    
C4    C27   A    
C7    C9    A    
Cu1   O1    S    
Cu2   O6    S    
C1    C10   S    
C25   C27   A    
C26   C28   A    
C32   H10   S    
C33   H9    S    
C12   N1    A    
C11   H3    S    
O10   H22   S    
C6    O14   S    
C2    O2    A    
C16   C19   S    
C17   C19   A    
Cu1   N1    S    
C18   C20   A    
Cu2   N2    S    
O9    H21   S    
C3    O11   S    
C24   C30   A    
O14   H26   S    
C18   C34   S    
C5    C10   A    
C12   C13   A    
C8    C10   A    
C31   C32   S    
Cu1   O5    S    
Cu2   O2    S    
C2    C9    S    
C5    O13   S    
C4    C30   A    
