data_str_m3_o16_o16_f0_pcu.sym.201
_audit_creation_date              2012-12-10T18:04:36-0500
_audit_creation_method            fapswitch 2.2
_symmetry_space_group_name_H-M    P1
_symmetry_Int_Tables_number       1
_space_group_crystal_system       triclinic
_cell_length_a                    19.451649
_cell_length_b                    17.777057
_cell_length_c                    12.510837
_cell_angle_alpha                 90.313621
_cell_angle_beta                  99.900186
_cell_angle_gamma                 90.582847
_cell_volume                      4261.4038501

loop_
_atom_site_label
_atom_site_type_symbol
_atom_type_description
_atom_site_fract_x
_atom_site_fract_y
_atom_site_fract_z
_atom_type_partial_charge
C1    C     C_R   0.407932 0.099415 0.441660 0.841547
C2    C     C_R   0.410076 0.898040 0.442365 0.835442
C3    C     C_R   0.907921 0.599400 0.441652 0.841547
C4    C     C_R   0.910074 0.398043 0.442365 0.835395
C5    C     C_R   0.715004 0.249205 0.516023 0.041679
C6    C     C_R   0.717774 0.753070 0.526280 0.043468
C7    C     C_R   0.215031 0.749183 0.516065 0.041709
C8    C     C_R   0.217725 0.253038 0.526223 0.043480
C9    C     C_R   0.686179 0.313881 0.559385 0.023125
C10   C     C_R   0.703263 0.698897 0.603526 0.025975
C11   C     C_R   0.186242 0.813850 0.559513 0.023154
C12   C     C_R   0.203093 0.198777 0.603271 0.026026
C13   C     C_R   0.213423 0.884949 0.541543 -0.150135
C14   C     C_R   0.232433 0.127744 0.601927 -0.133280
C15   C     C_R   0.713364 0.384979 0.541403 -0.150108
C16   C     C_R   0.732580 0.627851 0.602217 -0.133603
C17   C     C_R   0.269483 0.891559 0.487556 -0.214739
C18   C     C_R   0.279187 0.112745 0.533482 -0.209331
C19   C     C_R   0.769458 0.391581 0.487486 -0.214645
C20   C     C_R   0.779232 0.612774 0.533633 -0.209177
C21   C     C_R   0.689057 0.178383 0.536150 -0.216525
C22   C     C_R   0.686969 0.823115 0.526230 -0.240620
C23   C     C_R   0.189069 0.678362 0.536146 -0.216530
C24   C     C_R   0.186964 0.323102 0.526282 -0.240433
C25   C     C_R   0.599475 0.234124 0.621402 -0.218486
C26   C     C_R   0.623254 0.785249 0.666857 -0.217131
C27   C     C_R   0.099537 0.734095 0.621517 -0.218585
C28   C     C_R   0.123030 0.285081 0.666573 -0.217285
C29   C     C_R   0.362778 0.834936 0.408492 -0.091810
C30   C     C_R   0.354899 0.156145 0.406190 -0.111442
C31   C     C_R   0.862778 0.334937 0.408497 -0.091738
C32   C     C_R   0.854853 0.656089 0.406153 -0.111534
C33   C     C_R   0.648739 0.997072 0.141779 0.393469
C34   C     C_R   0.148739 0.497044 0.141781 0.393441
C35   C     C_R   0.381031 0.977755 0.760234 -0.004701
C36   C     C_R   0.881028 0.477763 0.760234 -0.004642
C37   C     C_R   0.360736 0.947767 0.852220 -0.242902
C38   C     C_R   0.860728 0.447787 0.852222 -0.243019
C39   C     C_R   0.589845 0.898761 0.557173 0.930640
C40   C     C_R   0.588862 0.102809 0.556358 0.933841
C41   C     C_R   0.089833 0.398750 0.557164 0.930611
C42   C     C_R   0.088865 0.602806 0.556360 0.933799
C43   C     C_R   0.409720 0.940623 0.947226 0.385467
C44   C     C_R   0.909710 0.440640 0.947230 0.385464
C45   C     C_R   0.477194 0.974365 0.952004 -0.143525
C46   C     C_R   0.977190 0.474364 0.952006 -0.143493
C47   C     C_R   0.495283 0.002525 0.855637 0.075148
C48   C     C_R   0.995285 0.502514 0.855637 0.075184
C49   C     C_R   0.527173 0.983944 0.047342 -0.090259
C50   C     C_R   0.027171 0.483937 0.047344 -0.090241
C51   C     C_R   0.600036 0.993719 0.041472 -0.158199
C52   C     C_R   0.100035 0.493693 0.041474 -0.158225
C53   C     C_R   0.615974 0.008890 0.936414 0.374540
C54   C     C_R   0.115976 0.508847 0.936414 0.374547
C55   C     C_R   0.561655 0.033372 0.857413 0.248399
C56   C     C_R   0.061663 0.533342 0.857413 0.248384
C57   C     C_R   0.505237 0.993336 0.146488 0.108720
C58   C     C_R   0.005236 0.493343 0.146489 0.108724
C59   C     C_R   0.621701 0.997981 0.238124 -0.082905
C60   C     C_R   0.121700 0.497965 0.238126 -0.082876
C61   C     C_R   0.629209 0.305456 0.615633 0.437066
C62   C     C_R   0.658237 0.716933 0.677749 0.439183
C63   C     C_R   0.129304 0.805416 0.615829 0.436652
C64   C     C_R   0.157941 0.216720 0.677346 0.439064
C65   C     C_R   0.629287 0.171231 0.581221 -0.088098
C66   C     C_R   0.635886 0.836398 0.588161 -0.125331
C67   C     C_R   0.129309 0.671210 0.581243 -0.088079
C68   C     C_R   0.135819 0.336340 0.588111 -0.124999
C69   C     C_R   0.385597 0.775173 0.350661 -0.105179
C70   C     C_R   0.364626 0.205313 0.322717 -0.173764
C71   C     C_R   0.885614 0.275161 0.350709 -0.105177
C72   C     C_R   0.864508 0.705190 0.322563 -0.173861
C73   C     C_R   0.348762 0.707415 0.340274 -0.062328
C74   C     C_R   0.322363 0.267645 0.300516 -0.073486
C75   C     C_R   0.848784 0.207400 0.340337 -0.062249
C76   C     C_R   0.822215 0.767492 0.300310 -0.073718
C77   C     C_R   0.291957 0.697468 0.393368 -0.165433
C78   C     C_R   0.272932 0.284037 0.365220 -0.157666
C79   C     C_R   0.791965 0.197465 0.393404 -0.165400
C80   C     C_R   0.772832 0.783932 0.365076 -0.157859
C81   C     C_R   0.268890 0.757125 0.453640 0.100881
C82   C     C_R   0.262928 0.236007 0.451766 0.105332
C83   C     C_R   0.768880 0.257136 0.453631 0.100890
C84   C     C_R   0.762906 0.735975 0.451743 0.105296
C85   C     C_R   0.300465 0.828196 0.449975 0.108378
C86   C     C_R   0.299325 0.167741 0.463962 0.110795
C87   C     C_R   0.800454 0.328208 0.449952 0.108358
C88   C     C_R   0.799317 0.667719 0.463991 0.110771
H1    H     H_    0.550573 0.228182 0.650756 0.217307
H2    H     H_    0.584225 0.797348 0.716519 0.207269
H3    H     H_    0.050643 0.728159 0.650896 0.217328
H4    H     H_    0.083919 0.297127 0.716110 0.207178
H5    H     H_    0.450915 0.997626 0.152952 0.180867
H6    H     H_    0.950916 0.497647 0.152952 0.180848
H7    H     H_    0.344808 0.976289 0.684473 0.145348
H8    H     H_    0.844807 0.476294 0.684472 0.145315
H9    H     H_    0.308633 0.924211 0.846284 0.217326
H10   H     H_    0.808621 0.424242 0.846287 0.217300
H11   H     H_    0.192142 0.936178 0.568470 0.213909
H12   H     H_    0.219981 0.082767 0.653381 0.214627
H13   H     H_    0.692065 0.436214 0.568277 0.213597
H14   H     H_    0.720173 0.582922 0.653785 0.214544
H15   H     H_    0.711568 0.127352 0.511076 0.156464
H16   H     H_    0.699708 0.867987 0.475225 0.168886
H17   H     H_    0.211554 0.627334 0.511012 0.156490
H18   H     H_    0.199791 0.368032 0.475437 0.168820
H19   H     H_    0.433314 0.779903 0.317413 0.200918
H20   H     H_    0.406156 0.196751 0.276437 0.180448
H21   H     H_    0.933341 0.279884 0.317484 0.200860
H22   H     H_    0.906005 0.696598 0.276227 0.180476
H23   H     H_    0.765922 0.143547 0.383323 0.188822
H24   H     H_    0.742299 0.833520 0.343340 0.164458
H25   H     H_    0.265912 0.643553 0.383276 0.188785
H26   H     H_    0.242418 0.333644 0.343526 0.164499
H27   H     H_    0.366018 0.661403 0.294790 0.189458
H28   H     H_    0.329591 0.305039 0.235218 0.201427
H29   H     H_    0.866053 0.161376 0.294888 0.189453
H30   H     H_    0.829387 0.804833 0.234923 0.201437
H31   H     H_    0.287928 0.946789 0.471813 0.136770
H32   H     H_    0.298785 0.056825 0.535801 0.146904
H33   H     H_    0.787913 0.446813 0.471756 0.136735
H34   H     H_    0.798798 0.556836 0.535954 0.146903
H35   H     H_    0.655650 0.000790 0.316027 0.197075
H36   H     H_    0.155650 0.500770 0.316028 0.197075
N1    N     N_R   0.552340 0.000000 0.237260 -0.148335
N2    N     N_R   0.052340 0.500000 0.237260 -0.148335
N3    N     N_R   0.448170 1.000000 0.762060 -0.106553
N4    N     N_R   0.948170 0.500000 0.762060 -0.106544
O1    O     O_R   0.448200 0.076800 0.373930 -0.610513
O2    O     O_R   0.448200 0.923200 0.373930 -0.563408
O3    O     O_R   0.948200 0.576800 0.373930 -0.610529
O4    O     O_R   0.948200 0.423200 0.373930 -0.563391
O5    O     O_R   0.414750 0.076790 0.542400 -0.612806
O6    O     O_R   0.414750 0.923210 0.542400 -0.634422
O7    O     O_R   0.914750 0.576790 0.542400 -0.612816
O8    O     O_R   0.914750 0.423210 0.542400 -0.634443
O9    O     O_R   0.585240 0.923200 0.457600 -0.629182
O10   O     O_R   0.585240 0.076800 0.457600 -0.628935
O11   O     O_R   0.085240 0.423200 0.457600 -0.629188
O12   O     O_R   0.085240 0.576800 0.457600 -0.628926
O13   O     O_R   0.551780 0.923190 0.626070 -0.578796
O14   O     O_R   0.551780 0.076810 0.626070 -0.556017
O15   O     O_R   0.051780 0.423190 0.626070 -0.578729
O16   O     O_R   0.051780 0.576810 0.626070 -0.556049
Zn1   Zn    Zn3+2 0.522330 0.000000 0.387520 0.989976
Zn2   Zn    Zn3+2 0.022330 0.500000 0.387520 0.989972
Zn3   Zn    Zn3+2 0.477660 1.000000 0.612480 1.001604
Zn4   Zn    Zn3+2 0.977660 0.500000 0.612480 1.001605
S1    S     S_3+6 0.691014 0.980409 0.884624 0.109623
O17   O     O_2   0.751827 0.032686 0.919755 -0.158389
O18   O     O_2   0.709480 0.901341 0.919543 -0.235949
O19   O     O_3   0.673685 0.982316 0.748497 -0.582796
H37   H     H_    0.717125 0.965387 0.724933 0.375538
S2    S     S_3+6 0.191015 0.480354 0.884630 0.109673
O20   O     O_2   0.251829 0.532629 0.919755 -0.158423
O21   O     O_2   0.209477 0.401287 0.919563 -0.235969
O22   O     O_3   0.173686 0.482251 0.748501 -0.582765
H38   H     H_    0.217155 0.465410 0.724943 0.375589
S3    S     S_3+6 0.740460 0.012747 0.159691 0.047027
O23   O     O_2   0.775767 0.951315 0.107588 -0.208662
O24   O     O_2   0.754937 0.087932 0.113436 -0.219787
O25   O     O_3   0.775212 0.013662 0.292523 -0.644377
H39   H     H_    0.826175 0.019323 0.295000 0.386179
S4    S     S_3+6 0.240461 0.512707 0.159694 0.047034
O26   O     O_2   0.275764 0.451268 0.107598 -0.208596
O27   O     O_2   0.254944 0.587888 0.113432 -0.219876
O28   O     O_3   0.275213 0.513629 0.292525 -0.644257
H40   H     H_    0.326168 0.519404 0.295007 0.386228
S5    S     S_3+6 0.388191 0.875546 0.044238 0.039499
O29   O     O_2   0.346899 0.914573 0.118804 -0.272278
O30   O     O_2   0.343873 0.812842 0.986786 -0.224788
O31   O     O_3   0.460160 0.838178 0.117732 -0.550992
H41   H     H_    0.484292 0.813212 0.063868 0.373723
S6    S     S_3+6 0.888164 0.375578 0.044251 0.039496
O32   O     O_2   0.846881 0.414624 0.118812 -0.272328
O33   O     O_2   0.843832 0.312882 0.986808 -0.224775
O34   O     O_3   0.960123 0.338197 0.117754 -0.550974
H42   H     H_    0.984236 0.313194 0.063898 0.373719
Br1   Br    Br    0.562774 0.140365 0.843433 -0.382401
Br2   Br    Br    0.062799 0.640336 0.843475 -0.382345
S7    S     S_3+6 0.590538 0.382681 0.672184 0.058910
O35   O     O_2   0.534090 0.356012 0.731811 -0.237360
O36   O     O_2   0.645409 0.424714 0.749786 -0.265091
O37   O     O_3   0.555936 0.440402 0.571510 -0.557119
H43   H     H_    0.526373 0.475395 0.605021 0.412801
S8    S     S_3+6 0.642218 0.655135 0.781756 0.056425
O38   O     O_2   0.603506 0.694675 0.859438 -0.251203
O39   O     O_2   0.599104 0.589507 0.730932 -0.272728
O40   O     O_3   0.718555 0.623955 0.850277 -0.538512
H44   H     H_    0.705855 0.581191 0.893722 0.405801
S9    S     S_3+6 0.090727 0.882618 0.672594 0.059002
O41   O     O_2   0.034337 0.855900 0.732306 -0.238595
O42   O     O_2   0.145655 0.924584 0.750187 -0.264284
O43   O     O_3   0.056070 0.940423 0.572055 -0.556577
H45   H     H_    0.025066 0.974097 0.604901 0.412458
S10   S     S_3+6 0.141629 0.154722 0.780945 0.056658
O44   O     O_2   0.102655 0.194087 0.858442 -0.251375
O45   O     O_2   0.098642 0.089152 0.729630 -0.271340
O46   O     O_3   0.217837 0.123477 0.849822 -0.538514
H46   H     H_    0.205018 0.080579 0.892916 0.406031

loop_
_geom_bond_atom_site_label_1
_geom_bond_atom_site_label_2
_ccdc_geom_bond_type
C83   C87   A    
C39   O9    A    
O11   Zn2   S    
C13   H11   S    
O22   H38   S    
C40   O14   A    
S5    O29   D    
C14   C18   A    
C53   C55   A    
C75   H29   S    
C54   S2    S    
C72   C76   A    
C37   H9    S    
N2    Zn2   S    
C22   H16   S    
C4    O4    A    
C78   H26   S    
S7    O35   D    
C15   C19   A    
O6    Zn3   S    
C2    O6    A    
C63   S9    S    
C2    C29   S    
C9    C61   A    
O9    Zn1   S    
S4    O26   D    
C28   C68   A    
C44   S6    S    
C41   O15   A    
C19   C87   A    
S1    O18   D    
C57   N1    A    
C12   C64   A    
C77   H25   S    
O10   Zn1   S    
C6    C22   A    
C64   S10   S    
C49   C57   A    
O37   H43   S    
O3    Zn2   S    
C23   C67   A    
C60   H36   S    
C78   C82   A    
S6    O32   D    
C22   C66   A    
C8    C24   A    
C39   O13   A    
C52   C54   A    
C49   C51   A    
C40   O10   A    
C70   C74   A    
C50   C52   A    
S3    O24   D    
C27   H3    S    
O5    Zn3   S    
C77   C81   A    
C8    C12   A    
C30   C86   A    
C20   H34   S    
O16   Zn4   S    
C62   S8    S    
C21   C65   A    
C31   C71   A    
O43   H45   S    
C26   C62   A    
C1    O1    A    
O46   H46   S    
C33   C59   A    
C57   H5    S    
O2    Zn1   S    
C34   C60   A    
S5    O30   D    
C10   C62   A    
C36   N4    A    
C55   Br1   S    
S10   O46   S    
C1    O5    A    
C17   C85   A    
C30   C70   A    
C44   C46   A    
C38   C44   A    
C41   C68   S    
C29   C69   A    
C38   H10   S    
C45   C47   A    
C59   H35   S    
O15   Zn4   S    
S7    O36   D    
C72   H22   S    
C71   C75   A    
C6    C84   A    
C42   O12   A    
C80   C84   A    
C26   C66   A    
C76   C80   A    
C31   C87   A    
S2    O22   S    
S10   O45   D    
S1    O19   S    
O12   Zn2   S    
O28   H40   S    
C53   S1    S    
C17   H31   S    
N4    Zn4   S    
C25   C61   A    
C61   S7    S    
C82   C86   A    
C24   C68   A    
C79   H23   S    
C76   H30   S    
S9    O41   D    
C51   C53   A    
C50   C58   A    
S2    O21   D    
C37   C43   A    
C7    C11   A    
S9    O42   D    
C5    C83   A    
C5    C9    A    
C48   N4    A    
C36   H8    S    
S3    O23   D    
C45   C49   A    
C26   H2    S    
C16   C20   A    
C74   H28   S    
C80   H24   S    
C20   C88   A    
S3    O25   S    
C25   C65   A    
C3    C32   S    
C28   H4    S    
C18   C86   A    
C15   H13   S    
C69   C73   A    
C43   C45   A    
S6    O34   S    
S2    O20   D    
O8    Zn4   S    
C34   S4    S    
C27   C63   A    
C28   C64   A    
C16   H14   S    
C7    C81   A    
C12   C14   A    
C58   N2    A    
C40   C65   S    
C43   S5    S    
C42   O16   A    
C42   C67   S    
C39   C66   S    
C3    O3    A    
C24   H18   S    
S8    O39   D    
C36   C38   A    
C18   H32   S    
C35   N3    A    
O31   H41   S    
C47   C55   A    
O25   H39   S    
C56   Br2   S    
S7    O37   S    
C48   C56   A    
C19   H33   S    
C35   C37   A    
C34   C52   A    
O14   Zn3   S    
S4    O28   S    
C84   C88   A    
S10   O44   D    
C6    C10   A    
C54   C56   A    
C14   H12   S    
C35   H7    S    
C33   C51   A    
C46   C50   A    
C25   H1    S    
C73   H27   S    
C13   C17   A    
O4    Zn2   S    
S8    O40   S    
C60   N2    A    
C58   H6    S    
S9    O43   S    
C29   C85   A    
N1    Zn1   S    
C59   N1    A    
C79   C83   A    
C11   C13   A    
C47   N3    A    
C23   H17   S    
C7    C23   A    
C71   H21   S    
S4    O27   D    
C1    C30   S    
C2    O2    A    
C3    O7    A    
O1    Zn1   S    
O7    Zn4   S    
C9    C15   A    
O40   H44   S    
C69   H19   S    
S6    O33   D    
C41   O11   A    
C4    C31   S    
C27   C67   A    
O13   Zn3   S    
C21   H15   S    
C46   C48   A    
C4    O8    A    
C8    C82   A    
C5    C21   A    
O19   H37   S    
O34   H42   S    
C74   C78   A    
C73   C77   A    
C10   C16   A    
S5    O31   S    
S8    O38   D    
S1    O17   D    
C11   C63   A    
C75   C79   A    
C70   H20   S    
C81   C85   A    
C33   S3    S    
N3    Zn3   S    
C32   C72   A    
C32   C88   A    
