data_str_m2_o10_o28_f0_pcu.sym.34
_audit_creation_date              2012-10-26T20:18:15-0400
_audit_creation_method            fapswitch 2.2
_symmetry_space_group_name_H-M    P1
_symmetry_Int_Tables_number       1
_space_group_crystal_system       triclinic
_cell_length_a                    23.371723
_cell_length_b                    8.955961
_cell_length_c                    7.494347
_cell_angle_alpha                 103.939048
_cell_angle_beta                  93.22536
_cell_angle_gamma                 94.157711
_cell_volume                      1514.07686658

loop_
_atom_site_label
_atom_site_type_symbol
_atom_type_description
_atom_site_fract_x
_atom_site_fract_y
_atom_site_fract_z
_atom_type_partial_charge
C1    C     C_R   0.501988 0.201119 0.453009 0.547470
C2    C     C_R   0.705085 0.626254 0.441734 -0.004810
C3    C     C_R   0.238284 0.316785 0.500536 0.040035
C4    C     C_R   0.765721 0.615037 0.429558 0.031794
C5    C     C_R   0.207266 0.450479 0.526077 0.178077
C6    C     C_R   0.789836 0.478975 0.455676 0.235462
C7    C     C_2   0.507069 0.034876 0.425873 -0.030406
C8    C     C_2   0.511980 0.967286 0.572091 -0.029862
C9    C     C_R   0.390840 0.498441 0.503288 0.549350
C10   C     C_R   0.608816 0.505109 0.497124 0.544921
C11   C     C_R   0.882460 0.582940 0.622002 0.386990
C12   C     C_R   0.505285 0.799626 0.546006 0.549652
C13   C     C_R   0.112893 0.320549 0.565751 0.374565
C14   C     C_R   0.879530 0.356216 0.379047 0.443639
C15   C     C_R   0.124665 0.590036 0.654819 0.439624
C16   C     C_R   0.936632 0.337992 0.430734 0.010569
C17   C     C_R   0.064441 0.594698 0.656265 -0.005083
C18   C     C_R   0.969808 0.465199 0.545347 -0.045819
C19   C     C_R   0.029297 0.459456 0.571176 -0.045730
C20   C     C_R   0.943396 0.597154 0.633138 0.025526
C21   C     C_R   0.053546 0.316965 0.520565 0.026084
C22   C     C_R   0.960736 0.196781 0.372365 -0.112994
C23   C     C_R   0.234501 0.576834 0.469984 0.307860
C24   C     C_R   0.038964 0.730702 0.733310 -0.117672
C25   C     C_R   0.017971 0.179942 0.430242 -0.005929
C26   C     C_R   0.978432 0.733914 0.728341 -0.002189
C27   C     C_3   0.042052 0.021650 0.382651 -0.264868
C28   C     C_3   0.997996 0.881130 0.316829 -0.461943
C29   C     C_3   0.951190 0.884074 0.805815 -0.261299
C30   C     C_3   0.991953 0.030903 0.877452 -0.458732
C31   C     C_3   0.177112 0.610674 0.231333 -0.124142
C32   C     C_3   0.743615 0.115449 0.271742 -0.103082
C33   C     C_3   0.332585 0.216049 0.577353 -0.262763
C34   C     C_R   0.752461 0.352164 0.469831 0.302665
C35   C     C_3   0.359317 0.119312 0.412215 -0.435310
C36   C     C_3   0.675402 0.762789 0.404865 -0.266391
C37   C     C_3   0.660639 0.872147 0.583724 -0.429939
C38   C     C_3   0.213821 0.172549 0.354007 -0.241053
C39   C     C_3   0.210263 0.021983 0.418185 -0.326278
C40   C     C_3   0.804016 0.736853 0.369731 -0.257579
C41   C     C_3   0.812953 0.892478 0.512696 -0.410163
C42   C     C_3   0.507204 0.945666 0.225457 -0.248414
C43   C     C_3   0.446475 0.877577 0.142877 -0.389639
C44   C     C_3   0.518646 0.055501 0.773392 -0.249211
C45   C     C_R   0.294462 0.591943 0.465062 -0.145215
C46   C     C_3   0.458911 0.081630 0.839960 -0.419853
C47   C     C_R   0.695016 0.370992 0.501351 -0.154043
C48   C     C_R   0.327535 0.479274 0.507232 -0.042979
C49   C     C_R   0.671165 0.505024 0.487054 -0.029705
C50   C     C_R   0.299041 0.339847 0.527782 -0.017919
Cu1   Cu    Cu3+1 0.506340 0.517380 0.684380 0.903601
Cu2   Cu    Cu3+1 0.493660 0.482620 0.315620 0.899071
H1    H     H_    0.933704 0.099072 0.288738 0.154691
H2    H     H_    0.073725 0.020570 0.277577 0.142378
H3    H     H_    0.064596 0.001009 0.506867 0.209639
H4    H     H_    0.022327 0.019783 0.991208 0.149447
H5    H     H_    0.016362 0.057755 0.765336 0.173985
H6    H     H_    0.966429 0.129785 0.931048 0.170876
H7    H     H_    0.922224 0.906306 0.695134 0.157526
H8    H     H_    0.924794 0.870166 0.919870 0.196223
H9    H     H_    0.145454 0.512197 0.233190 0.121438
H10   H     H_    0.210145 0.571714 0.132951 0.132250
H11   H     H_    0.153217 0.695972 0.179209 0.146381
H12   H     H_    0.066800 0.833528 0.797127 0.165668
H13   H     H_    0.767883 0.013783 0.221823 0.153281
H14   H     H_    0.698985 0.074185 0.290923 0.078865
H15   H     H_    0.742608 0.178330 0.160035 0.153771
H16   H     H_    0.326527 0.058883 0.301671 0.136328
H17   H     H_    0.388469 0.192863 0.351929 0.188087
H18   H     H_    0.383636 0.031345 0.457236 0.132108
H19   H     H_    0.366236 0.272619 0.686936 0.145007
H20   H     H_    0.305483 0.139206 0.640322 0.145660
H21   H     H_    0.626751 0.816207 0.649526 0.160621
H22   H     H_    0.698873 0.906499 0.683905 0.159157
H23   H     H_    0.315060 0.691868 0.428885 0.118478
H24   H     H_    0.644474 0.977532 0.553044 0.125157
H25   H     H_    0.701322 0.827309 0.325746 0.126244
H26   H     H_    0.635448 0.722123 0.313774 0.144380
H27   H     H_    0.244572 0.948928 0.363109 0.154023
H28   H     H_    0.213554 0.042224 0.570441 0.220900
H29   H     H_    0.168513 0.954971 0.364896 0.175252
H30   H     H_    0.170787 0.189180 0.294959 0.144282
H31   H     H_    0.240464 0.157890 0.233744 0.127126
H32   H     H_    0.773999 0.954348 0.520440 0.196036
H33   H     H_    0.823530 0.880196 0.653063 0.204012
H34   H     H_    0.667724 0.274945 0.523732 0.112002
H35   H     H_    0.848063 0.966281 0.474128 0.158109
H36   H     H_    0.847079 0.697131 0.339175 0.158078
H37   H     H_    0.785898 0.752943 0.236312 0.138754
H38   H     H_    0.423189 0.814672 0.231031 0.179188
H39   H     H_    0.419686 0.970755 0.126389 0.118496
H40   H     H_    0.449099 0.796849 0.006510 0.183105
H41   H     H_    0.524716 0.022795 0.143820 0.142315
H42   H     H_    0.539077 0.858688 0.207203 0.140951
H43   H     H_    0.435738 0.148219 0.759198 0.153303
H44   H     H_    0.432735 0.969917 0.820675 0.145045
H45   H     H_    0.448936 0.398439 0.955840 0.231066
H46   H     H_    0.461966 0.146036 0.985465 0.170841
H47   H     H_    0.541326 0.988682 0.857045 0.132927
H48   H     H_    0.548423 0.161798 0.802764 0.176994
H49   H     H_    0.550209 0.605619 0.045319 0.229503
H50   H     H_    0.963549 0.884828 0.413047 0.152319
H51   H     H_    0.978675 0.875158 0.177648 0.153626
H52   H     H_    0.019671 0.773749 0.310344 0.157181
N1    N     N_R   0.851811 0.473649 0.481954 -0.374962
N2    N     N_R   0.147627 0.453327 0.579771 -0.376835
N3    N     N_2   0.484110 0.456420 0.038520 -0.267940
N4    N     N_2   0.515890 0.543580 0.961480 -0.269203
O1    O     O_R   0.504120 0.286130 0.619770 -0.509010
O2    O     O_2   0.134034 0.202220 0.619411 -0.545868
O3    O     O_2   0.852844 0.259159 0.226802 -0.502033
O4    O     O_2   0.159432 0.718982 0.732230 -0.481531
O5    O     O_3   0.202825 0.681889 0.409604 -0.555864
O6    O     O_3   0.771227 0.206433 0.440657 -0.551888
O7    O     O_R   0.495880 0.713870 0.380230 -0.511117
O8    O     O_R   0.493410 0.256770 0.308360 -0.522392
O9    O     O_R   0.506590 0.743230 0.691640 -0.516333
O10   O     O_R   0.423230 0.514630 0.655730 -0.504006
O11   O     O_R   0.576770 0.485370 0.344270 -0.506832
O12   O     O_R   0.412530 0.485280 0.344320 -0.503611
O13   O     O_R   0.587470 0.514720 0.655680 -0.499995
O14   O     O_2   0.854132 0.670443 0.754118 -0.539602

loop_
_geom_bond_atom_site_label_1
_geom_bond_atom_site_label_2
_ccdc_geom_bond_type
C37   H22   S    
C23   C45   A    
C38   H31   S    
C42   H41   S    
C31   H9    S    
C10   O13   A    
C27   H2    S    
C7    C8    D    
C47   C49   A    
C29   C30   S    
C15   N2    A    
C36   C37   S    
C19   C21   A    
C24   C26   A    
C36   H25   S    
C38   C39   S    
C33   C35   S    
C44   H47   S    
C27   H3    S    
Cu2   O7    S    
C30   H5    S    
Cu1   O10   S    
C18   C19   A    
C7    C42   S    
C37   H21   S    
C10   O11   A    
C33   H20   S    
C17   C19   A    
Cu2   N3    S    
C14   N1    A    
C46   H43   S    
C4    C40   S    
C35   H18   S    
Cu1   N4    S    
C22   C25   A    
C11   N1    A    
N3    N4    D    
C3    C38   S    
C1    O8    A    
C40   H37   S    
C12   O7    A    
C1    O1    A    
H49   N4    S    
C48   C50   A    
C46   H46   S    
Cu1   O1    S    
C42   H42   S    
C38   H30   S    
C9    O10   A    
C31   H10   S    
C3    C50   A    
C44   C46   S    
C22   H1    S    
C5    N2    S    
Cu2   O8    S    
C14   O3    S    
C41   H35   S    
C11   C20   A    
C43   H38   S    
Cu1   Cu2   S    
C17   C24   A    
C47   H34   S    
C31   H11   S    
C39   H29   S    
C4    C6    A    
C33   C50   S    
C41   H32   S    
C30   H4    S    
C43   H39   S    
C6    C34   A    
C39   H27   S    
C2    C4    A    
C13   O2    S    
C2    C49   A    
C23   O5    S    
C28   H52   S    
C5    C23   A    
C29   H8    S    
C8    C12   S    
C13   C21   A    
C9    C48   S    
C32   H15   S    
Cu2   O12   S    
C16   C18   A    
C40   C41   S    
C37   H24   S    
Cu1   O13   S    
C14   C16   A    
C11   O14   S    
C25   C27   S    
C42   C43   S    
C32   H14   S    
C45   C48   A    
C2    C36   S    
C15   C17   A    
C21   C25   A    
C16   C22   A    
C1    C7    S    
C15   O4    S    
C8    C44   S    
C13   N2    A    
C3    C5    A    
C34   O6    S    
C41   H33   S    
C43   H40   S    
C45   H23   S    
C39   H28   S    
C40   H36   S    
C36   H26   S    
C44   H48   S    
C28   H51   S    
C20   C26   A    
C35   H16   S    
C30   H6    S    
Cu1   O9    S    
C6    N1    S    
C18   C20   A    
C33   H19   S    
C12   O9    A    
H45   N3    S    
Cu2   O11   S    
C28   H50   S    
C46   H44   S    
C35   H17   S    
C26   C29   S    
C24   H12   S    
C27   C28   S    
C9    O12   A    
C29   H7    S    
C34   C47   A    
C32   O6    S    
C10   C49   S    
C31   O5    S    
C32   H13   S    
