data_str_m3_o40_o40_f0_fof.sym.20
_audit_creation_date              2012-12-10T16:37:23-0500
_audit_creation_method            fapswitch 2.2
_symmetry_space_group_name_H-M    P1
_symmetry_Int_Tables_number       1
_space_group_crystal_system       triclinic
_cell_length_a                    16.827948
_cell_length_b                    16.832953
_cell_length_c                    16.601976
_cell_angle_alpha                 65.403555
_cell_angle_beta                  65.269651
_cell_angle_gamma                 66.188241
_cell_volume                      3730.7399752

loop_
_atom_site_label
_atom_site_type_symbol
_atom_type_description
_atom_site_fract_x
_atom_site_fract_y
_atom_site_fract_z
_atom_type_partial_charge
C1    C     C_R   0.396608 0.086541 0.645185 -0.217228
C2    C     C_R   0.465980 0.679446 0.939221 -0.211902
C3    C     C_3   0.850178 0.295612 0.312372 -0.367302
C4    C     C_3   0.756974 0.366959 0.315908 -0.386980
C5    C     C_3   0.685750 0.327246 0.324146 -0.874277
C6    C     C_3   0.705247 0.710634 0.130200 -0.330340
C7    C     C_3   0.765516 0.777939 0.073054 -0.222564
C8    C     C_3   0.844200 0.757448 0.108316 -0.966141
C9    C     C_3   0.222312 0.236710 0.085202 -0.330673
C10   C     C_3   0.188077 0.203237 0.034592 -0.232469
C11   C     C_3   0.185139 0.104602 0.081789 -0.953421
C12   C     C_R   0.892548 0.611744 0.349632 -0.207585
C13   C     C_R   0.941446 0.438714 0.701485 -0.227890
C14   C     C_R   0.971574 0.179078 0.433116 0.902346
C15   C     C_R   0.990032 0.840113 0.576708 0.930451
C16   C     C_R   0.178409 0.432260 0.973339 0.951114
C17   C     C_R   0.820933 0.560011 0.042562 0.854018
C18   C     C_R   0.440097 0.956797 0.179922 0.898127
C19   C     C_R   0.558974 0.045225 0.820337 0.947970
C20   C     C_R   0.568195 0.822074 0.025361 0.917291
C21   C     C_R   0.600079 0.921680 0.354220 -0.219526
C22   C     C_R   0.424465 0.162269 0.006262 0.944349
C23   C     C_R   0.990167 0.575881 0.840803 0.966266
C24   C     C_R   0.955661 0.440254 0.179660 0.891521
C25   C     C_R   0.821707 0.024904 0.569031 0.864729
C26   C     C_R   0.177677 0.976290 0.430807 0.949830
C27   C     C_R   0.441200 0.094861 0.694834 -0.168845
C28   C     C_R   0.556074 0.912656 0.304738 -0.177436
C29   C     C_R   0.936044 0.754698 0.485575 -0.192808
C30   C     C_R   0.005007 0.283671 0.521377 -0.194443
C31   C     C_R   0.700349 0.442851 0.092233 -0.177777
C32   C     C_R   0.924916 0.709549 0.439372 -0.228711
C33   C     C_R   0.313754 0.531572 0.924966 -0.176912
C34   C     C_R   0.265748 0.061242 0.483669 -0.173930
C35   C     C_R   0.729474 0.943674 0.517753 -0.171833
C36   C     C_R   0.499927 0.248885 0.074464 -0.169562
C37   C     C_R   0.509481 0.725882 0.952709 -0.176157
C38   C     C_R   0.892011 0.560949 0.301794 -0.181172
C39   C     C_R   0.936465 0.488791 0.752843 -0.160484
C40   C     C_R   0.541578 0.015813 0.549089 0.026100
C41   C     C_R   0.454562 0.992140 0.450242 0.026232
C42   C     C_R   0.939846 0.572218 0.567633 0.029562
C43   C     C_R   0.996478 0.332746 0.575581 -0.225997
C44   C     C_R   0.939905 0.472761 0.466193 0.026598
C45   C     C_R   0.552268 0.535805 0.020332 0.026673
C46   C     C_R   0.456090 0.439489 0.005957 0.024566
C47   C     C_R   0.593799 0.968748 0.481185 0.043620
C48   C     C_R   0.402059 0.038675 0.518630 0.046139
C49   C     C_R   0.948278 0.478239 0.606892 0.043611
C50   C     C_R   0.919532 0.568671 0.431060 0.043793
C51   C     C_R   0.482875 0.584050 0.976110 0.045640
C52   C     C_R   0.528721 0.390913 0.045996 0.044460
C53   C     C_R   0.550570 0.959840 0.428939 0.043220
C54   C     C_R   0.653614 0.394554 0.086542 -0.220374
C55   C     C_R   0.445561 0.048238 0.570475 0.041531
C56   C     C_R   0.434469 0.535583 0.968670 0.043642
C57   C     C_R   0.578213 0.439287 0.051419 0.048850
C58   C     C_R   0.959650 0.427408 0.551473 0.051524
C59   C     C_R   0.927514 0.617448 0.478444 0.053986
C60   C     C_R   0.536506 0.067812 0.670469 0.046648
C61   C     C_R   0.460840 0.939461 0.328877 0.048393
C62   C     C_R   0.949193 0.711148 0.574600 0.048296
C63   C     C_R   0.967425 0.325722 0.446560 0.041213
C64   C     C_R   0.673327 0.538101 0.065339 0.049098
C65   C     C_R   0.364538 0.579509 0.925522 -0.205421
C66   C     C_R   0.328822 0.437434 0.968849 0.027787
C67   C     C_R   0.315100 0.003840 0.426333 0.023216
C68   C     C_R   0.681446 0.001924 0.573557 0.022366
C69   C     C_R   0.429439 0.295845 0.033613 0.042780
C70   C     C_R   0.570321 0.680160 0.006307 0.022215
C71   C     C_R   0.919918 0.465926 0.331591 0.042813
C72   C     C_R   0.949324 0.576762 0.709594 0.034488
C73   C     C_R   0.584973 0.075934 0.718421 -0.195432
C74   C     C_R   0.413173 0.929675 0.281444 -0.181478
C75   C     C_R   0.962361 0.755660 0.623736 -0.184537
C76   C     C_R   0.307940 0.077351 0.529620 -0.212556
C77   C     C_R   0.952205 0.277644 0.402268 -0.174641
C78   C     C_R   0.721768 0.588826 0.068275 -0.173050
C79   C     C_R   0.269166 0.387463 0.983741 -0.173169
C80   C     C_R   0.273497 0.968866 0.393323 -0.180119
C81   C     C_R   0.724752 0.034806 0.606501 -0.159569
C82   C     C_R   0.380950 0.249775 0.024319 -0.184180
C83   C     C_R   0.605929 0.725652 0.034869 -0.175167
C84   C     C_R   0.924029 0.413229 0.281369 -0.168796
C85   C     C_R   0.961021 0.624054 0.756627 -0.178804
C86   C     C_R   0.672765 0.082823 0.671583 0.016431
C87   C     C_R   0.687408 0.928162 0.471529 -0.209333
C88   C     C_R   0.326330 0.921176 0.328144 0.014276
C89   C     C_R   0.950584 0.717703 0.719072 0.017466
C90   C     C_R   0.913972 0.326744 0.329342 0.016014
C91   C     C_R   0.678660 0.676964 0.073406 0.008442
C92   C     C_R   0.292272 0.292177 0.022658 0.010443
C93   C     C_R   0.586221 0.029939 0.596527 0.074913
C94   C     C_R   0.410411 0.977500 0.402756 0.076051
C95   C     C_R   0.945413 0.620407 0.617535 0.079439
C96   C     C_R   0.940935 0.421605 0.415746 0.075735
C97   C     C_R   0.597379 0.584532 0.032280 0.076354
C98   C     C_R   0.547873 0.295112 0.081328 -0.213083
C99   C     C_R   0.404522 0.391199 0.003339 0.083865
C100  C     C_3   0.698505 0.160207 0.671370 -0.367557
C101  C     C_3   0.738775 0.135607 0.749277 -0.277019
C102  C     C_3   0.800607 0.194225 0.722588 -0.896894
C103  C     C_3   0.303818 0.842380 0.326829 -0.357844
C104  C     C_3   0.246001 0.869445 0.262968 -0.272904
C105  C     C_3   0.286773 0.809817 0.198892 -0.882685
C106  C     C_3   0.898696 0.779953 0.782104 -0.379651
C107  C     C_3   0.957301 0.800446 0.818227 -0.243616
C108  C     C_3   0.922171 0.897965 0.822623 -0.949564
H1    H     H_    0.323267 0.108892 0.668537 0.136589
H2    H     H_    0.419482 0.720974 0.898794 0.138937
H3    H     H_    0.868522 0.684662 0.323155 0.131647
H4    H     H_    0.934945 0.370281 0.737878 0.141431
H5    H     H_    0.400608 0.125808 0.750353 0.159429
H6    H     H_    0.597172 0.880946 0.249852 0.154535
H7    H     H_    0.930402 0.825431 0.449131 0.168075
H8    H     H_    0.042868 0.213369 0.540226 0.173054
H9    H     H_    0.756536 0.404195 0.120955 0.173358
H10   H     H_    0.263038 0.569787 0.888787 0.168159
H11   H     H_    0.194118 0.095582 0.493231 0.158853
H12   H     H_    0.673453 0.899818 0.330800 0.134143
H13   H     H_    0.799733 0.907982 0.510799 0.152303
H14   H     H_    0.515922 0.175790 0.105566 0.168040
H15   H     H_    0.496156 0.797897 0.917306 0.183130
H16   H     H_    0.865698 0.595916 0.243493 0.158002
H17   H     H_    0.920087 0.457485 0.827048 0.177552
H18   H     H_    0.860127 0.181637 0.661678 0.291462
H19   H     H_    0.762515 0.267472 0.705652 0.265127
H20   H     H_    0.825845 0.176859 0.781533 0.237263
H21   H     H_    0.682736 0.147670 0.812724 0.237642
H22   H     H_    0.778194 0.062979 0.766165 0.243400
H23   H     H_    0.917495 0.748269 0.371069 0.134083
H24   H     H_    0.746535 0.184883 0.602395 0.206024
H25   H     H_    0.637159 0.219528 0.677656 0.176234
H26   H     H_    0.356648 0.814157 0.155077 0.292596
H27   H     H_    0.289253 0.737832 0.240532 0.258344
H28   H     H_    0.244112 0.833061 0.152957 0.239285
H29   H     H_    0.176853 0.861297 0.306024 0.234140
H30   H     H_    0.237439 0.941623 0.220756 0.242775
H31   H     H_    0.368735 0.790075 0.307003 0.190152
H32   H     H_    0.267909 0.807405 0.398797 0.181861
H33   H     H_    0.930452 0.946650 0.751907 0.298353
H34   H     H_    0.023711 0.296068 0.633809 0.140485
H35   H     H_    0.849217 0.912993 0.864283 0.249585
H36   H     H_    0.961713 0.907028 0.855968 0.232893
H37   H     H_    0.953897 0.756404 0.890553 0.232221
H38   H     H_    0.029824 0.786990 0.775249 0.248933
H39   H     H_    0.857908 0.844822 0.744491 0.193750
H40   H     H_    0.846844 0.749348 0.842815 0.168249
H41   H     H_    0.710930 0.294064 0.269242 0.256345
H42   H     H_    0.669983 0.275950 0.393114 0.262385
H43   H     H_    0.622162 0.382352 0.316958 0.261019
H44   H     H_    0.732659 0.391745 0.377005 0.233189
H45   H     H_    0.679920 0.321726 0.109055 0.133735
H46   H     H_    0.763432 0.426107 0.252312 0.206012
H47   H     H_    0.881119 0.280845 0.244771 0.213915
H48   H     H_    0.835867 0.232788 0.367277 0.226892
H49   H     H_    0.817869 0.755251 0.182443 0.244362
H50   H     H_    0.895972 0.693156 0.099006 0.301447
H51   H     H_    0.878437 0.812609 0.067958 0.235710
H52   H     H_    0.791913 0.781959 0.998410 0.235028
H53   H     H_    0.724552 0.846981 0.079258 0.224219
H54   H     H_    0.642002 0.742530 0.177926 0.153842
H55   H     H_    0.740304 0.650443 0.177637 0.180142
H56   H     H_    0.346070 0.651679 0.892161 0.137669
H57   H     H_    0.254739 0.058316 0.073676 0.306801
H58   H     H_    0.146326 0.093975 0.156694 0.257040
H59   H     H_    0.150949 0.087797 0.048856 0.227588
H60   H     H_    0.116491 0.242588 0.036723 0.230865
H61   H     H_    0.229618 0.212435 0.960547 0.233592
H62   H     H_    0.252222 0.177131 0.137268 0.183267
H63   H     H_    0.162874 0.277322 0.128313 0.183272
H64   H     H_    0.264965 0.121556 0.572619 0.135075
H65   H     H_    0.729875 0.882478 0.430010 0.137148
H66   H     H_    0.598756 0.253117 0.116389 0.137837
O1    O     O_R   0.982940 0.138950 0.510160 -0.656706
O2    O     O_R   0.982940 0.510160 0.138950 -0.628766
O3    O     O_R   0.861050 0.017060 0.489840 -0.655022
O4    O     O_R   0.138950 0.982940 0.510160 -0.628699
O5    O     O_R   0.867700 0.025880 0.612340 -0.641899
O6    O     O_R   0.132300 0.974120 0.387660 -0.632313
O7    O     O_R   0.025880 0.612340 0.867700 -0.634372
O8    O     O_R   0.974120 0.387660 0.132300 -0.639966
O9    O     O_R   0.612340 0.867700 0.025880 -0.647085
O10   O     O_R   0.387660 0.132300 0.974120 -0.624600
O11   O     O_R   0.387660 0.974120 0.132300 -0.640026
O12   O     O_R   0.017060 0.861050 0.489840 -0.646030
O13   O     O_R   0.612340 0.025880 0.867700 -0.631539
O14   O     O_R   0.132300 0.387660 0.974120 -0.630541
O15   O     O_R   0.867700 0.612340 0.025880 -0.648427
O16   O     O_R   0.974120 0.132300 0.387660 -0.628416
O17   O     O_R   0.025880 0.867700 0.612340 -0.600800
O18   O     O_R   0.138950 0.510160 0.982940 -0.619530
O19   O     O_R   0.861050 0.489840 0.017060 -0.663429
O20   O     O_R   0.510160 0.982940 0.138950 -0.658988
O21   O     O_R   0.489840 0.017060 0.861050 -0.628142
O22   O     O_R   0.489840 0.861050 0.017060 -0.645266
O23   O     O_R   0.510160 0.138950 0.982940 -0.642324
O24   O     O_R   0.017060 0.489840 0.861050 -0.631895
Zn1   Zn    Zn3+2 0.004880 0.004880 0.583590 0.893387
Zn2   Zn    Zn3+2 0.995120 0.995120 0.416410 0.886544
Zn3   Zn    Zn3+2 0.004880 0.583590 0.004880 0.889342
Zn4   Zn    Zn3+2 0.995120 0.416410 0.995120 0.878296
Zn5   Zn    Zn3+2 0.583590 0.004880 0.004880 0.871716
Zn6   Zn    Zn3+2 0.416410 0.995120 0.995120 0.890316

loop_
_geom_bond_atom_site_label_1
_geom_bond_atom_site_label_2
_ccdc_geom_bond_type
C40   C47   A    
C4    H46   S    
O4    Zn1   S    
C19   O21   A    
C101  C102  S    
O10   Zn6   S    
O13   Zn5   S    
C18   O20   A    
C48   C76   A    
C22   O23   A    
C17   O19   A    
C40   C93   A    
C46   C99   A    
C8    H50   S    
C54   H45   S    
C24   C84   S    
C72   C85   A    
C33   C65   A    
C7    C8    S    
C30   H8    S    
C100  H25   S    
C10   H61   S    
C66   C79   A    
C7    H53   S    
C23   O24   A    
C45   C57   A    
C3    C90   S    
C39   H17   S    
C50   C59   A    
C22   C82   S    
O11   Zn6   S    
O19   Zn4   S    
O17   Zn1   S    
C23   O7    A    
C21   H12   S    
C102  H20   S    
C27   C60   A    
C107  H37   S    
C25   O3    A    
C106  C107  S    
C45   C51   A    
C56   C65   A    
C46   C52   A    
C60   C73   A    
C82   C92   A    
C104  H29   S    
C51   C56   A    
C14   C77   S    
O14   Zn4   S    
C76   H64   S    
C31   H9    S    
C22   O10   A    
C69   C82   A    
C16   O18   A    
C43   C58   A    
C19   O13   A    
C37   H15   S    
C72   C95   A    
C35   C87   A    
C30   C63   A    
C6    H54   S    
C44   C58   A    
O3    Zn2   S    
C32   H23   S    
C89   C106  S    
O24   Zn4   S    
C11   H58   S    
C107  C108  S    
O22   Zn6   S    
C86   C100  S    
C9    C10   S    
C81   C86   A    
C70   C97   A    
C105  H27   S    
C1    H1    S    
C60   C93   A    
C29   H7    S    
C48   C55   A    
C33   H10   S    
C18   C74   S    
C37   C70   A    
C25   C81   S    
O12   Zn2   S    
C9    H62   S    
C38   C71   A    
C84   C90   A    
C87   H65   S    
C8    H49   S    
O2    Zn3   S    
C9    C92   S    
C108  H33   S    
C33   C66   A    
C26   O4    A    
C4    H44   S    
C15   O12   A    
C77   C90   A    
C24   O8    A    
C42   C95   A    
C11   H59   S    
C19   C73   S    
C102  H19   S    
C16   O14   A    
C107  H38   S    
C85   C89   A    
C61   C94   A    
O21   Zn6   S    
C42   C49   A    
C7    H52   S    
O15   Zn3   S    
C63   C96   A    
C26   C80   S    
C49   C58   A    
C47   C87   A    
C66   C99   A    
C42   C59   A    
C36   H14   S    
C14   O1    A    
C44   C96   A    
C103  H31   S    
C67   C94   A    
C41   C94   A    
C35   H13   S    
O18   Zn3   S    
C40   C55   A    
O1    Zn1   S    
C3    H47   S    
C106  H40   S    
C70   C83   A    
C41   C53   A    
C79   C92   A    
C39   C72   A    
C28   H6    S    
C105  H28   S    
C13   C49   A    
C69   C99   A    
C64   C97   A    
C21   C28   A    
C10   C11   S    
C20   O9    A    
C61   C74   A    
C30   C43   A    
C9    H63   S    
C68   C81   A    
C3    C4    S    
C24   O2    A    
C27   H5    S    
C108  H36   S    
C88   C103  S    
C36   C69   A    
C1    C27   A    
C71   C84   A    
C63   C77   A    
C44   C50   A    
C34   H11   S    
C15   O17   A    
C29   C62   A    
C2    H2    S    
O8    Zn4   S    
C64   C78   A    
C31   C64   A    
O7    Zn3   S    
C67   C80   A    
C12   H3    S    
C4    C5    S    
C102  H18   S    
C34   C67   A    
O16   Zn2   S    
C52   C57   A    
C12   C50   A    
C25   O5    A    
C6    C7    S    
C71   C96   A    
C26   O6    A    
C78   C91   A    
C13   H4    S    
C83   C91   A    
C18   O11   A    
C68   C93   A    
C5    H43   S    
C47   C53   A    
C15   C75   S    
C16   C79   S    
C17   O15   A    
C36   C98   A    
C1    C55   A    
O9    Zn5   S    
C29   C32   A    
C80   C88   A    
C45   C97   A    
C100  H24   S    
C28   C61   A    
C21   C53   A    
C106  H39   S    
C2    C37   A    
O5    Zn1   S    
C35   C68   A    
C98   H66   S    
O20   Zn5   S    
C5    H41   S    
C65   H56   S    
C52   C98   A    
C17   C78   S    
C41   C48   A    
C104  H30   S    
O23   Zn5   S    
C75   C89   A    
C31   C54   A    
C12   C38   A    
C62   C75   A    
C73   C86   A    
C13   C39   A    
C2    C51   A    
C5    H42   S    
C101  H22   S    
C103  H32   S    
C14   O16   A    
C3    H48   S    
C6    H55   S    
C10   H60   S    
C23   C85   S    
C20   C83   S    
C46   C56   A    
C103  C104  S    
C11   H57   S    
C43   H34   S    
C100  C101  S    
O6    Zn2   S    
C32   C59   A    
C74   C88   A    
C62   C95   A    
C8    H51   S    
C20   O22   A    
C108  H35   S    
C38   H16   S    
C6    C91   S    
C104  C105  S    
C34   C76   A    
C105  H26   S    
C54   C57   A    
C101  H21   S    
