data_str_m3_o1_o4_f0_pcu.sym.27
_audit_creation_date              2012-12-10T18:57:09-0500
_audit_creation_method            fapswitch 2.2
_symmetry_space_group_name_H-M    P1
_symmetry_Int_Tables_number       1
_space_group_crystal_system       triclinic
_cell_length_a                    10.784268
_cell_length_b                    9.95789
_cell_length_c                    10.700732
_cell_angle_alpha                 90.400055
_cell_angle_beta                  94.112359
_cell_angle_gamma                 90.177575
_cell_volume                      1146.14209845

loop_
_atom_site_label
_atom_site_type_symbol
_atom_type_description
_atom_site_fract_x
_atom_site_fract_y
_atom_site_fract_z
_atom_type_partial_charge
C1    C     C_R   0.259746 0.499347 0.492292 0.945680
C2    C     C_R   0.474690 0.621198 0.936675 0.083846
C3    C     C_R   0.471778 0.499265 0.127486 -0.103048
C4    C     C_R   0.478146 0.500299 0.870642 -0.116200
C5    C     C_R   0.452071 0.378521 0.060751 -0.182638
C6    C     C_R   0.455039 0.379109 0.931548 -0.179318
C7    C     C_3   0.563339 0.737203 0.943054 -0.374859
C8    C     C_3   0.555068 0.738491 0.083090 -0.467043
C9    C     C_R   0.059810 0.375589 0.481652 0.287738
C10   C     C_R   0.940753 0.377445 0.521490 0.283297
C11   C     C_R   0.874020 0.498761 0.510371 -0.253532
C12   C     C_R   0.740342 0.499778 0.506051 0.954276
C13   C     C_R   0.126003 0.497671 0.483704 -0.254449
C14   C     C_R   0.935998 0.619310 0.490875 -0.158683
C15   C     C_R   0.062999 0.619619 0.488678 -0.151690
C16   C     C_R   0.568225 0.074191 0.588776 -0.060685
C17   C     C_R   0.431774 0.072573 0.411173 -0.052503
C18   C     C_R   0.577524 0.932526 0.584147 0.387018
C19   C     C_R   0.423467 0.930771 0.414567 0.383411
C20   C     C_R   0.494235 0.499482 0.260094 0.892760
C21   C     C_R   0.497095 0.500274 0.739895 0.908419
C22   C     C_R   0.469847 0.620666 0.063973 0.205050
H1    H     H_    0.443751 0.283398 0.108040 0.203482
H2    H     H_    0.377951 0.128093 0.340370 0.248012
H3    H     H_    0.142535 0.332446 0.232556 0.349449
H4    H     H_    0.853934 0.349253 0.769870 0.347231
H5    H     H_    0.805829 0.939573 0.850314 0.402819
H6    H     H_    0.224721 0.928859 0.126438 0.401946
H7    H     H_    0.447658 0.284278 0.881288 0.194791
H8    H     H_    0.657953 0.708321 0.919275 0.253398
H9    H     H_    0.507629 0.828711 0.117504 0.268018
H10   H     H_    0.522962 0.828019 0.896287 0.248518
H11   H     H_    0.644431 0.713429 0.136127 0.203012
H12   H     H_    0.887334 0.713388 0.479883 0.249964
H13   H     H_    0.110873 0.714839 0.487948 0.254796
H14   H     H_    0.622932 0.131078 0.658959 0.254707
N1    N     N_R   0.500000 0.857200 0.500000 -0.216494
N2    N     N_R   0.500000 0.142810 0.500000 -0.155109
O1    O     O_R   0.316770 0.614620 0.499990 -0.589122
O2    O     O_2   0.003144 0.146872 0.351479 -0.202432
O3    O     O_3   0.197469 0.274191 0.286784 -0.563193
O4    O     O_2   0.811352 0.149794 0.510380 -0.208934
O5    O     O_2   0.994395 0.155449 0.659254 -0.210141
O6    O     O_3   0.799961 0.286770 0.717951 -0.554919
O7    O     O_2   0.707301 0.725891 0.708178 -0.327577
O8    O     O_2   0.822484 0.899576 0.608731 -0.231878
O9    O     O_3   0.721500 0.959700 0.812393 -0.575225
O10   O     O_2   0.295969 0.720392 0.284037 -0.304982
O11   O     O_2   0.179578 0.906081 0.363727 -0.232822
O12   O     O_R   0.683230 0.614620 0.500010 -0.580840
O13   O     O_3   0.305782 0.947671 0.172835 -0.592230
O14   O     O_R   0.316800 0.385290 0.500000 -0.559543
O15   O     O_R   0.683200 0.385290 0.500000 -0.554866
O16   O     O_R   0.500000 0.614690 0.316780 -0.584955
O17   O     O_R   0.500000 0.614690 0.683220 -0.581478
O18   O     O_R   0.500020 0.385360 0.316780 -0.625600
O19   O     O_R   0.499980 0.385360 0.683220 -0.622011
O20   O     O_2   0.187852 0.146841 0.498208 -0.214103
S1    S     S_3+6 0.111340 0.229572 0.404868 0.108889
S2    S     S_3+6 0.887392 0.236145 0.602505 0.106161
S3    S     S_3+6 0.708709 0.871650 0.677223 0.039456
S4    S     S_3+6 0.299551 0.867817 0.310340 0.042310
Zn1   Zn    Zn3+2 0.500000 0.653120 0.500000 1.072596
Zn2   Zn    Zn3+2 0.500000 0.346880 0.500000 1.062053

loop_
_geom_bond_atom_site_label_1
_geom_bond_atom_site_label_2
_ccdc_geom_bond_type
C14   H12   S    
C8    C22   S    
C11   C12   S    
O18   Zn2   S    
C18   S3    S    
O9    S3    S    
O12   Zn1   S    
O1    Zn1   S    
C9    C10   A    
O16   Zn1   S    
O10   S4    D    
C2    C7    S    
C5    H1    S    
C20   O18   A    
C3    C5    A    
C1    O14   A    
H4    O6    S    
C7    C8    S    
O2    S1    D    
O17   Zn1   S    
C2    C22   A    
C16   H14   S    
C21   O19   A    
C4    C21   S    
O13   S4    S    
O5    S2    D    
O6    S2    S    
C2    C4    A    
O7    S3    D    
N1    Zn1   S    
C18   N1    A    
N2    Zn2   S    
C17   N2    A    
C13   C15   A    
C5    C6    A    
C7    H10   S    
H6    O13   S    
C19   N1    A    
C15   H13   S    
C17   H2    S    
C1    C13   S    
C10   C11   A    
C1    O1    A    
O8    S3    D    
H5    O9    S    
O4    S2    D    
C3    C20   S    
C6    H7    S    
O3    S1    S    
O19   Zn2   S    
C20   O16   A    
C4    C6    A    
O14   Zn2   S    
H3    O3    S    
C11   C14   A    
C21   O17   A    
C9    C13   A    
C10   S2    S    
C3    C22   A    
O11   S4    D    
C19   S4    S    
C17   C19   A    
O20   S1    D    
C14   C15   A    
C8    H9    S    
O15   Zn2   S    
C12   O12   A    
C16   C18   A    
C12   O15   A    
C16   N2    A    
C8    H11   S    
C9    S1    S    
C7    H8    S    
