data_str_m4_o4_o15_f0_acs.sym.22
_audit_creation_date              2012-12-11T15:44:54-0500
_audit_creation_method            fapswitch 2.2
_symmetry_space_group_name_H-M    P1
_symmetry_Int_Tables_number       1
_space_group_crystal_system       triclinic
_cell_length_a                    19.134503
_cell_length_b                    11.014372
_cell_length_c                    18.765981
_cell_angle_alpha                 89.952208
_cell_angle_beta                  90.389514
_cell_angle_gamma                 89.87435
_cell_volume                      3954.91325251

loop_
_atom_site_label
_atom_site_type_symbol
_atom_type_description
_atom_site_fract_x
_atom_site_fract_y
_atom_site_fract_z
_atom_type_partial_charge
C1    C     C_R   0.774583 0.481455 0.638449 0.587902
C2    C     C_R   0.224084 0.940411 0.517633 0.202518
C3    C     C_R   0.475241 0.948782 0.969215 0.039136
C4    C     C_R   0.984124 0.231220 0.968145 -0.168048
C5    C     C_R   0.986666 0.231250 0.042719 -0.169105
C6    C     C_R   0.484128 0.731222 0.968145 -0.168055
C7    C     C_R   0.486668 0.731251 0.042718 -0.169112
C8    C     C_3   0.016753 0.569615 0.041351 -0.268756
C9    C     C_3   0.012520 0.566574 0.961011 -0.277772
C10   C     C_3   0.516746 0.069620 0.041353 -0.268752
C11   C     C_3   0.512512 0.066579 0.961012 -0.277767
C12   C     C_R   0.762535 0.525509 0.854734 0.567448
C13   C     C_R   0.303511 0.670007 0.438574 0.205611
C14   C     C_R   0.238770 0.529610 0.146696 0.556464
C15   C     C_R   0.262534 0.025512 0.854733 0.567446
C16   C     C_R   0.738770 0.029610 0.146696 0.556465
C17   C     C_R   0.772373 0.126284 0.852949 0.565931
C18   C     C_R   0.227846 0.124276 0.147715 0.551453
C19   C     C_R   0.272373 0.626283 0.852948 0.565929
C20   C     C_R   0.727846 0.624275 0.147715 0.551452
C21   C     C_R   0.967459 0.347001 0.855284 0.554827
C22   C     C_R   0.028715 0.347262 0.147329 0.550480
C23   C     C_R   0.467460 0.847001 0.855284 0.554829
C24   C     C_R   0.724084 0.440424 0.517635 0.202502
C25   C     C_R   0.528715 0.847263 0.147330 0.550480
C26   C     C_R   0.751611 0.085313 0.422189 0.095470
C27   C     C_R   0.268200 0.008409 0.563086 0.046074
C28   C     C_R   0.251614 0.585306 0.422189 0.095472
C29   C     C_R   0.768199 0.508418 0.563087 0.046099
C30   C     C_R   0.716082 0.028751 0.476791 -0.036818
C31   C     C_R   0.301663 0.109643 0.535752 0.004491
C32   C     C_R   0.216085 0.528740 0.476791 -0.036818
C33   C     C_R   0.801665 0.609649 0.535753 0.004496
C34   C     C_R   0.729821 0.052754 0.547352 0.049131
C35   C     C_3   0.639733 0.022918 0.486503 0.116752
C36   C     C_R   0.291154 0.142583 0.465456 -0.048681
C37   C     C_R   0.229824 0.552744 0.547353 0.049130
C38   C     C_R   0.791154 0.642592 0.465458 -0.048686
C39   C     C_3   0.293978 0.238249 0.560601 0.119898
C40   C     C_3   0.139737 0.522904 0.486503 0.116744
C41   C     C_3   0.793980 0.738257 0.560601 0.119899
C42   C     C_3   0.653684 0.043080 0.565341 -0.182707
C43   C     C_3   0.280919 0.272628 0.483651 -0.221402
C44   C     C_3   0.153686 0.543072 0.565340 -0.182719
C45   C     C_R   0.240205 0.536644 0.351924 0.608872
C46   C     C_3   0.780917 0.772636 0.483652 -0.221406
C47   C     C_R   0.778482 0.141710 0.565062 0.035049
C48   C     C_R   0.251143 0.072119 0.419332 -0.006015
C49   C     C_R   0.278483 0.641709 0.565062 0.035047
C50   C     C_R   0.751142 0.572129 0.419335 -0.006019
C51   C     C_R   0.989305 0.332145 0.419943 0.024737
C52   C     C_R   0.993121 0.346312 0.569980 -0.043883
C53   C     C_R   0.489303 0.832144 0.419941 0.024738
C54   C     C_R   0.493115 0.846314 0.569978 -0.043884
C55   C     C_R   0.996478 0.108713 0.428761 -0.053788
C56   C     C_R   0.274580 0.981470 0.638449 0.587933
C57   C     C_R   0.021691 0.127073 0.574463 -0.047979
C58   C     C_R   0.496479 0.608714 0.428761 -0.053791
C59   C     C_R   0.521687 0.627079 0.574462 -0.047992
C60   C     C_R   0.007255 0.004340 0.469240 -0.111618
C61   C     C_R   0.020583 0.013826 0.541852 -0.077357
C62   C     C_R   0.507263 0.504345 0.469240 -0.111628
C63   C     C_R   0.520586 0.513835 0.541852 -0.077378
C64   C     C_R   0.004525 0.233289 0.535731 -0.011307
C65   C     C_R   0.997551 0.224924 0.460787 0.017815
C66   C     C_R   0.504520 0.733291 0.535730 -0.011308
C67   C     C_R   0.740205 0.036645 0.351924 0.608860
C68   C     C_R   0.497548 0.724924 0.460786 0.017822
C69   C     C_R   0.980273 0.452866 0.527128 -0.012721
C70   C     C_R   0.968081 0.439461 0.453567 0.035155
C71   C     C_R   0.480268 0.952867 0.527125 -0.012721
C72   C     C_R   0.468077 0.939460 0.453564 0.035153
C73   C     C_R   0.791554 0.170929 0.638877 0.548021
C74   C     C_R   0.227241 0.123848 0.352979 0.557163
C75   C     C_R   0.291554 0.670930 0.638877 0.548024
C76   C     C_R   0.727241 0.623849 0.352981 0.557161
C77   C     C_R   0.980868 0.574012 0.553999 -0.047392
C78   C     C_R   0.817511 0.197642 0.510539 -0.127300
C79   C     C_R   0.941735 0.538197 0.413248 -0.015731
C80   C     C_R   0.480859 0.074014 0.553995 -0.047400
C81   C     C_R   0.441732 0.038194 0.413244 -0.015739
C82   C     C_R   0.959575 0.672261 0.512318 -0.073750
C83   C     C_R   0.939651 0.654270 0.441917 -0.064351
C84   C     C_R   0.459568 0.172260 0.512312 -0.073757
C85   C     C_R   0.439649 0.154267 0.441910 -0.064347
C86   C     C_R   0.745351 0.059289 0.071628 0.022257
C87   C     C_R   0.257975 0.050421 0.930707 0.016706
C88   C     C_R   0.245352 0.559290 0.071628 0.022256
C89   C     C_R   0.219753 0.967085 0.445412 -0.050442
C90   C     C_R   0.757978 0.550413 0.930709 0.016704
C91   C     C_R   0.783995 0.979129 0.029661 0.041598
C92   C     C_R   0.205765 0.991370 0.968594 0.028860
C93   C     C_R   0.284000 0.479134 0.029662 0.041601
C94   C     C_R   0.705763 0.491372 0.968594 0.028853
C95   C     C_R   0.785889 0.989025 0.956728 0.024162
C96   C     C_R   0.201166 0.001476 0.041240 0.025777
C97   C     C_R   0.285894 0.489029 0.956729 0.024162
C98   C     C_R   0.701162 0.501479 0.041240 0.025777
C99   C     C_R   0.703217 0.154211 0.962893 -0.166714
C100  C     C_R   0.317509 0.697645 0.510539 -0.127291
C101  C     C_R   0.309246 0.112431 0.044291 -0.152191
C102  C     C_R   0.203216 0.654205 0.962892 -0.166714
C103  C     C_R   0.809251 0.612410 0.044295 -0.152194
C104  C     C_R   0.701116 0.142695 0.037248 -0.172598
C105  C     C_R   0.313454 0.102567 0.969724 -0.152727
C106  C     C_R   0.201115 0.642692 0.037247 -0.172599
C107  C     C_R   0.813461 0.602545 0.969728 -0.152730
C108  C     C_3   0.859289 0.944862 0.035045 -0.266611
C109  C     C_3   0.128635 0.995114 0.957468 -0.277553
C110  C     C_3   0.359296 0.444884 0.035048 -0.266614
C111  C     C_R   0.719753 0.467098 0.445416 -0.050459
C112  C     C_3   0.628634 0.495129 0.957466 -0.277554
C113  C     C_3   0.861022 0.950916 0.954604 -0.269095
C114  C     C_3   0.123005 0.006630 0.037405 -0.269628
C115  C     C_3   0.361029 0.450938 0.954608 -0.269096
C116  C     C_3   0.623002 0.506651 0.037402 -0.269627
C117  C     C_R   0.750155 0.083295 0.922484 0.017052
C118  C     C_R   0.248922 0.072634 0.079574 0.022198
C119  C     C_R   0.250156 0.583294 0.922484 0.017050
C120  C     C_R   0.748923 0.572629 0.079576 0.022198
C121  C     C_R   0.969824 0.347612 0.645474 0.526454
C122  C     C_R   0.803512 0.170008 0.438573 0.205609
C123  C     C_R   0.026507 0.344735 0.351371 0.555116
C124  C     C_R   0.469822 0.847612 0.645473 0.526456
C125  C     C_R   0.526507 0.844735 0.351371 0.555109
C126  C     C_R   0.992425 0.341829 0.079446 0.024805
C127  C     C_R   0.983164 0.341714 0.930674 0.020272
C128  C     C_R   0.492424 0.841829 0.079446 0.024803
C129  C     C_R   0.483164 0.841715 0.930674 0.020271
C130  C     C_R   0.979320 0.449753 0.042001 0.028835
C131  C     C_R   0.975244 0.448782 0.969214 0.039129
C132  C     C_R   0.479317 0.949752 0.042002 0.028840
Cl1   Cl    Cl    0.842357 0.252713 0.369457 -0.688868
Cl2   Cl    Cl    0.160719 0.842661 0.550199 -0.632303
Cl3   Cl    Cl    0.342353 0.752711 0.369458 -0.688871
Cl4   Cl    Cl    0.660718 0.342669 0.550203 -0.632301
Cl5   Cl    Cl    0.600386 0.149444 0.441729 -0.580562
Cl6   Cl    Cl    0.219585 0.261278 0.616257 -0.625787
Cl7   Cl    Cl    0.100388 0.649424 0.441721 -0.580548
Cl8   Cl    Cl    0.719589 0.761286 0.616263 -0.625768
Cr1   Cr    Cr6+3 0.885860 0.491680 0.749630 1.018018
Cr2   Cr    Cr6+3 0.112430 0.179310 0.249850 1.022783
Cr3   Cr    Cr6+3 0.387570 0.679310 0.750150 1.009129
Cr4   Cr    Cr6+3 0.612430 0.679310 0.249850 1.022781
Cr5   Cr    Cr6+3 0.114140 0.491680 0.250370 1.062912
Cr6   Cr    Cr6+3 0.385860 0.991680 0.749630 1.018016
Cr7   Cr    Cr6+3 0.614140 0.991680 0.250370 1.062908
Cr8   Cr    Cr6+3 0.730490 0.332970 0.748720 1.051274
Cr9   Cr    Cr6+3 0.269510 0.332970 0.251280 1.018638
Cr10  Cr    Cr6+3 0.230490 0.832970 0.748720 1.051272
Cr11  Cr    Cr6+3 0.769510 0.832970 0.251280 1.018641
Cr12  Cr    Cr6+3 0.887570 0.179310 0.750150 1.009127
H1    H     H_    0.855389 0.266921 0.523700 0.111247
H2    H     H_    0.350367 0.157673 0.073514 0.118485
H3    H     H_    0.172687 0.725452 0.938071 0.137926
H4    H     H_    0.850376 0.657640 0.073520 0.118483
H5    H     H_    0.896446 0.022127 0.934896 0.160209
H6    H     H_    0.103064 0.096511 0.053877 0.166819
H7    H     H_    0.396447 0.522157 0.934900 0.160217
H8    H     H_    0.603069 0.596540 0.053871 0.166820
H9    H     H_    0.867865 0.860768 0.929065 0.132033
H10   H     H_    0.098020 0.926936 0.063117 0.131774
H11   H     H_    0.367880 0.360792 0.929070 0.132026
H12   H     H_    0.184486 0.914939 0.411971 0.206467
H13   H     H_    0.598009 0.426965 0.063115 0.131776
H14   H     H_    0.071270 0.563394 0.061064 0.171828
H15   H     H_    0.979011 0.639442 0.938245 0.132734
H16   H     H_    0.571263 0.063405 0.061065 0.171824
H17   H     H_    0.478999 0.139442 0.938247 0.132734
H18   H     H_    0.985099 0.643709 0.065227 0.124653
H19   H     H_    0.064206 0.555811 0.935025 0.145471
H20   H     H_    0.485089 0.143710 0.065229 0.124652
H21   H     H_    0.564199 0.055823 0.935026 0.145469
H22   H     H_    0.118397 0.432168 0.473083 0.120669
H23   H     H_    0.355385 0.766927 0.523700 0.111246
H24   H     H_    0.843076 0.776190 0.583121 0.134651
H25   H     H_    0.618393 0.932182 0.473081 0.120664
H26   H     H_    0.343074 0.276180 0.583123 0.134652
H27   H     H_    0.630029 0.125743 0.587938 0.214465
H28   H     H_    0.226246 0.299682 0.471686 0.159366
H29   H     H_    0.130035 0.625737 0.587934 0.214465
H30   H     H_    0.726243 0.799688 0.471690 0.159363
H31   H     H_    0.641662 0.961868 0.597769 0.163683
H32   H     H_    0.322098 0.332087 0.461202 0.114749
H33   H     H_    0.141662 0.461867 0.597771 0.163685
H34   H     H_    0.684486 0.414953 0.411976 0.206467
H35   H     H_    0.822096 0.832097 0.461203 0.114749
H36   H     H_    0.005714 0.916075 0.444042 0.152087
H37   H     H_    0.029357 0.933241 0.573541 0.169346
H38   H     H_    0.505735 0.416079 0.444043 0.152114
H39   H     H_    0.529369 0.433254 0.573541 0.169373
H40   H     H_    0.983710 0.096934 0.372981 0.165991
H41   H     H_    0.036122 0.130052 0.630212 0.164763
H42   H     H_    0.483715 0.596931 0.372980 0.165989
H43   H     H_    0.536120 0.630061 0.630210 0.164767
H44   H     H_    0.925863 0.526563 0.358150 0.149235
H45   H     H_    0.960479 0.762919 0.534162 0.098739
H46   H     H_    0.003072 0.597712 0.605057 0.149176
H47   H     H_    0.425861 0.026557 0.358146 0.149234
H48   H     H_    0.503060 0.097718 0.605054 0.149180
H49   H     H_    0.667043 0.201336 0.067713 0.124720
H50   H     H_    0.358477 0.138625 0.942675 0.125852
H51   H     H_    0.167041 0.701331 0.067711 0.124718
H52   H     H_    0.858488 0.638591 0.942681 0.125859
H53   H     H_    0.867572 0.852541 0.056416 0.137349
H54   H     H_    0.107340 0.908271 0.936707 0.133996
H55   H     H_    0.367586 0.352566 0.056420 0.137341
H56   H     H_    0.923543 0.730386 0.409165 0.110486
H57   H     H_    0.607334 0.408288 0.936706 0.133997
H58   H     H_    0.891122 0.016275 0.061398 0.139621
H59   H     H_    0.111277 0.077727 0.928153 0.144449
H60   H     H_    0.391122 0.516306 0.061401 0.139624
H61   H     H_    0.611282 0.577744 0.928147 0.144452
H62   H     H_    0.985987 0.146008 0.939901 0.119160
H63   H     H_    0.991270 0.145879 0.070834 0.118702
H64   H     H_    0.485995 0.646011 0.939900 0.119160
H65   H     H_    0.491273 0.645880 0.070833 0.118704
H66   H     H_    0.460472 0.262920 0.534155 0.098746
H67   H     H_    0.423544 0.230380 0.409156 0.110492
H68   H     H_    0.672691 0.225462 0.938073 0.137929
O1    O     O_R   0.957020 0.451640 0.669920 -0.540605
O2    O     O_R   0.168040 0.093290 0.169870 -0.520133
O3    O     O_R   0.331960 0.593290 0.830130 -0.514322
O4    O     O_R   0.668040 0.593290 0.169870 -0.520132
O5    O     O_R   0.945600 0.250580 0.824860 -0.505613
O6    O     O_R   0.054400 0.250580 0.175140 -0.509879
O7    O     O_R   0.445600 0.750580 0.824860 -0.505613
O8    O     O_R   0.554400 0.750580 0.175140 -0.509879
O9    O     O_3   0.834640 0.334650 0.749500 -0.310022
O10   O     O_3   0.165360 0.334650 0.250500 -0.267087
O11   O     O_3   0.334640 0.834650 0.749500 -0.310015
O12   O     O_R   0.042980 0.451640 0.330080 -0.486185
O13   O     O_3   0.665360 0.834650 0.250500 -0.267085
O14   O     O_R   0.821450 0.543440 0.674610 -0.480919
O15   O     O_R   0.178550 0.543440 0.325390 -0.443706
O16   O     O_R   0.321450 0.043440 0.674610 -0.480936
O17   O     O_R   0.678550 0.043440 0.325390 -0.443715
O18   O     O_R   0.715320 0.458650 0.668100 -0.427175
O19   O     O_R   0.284680 0.458650 0.331900 -0.527154
O20   O     O_R   0.215320 0.958650 0.668100 -0.427188
O21   O     O_R   0.784680 0.958650 0.331900 -0.527150
O22   O     O_R   0.737170 0.209590 0.674530 -0.476968
O23   O     O_R   0.457020 0.951640 0.669920 -0.540604
O24   O     O_R   0.262830 0.209590 0.325470 -0.507140
O25   O     O_R   0.237170 0.709590 0.674530 -0.476967
O26   O     O_R   0.762830 0.709590 0.325470 -0.507135
O27   O     O_R   0.832710 0.092740 0.669580 -0.497043
O28   O     O_R   0.167290 0.092740 0.330420 -0.514685
O29   O     O_R   0.332710 0.592740 0.669580 -0.497045
O30   O     O_R   0.667290 0.592740 0.330420 -0.514685
O31   O     O_R   0.946290 0.250060 0.676040 -0.524786
O32   O     O_R   0.053710 0.250060 0.323960 -0.510001
O33   O     O_R   0.446290 0.750060 0.676040 -0.524785
O34   O     O_R   0.542980 0.951640 0.330080 -0.486194
O35   O     O_R   0.553710 0.750060 0.323960 -0.510003
O36   O     O_R   0.956270 0.452200 0.830470 -0.516059
O37   O     O_R   0.043730 0.452200 0.169530 -0.527858
O38   O     O_R   0.456270 0.952200 0.830470 -0.516057
O39   O     O_R   0.543730 0.952200 0.169530 -0.527857
O40   O     O_R   0.820760 0.543950 0.823440 -0.496177
O41   O     O_R   0.179240 0.543950 0.176560 -0.510237
O42   O     O_R   0.320760 0.043950 0.823440 -0.496178
O43   O     O_R   0.679240 0.043950 0.176560 -0.510235
O44   O     O_R   0.714570 0.459210 0.828640 -0.513518
O45   O     O_R   0.736470 0.210100 0.823360 -0.508927
O46   O     O_R   0.285430 0.459210 0.171360 -0.512683
O47   O     O_R   0.214570 0.959210 0.828640 -0.513519
O48   O     O_R   0.785430 0.959210 0.171360 -0.512683
O49   O     O_R   0.263530 0.210100 0.176640 -0.507686
O50   O     O_R   0.236470 0.710100 0.823360 -0.508925
O51   O     O_R   0.763530 0.710100 0.176640 -0.507685
O52   O     O_R   0.831960 0.093290 0.830130 -0.514320

loop_
_geom_bond_atom_site_label_1
_geom_bond_atom_site_label_2
_ccdc_geom_bond_type
C35   H25   S    
Cr10  O25   S    
C66   C68   A    
Cr5   O10   S    
C58   C62   A    
C123  O32   A    
C51   C123  S    
C69   C77   A    
C103  C120  A    
C34   C42   S    
C3    C11   S    
Cr9   O10   S    
C80   C84   A    
C86   C104  A    
Cr10  O50   S    
Cr11  O26   S    
C67   O21   A    
C62   H38   S    
C95   C117  A    
C50   C111  A    
C10   C132  S    
C76   O30   A    
C2    Cl2   S    
C30   C35   S    
C42   H31   S    
Cr8   O18   S    
C101  C118  A    
C77   C82   A    
C44   H29   S    
C12   C90   S    
C14   O46   A    
C25   C128  S    
C95   C113  S    
C90   C107  A    
C116  H8    S    
C15   O47   A    
C86   C91   A    
C6    C129  A    
C59   C66   A    
Cr3   O3    S    
C92   C109  S    
Cr2   O10   S    
C99   C117  A    
C94   C98   A    
Cr1   O9    S    
C80   H48   S    
C40   Cl7   S    
C29   C33   A    
C43   H32   S    
C92   C96   A    
C74   O28   A    
C23   C129  S    
C113  H5    S    
C73   O27   A    
C51   C65   A    
C125  O35   A    
C53   C68   A    
C24   C29   A    
C114  H6    S    
Cr12  O27   S    
C17   O45   A    
C52   C69   A    
Cr9   O19   S    
C106  H51   S    
C16   O43   A    
C56   O16   A    
C73   O22   A    
C23   O38   A    
C31   C39   S    
Cr1   O14   S    
C41   Cl8   S    
C20   C120  S    
C5    C126  A    
C41   C46   S    
C49   C75   S    
C13   C28   A    
C90   C94   A    
C2    C27   A    
C51   C70   A    
C7    C128  A    
C21   C127  S    
C77   H46   S    
C18   C118  S    
C89   H12   S    
C75   O29   A    
C72   C81   A    
C75   O25   A    
C17   C117  S    
C93   C110  S    
C53   C125  S    
C69   C70   A    
C74   O24   A    
C24   Cl4   S    
Cr11  O13   S    
C9    C131  S    
C99   C104  A    
C39   Cl6   S    
C19   C119  S    
C60   H36   S    
C55   C60   A    
C115  H11   S    
C16   C86   S    
C13   Cl3   S    
C96   C114  S    
C109  H54   S    
C24   C111  A    
C76   O26   A    
Cr9   O46   S    
C100  H23   S    
C17   O52   A    
C18   O2    A    
C128  C132  A    
C6    H64   S    
C71   C80   A    
C55   C65   A    
C1    O14   A    
C8    H18   S    
C81   C85   A    
Cr2   O6    S    
C19   O50   A    
C54   C124  S    
Cr6   O11   S    
Cr7   O17   S    
C22   O37   A    
C101  C105  A    
C43   H28   S    
Cr4   O35   S    
Cr6   O16   S    
C28   C45   S    
C11   H21   S    
C121  O31   A    
C4    H62   S    
C38   C50   A    
C54   C71   A    
C27   C31   A    
C3    C132  A    
C48   C74   S    
C28   C32   A    
C36   C48   A    
Cr2   O32   S    
C84   C85   A    
C47   C73   S    
C82   H45   S    
C52   C64   A    
C30   C34   A    
C27   C56   S    
C8    C9    S    
C39   C43   S    
C108  H58   S    
C114  H10   S    
C59   H43   S    
C32   C37   A    
Cr5   O37   S    
C79   C83   A    
C58   H42   S    
Cr10  O11   S    
C115  H7    S    
C60   C61   A    
C25   O8    A    
C25   O39   A    
C108  C113  S    
Cr6   O23   S    
C2    C89   A    
C45   O19   A    
C122  Cl1   S    
C81   H47   S    
C83   H56   S    
Cr6   O38   S    
C14   O41   A    
C50   C76   S    
Cr11  O21   S    
C88   C106  A    
C52   C121  S    
Cr11  O48   S    
C98   C116  S    
C87   C105  A    
C9    H15   S    
C42   H27   S    
Cr12  O31   S    
Cr2   O28   S    
C62   C63   A    
C1    C29   S    
C20   O4    A    
C19   O3    A    
Cr8   O22   S    
C112  H61   S    
Cr8   O44   S    
C124  O23   A    
C98   C120  A    
Cr8   O9    S    
C20   O51   A    
C37   C49   A    
C16   O48   A    
C8    H14   S    
C109  C114  S    
C54   C66   A    
Cr7   O13   S    
C84   H66   S    
C58   C68   A    
Cr5   O12   S    
C11   H17   S    
Cr10  O20   S    
C48   C89   A    
Cr5   O15   S    
C8    C130  S    
C46   H35   S    
Cr4   O4    S    
C116  H13   S    
C9    H19   S    
C113  H9    S    
C97   C115  S    
C26   C67   S    
Cr7   O43   S    
C93   C97   A    
C112  C116  S    
C39   H26   S    
C57   C64   A    
C15   C87   S    
Cr4   O13   S    
C96   C118  A    
Cr4   O30   S    
C88   C93   A    
C123  O12   A    
C111  H34   S    
C121  O1    A    
Cr3   O29   S    
C4    C127  A    
C70   C79   A    
C3    C129  A    
Cr1   O36   S    
C91   C108  S    
C41   H24   S    
C110  H60   S    
C56   O20   A    
C45   O15   A    
Cr3   O7    S    
C124  O33   A    
Cr12  O9    S    
C23   O7    A    
Cr9   O49   S    
C78   H1    S    
C57   C61   A    
C6    C7    A    
C22   O6    A    
C1    O18   A    
C21   O5    A    
C44   H33   S    
Cr7   O34   S    
C59   C63   A    
C33   C38   A    
C47   C78   A    
C33   C41   S    
C104  H49   S    
C46   H30   S    
C13   C100  A    
C130  C131  A    
C85   H67   S    
C14   C88   S    
C107  H52   S    
C15   O42   A    
C109  H59   S    
C55   H40   S    
C21   O36   A    
Cr5   O41   S    
C35   Cl5   S    
Cr11  O51   S    
C105  H50   S    
C101  H2    S    
Cr12  O52   S    
Cr9   O24   S    
C63   H39   S    
C4    C5    A    
C102  H3    S    
C64   C65   A    
C94   C112  S    
C97   C119  A    
C35   C42   S    
Cr1   O40   S    
C67   O17   A    
Cr6   O42   S    
C32   C40   S    
Cr7   O39   S    
C125  O34   A    
C78   C122  A    
C110  H55   S    
C127  C131  A    
C38   C46   S    
Cr8   O45   S    
C22   C126  S    
C10   C11   S    
C79   H44   S    
C91   C95   A    
Cr12  O5    S    
C7    H65   S    
C37   C44   S    
C12   O40   A    
C103  H4    S    
C40   C44   S    
C112  H57   S    
C71   C72   A    
C99   H68   S    
C40   H22   S    
C110  C115  S    
C10   H16   S    
C82   C83   A    
Cr3   O33   S    
C102  C106  A    
C57   H41   S    
C126  C130  A    
C31   C36   A    
Cr4   O8    S    
C36   C43   S    
C103  C107  A    
C34   C47   A    
C26   C122  A    
C61   H37   S    
Cr3   O11   S    
C87   C92   A    
C53   C72   A    
C10   H20   S    
Cr10  O47   S    
Cr2   O2    S    
C18   O49   A    
C12   O44   A    
C102  C119  A    
C108  H53   S    
Cr1   O1    S    
C49   C100  A    
C26   C30   A    
C5    H63   S    
