data_str_m9_o16_o24_f0_sra.sym.90
_audit_creation_date              2012-12-11T15:13:51-0500
_audit_creation_method            fapswitch 2.2
_symmetry_space_group_name_H-M    P1
_symmetry_Int_Tables_number       1
_space_group_crystal_system       triclinic
_cell_length_a                    6.941112
_cell_length_b                    13.497617
_cell_length_c                    20.099661
_cell_angle_alpha                 104.068773
_cell_angle_beta                  89.866618
_cell_angle_gamma                 90.731242
_cell_volume                      1826.47272127

loop_
_atom_site_label
_atom_site_type_symbol
_atom_type_description
_atom_site_fract_x
_atom_site_fract_y
_atom_site_fract_z
_atom_type_partial_charge
O1    O     O_R   0.506780 0.600060 0.449950 -0.538162
O2    O     O_R   0.179840 0.597110 0.589410 -0.544240
O3    O     O_R   0.004570 0.399940 0.550050 -0.534861
C1    C     C_R   0.348537 0.618511 0.617023 0.692176
O4    O     O_R   0.177380 0.612160 0.452890 -0.541569
O5    O     O_R   0.002100 0.415100 0.412560 -0.541714
C2    C     C_R   0.347271 0.639018 0.436251 0.696062
O6    O     O_R   0.509250 0.584900 0.587440 -0.543331
O7    O     O_3   0.337570 0.435330 0.486930 -0.368452
V1    V     V_3+5 0.064650 0.512000 0.502430 1.416463
O8    O     O_R   0.672090 0.402890 0.410590 -0.542386
C3    C     C_R   0.840701 0.380932 0.383089 0.676392
O9    O     O_R   0.674540 0.387840 0.547110 -0.541609
C4    C     C_R   0.842748 0.361098 0.563806 0.692581
V2    V     V_3+5 0.564040 0.488000 0.497570 1.419718
O10   O     O_3   0.840990 0.564670 0.513070 -0.370782
C5    C     C_R   0.927661 0.109883 0.607481 0.176711
H1    H     H_    0.955902 0.169930 0.517771 0.110625
H2    H     H_    0.921296 0.980264 0.692201 0.131695
C6    C     C_R   0.851941 0.283725 0.603726 -0.141405
C7    C     C_R   0.874942 0.319125 0.931664 -0.267348
C8    C     C_R   0.888635 0.395571 0.895920 0.030838
C9    C     C_R   0.881503 0.368682 0.824037 -0.076954
C10   C     C_R   0.856757 0.265769 0.786938 0.083724
C11   C     C_R   0.862106 0.188572 0.823841 0.064368
C12   C     C_R   0.847051 0.237153 0.713677 0.044699
C13   C     C_R   0.890856 0.134715 0.679024 0.113492
C14   C     C_R   0.898147 0.059856 0.716817 -0.198250
C15   C     C_R   0.875366 0.085770 0.787563 -0.205545
C16   C     C_R   0.799684 0.306907 0.673457 -0.073308
C17   C     C_R   0.918664 0.186705 0.571756 -0.166661
C18   C     C_R   0.864292 0.216291 0.896392 -0.066241
H3    H     H_    0.880548 0.339318 0.987274 0.095194
H4    H     H_    0.905398 0.428412 0.797526 0.129482
H5    H     H_    0.880331 0.024726 0.813887 0.113229
C19   C     C_3   0.678116 0.216568 0.230139 -0.114219
C20   C     C_3   0.782208 0.198229 0.294113 -0.142334
H6    H     H_    0.721461 0.157293 0.331166 0.094086
H7    H     H_    0.530227 0.189478 0.213360 0.106240
C21   C     C_3   0.850235 0.310490 0.312555 -0.006634
C22   C     C_3   0.746440 0.329605 0.249401 -0.141142
C23   C     C_3   0.931996 0.300266 0.206483 -0.147030
C24   C     C_3   0.035994 0.281837 0.270446 -0.118176
C25   C     C_3   0.967773 0.168698 0.251133 -0.136608
C26   C     C_3   0.863744 0.188001 0.187955 -0.002960
H8    H     H_    0.654668 0.396140 0.249639 0.110612
H9    H     H_    0.993614 0.342026 0.169974 0.101109
H10   H     H_    0.183855 0.308952 0.287246 0.110832
H11   H     H_    0.059302 0.101903 0.251354 0.108518
C27   C     C_3   0.539058 0.723914 0.730562 -0.191320
C28   C     C_3   0.458954 0.834107 0.749977 -0.159625
H12   H     H_    0.542902 0.904725 0.750096 0.117369
H13   H     H_    0.689239 0.702772 0.714522 0.112504
C29   C     C_3   0.356987 0.810570 0.812801 -0.016536
C30   C     C_3   0.435844 0.701605 0.793516 0.015650
C31   C     C_3   0.253942 0.663875 0.750340 -0.158002
C32   C     C_3   0.174397 0.774247 0.769753 -0.124911
C33   C     C_3   0.276146 0.797284 0.706279 -0.134079
C34   C     C_3   0.355980 0.687979 0.687751 -0.021566
H14   H     H_    0.170418 0.593141 0.750340 0.127156
H15   H     H_    0.024259 0.795227 0.785928 0.119952
H16   H     H_    0.210358 0.836644 0.669594 0.101606
C35   C     C_R   0.470741 0.884458 0.389308 -0.162658
H17   H     H_    0.468216 0.834438 0.482768 0.105696
H18   H     H_    0.510099 0.007918 0.305970 0.116298
H19   H     H_    0.521054 0.960543 0.414817 0.114860
C36   C     C_R   0.363309 0.716979 0.397112 -0.040560
C37   C     C_R   0.305693 0.683399 0.067777 -0.171487
C38   C     C_R   0.309661 0.604588 0.100927 -0.136812
C39   C     C_R   0.354568 0.623510 0.170914 0.184731
C40   C     C_R   0.372877 0.726891 0.210872 0.062197
C41   C     C_R   0.387149 0.805797 0.174714 0.025214
C42   C     C_R   0.382970 0.755852 0.284443 0.079655
C43   C     C_R   0.442220 0.856899 0.318001 0.141915
C44   C     C_R   0.469189 0.930286 0.280531 -0.208970
C45   C     C_R   0.435865 0.906223 0.210474 -0.191891
C46   C     C_R   0.327462 0.690269 0.326478 -0.231600
C47   C     C_R   0.437858 0.813602 0.428243 -0.165044
C48   C     C_R   0.353724 0.782745 0.103116 -0.088402
H20   H     H_    0.255974 0.618132 0.305760 0.127376
H21   H     H_    0.275622 0.665806 0.013243 0.172396
H22   H     H_    0.288209 0.527008 0.070680 0.125787
H23   H     H_    0.451375 0.967257 0.184405 0.112904
O11   O     O_R   0.203580 0.914920 0.912610 -0.544396
O12   O     O_R   0.535710 0.887810 0.047120 -0.526925
O13   O     O_R   0.710730 0.084950 0.087430 -0.548007
C49   C     C_R   0.366006 0.861285 0.064036 0.740034
O14   O     O_R   0.533010 0.902850 0.910600 -0.528471
O15   O     O_R   0.708010 0.100090 0.949930 -0.543824
C50   C     C_R   0.364286 0.881215 0.883113 0.743858
O16   O     O_R   0.206300 0.899780 0.050100 -0.541191
O17   O     O_3   0.375170 0.064580 0.013100 -0.382103
V3    V     V_3+5 0.648200 0.988020 0.997570 1.483267
O18   O     O_R   0.038030 0.112330 0.952840 -0.544501
C51   C     C_R   0.869980 0.139042 0.936324 0.690874
O19   O     O_R   0.040730 0.097300 0.089360 -0.546799
C52   C     C_R   0.872351 0.118452 0.117120 0.666196
V4    V     V_3+5 0.148780 0.012220 0.002360 1.439514
O20   O     O_3   0.871930 0.935430 0.986900 -0.355759
C53   C     C_2   0.525805 0.645197 0.840896 0.395941
H24   H     H_    0.590140 0.571550 0.820127 0.103581
O21   O     O_2   0.528032 0.681440 0.902711 -0.524938
C54   C     C_3   0.413924 0.531405 0.195686 -0.848709
H25   H     H_    0.517243 0.552659 0.238940 0.212463
H26   H     H_    0.285104 0.491256 0.209672 0.202904
H27   H     H_    0.491757 0.476469 0.154524 0.210680
C55   C     C_3   0.983880 0.003739 0.568791 -0.810857
H28   H     H_    0.117350 0.980799 0.591168 0.206603
H29   H     H_    0.865658 0.948722 0.571639 0.204179
H30   H     H_    0.011887 0.999372 0.513711 0.213240
C56   C     C_2   0.673090 0.395909 0.700098 0.326420
H31   H     H_    0.690476 0.465595 0.682742 0.032272
O22   O     O_2   0.542521 0.390240 0.739887 -0.536350
C57   C     C_2   0.915926 0.503118 0.934535 0.391090
H32   H     H_    0.917746 0.522300 0.990220 0.042884
O23   O     O_2   0.938070 0.571430 0.904901 -0.529900

loop_
_geom_bond_atom_site_label_1
_geom_bond_atom_site_label_2
_ccdc_geom_bond_type
C25   H11   S    
C33   H16   S    
C30   C31   S    
O15   C51   A    
C49   O16   A    
C42   C43   A    
O12   V3    S    
C56   H31   S    
C36   C46   A    
C41   C45   A    
C48   C49   S    
C57   H32   S    
O17   V4    S    
C6    C16   A    
C12   C13   A    
C37   H21   S    
C14   C15   A    
C10   C12   A    
C29   C50   S    
C20   C21   S    
C5    C55   S    
O5    C3    A    
C7    H3    S    
O18   V4    S    
V2    O10   S    
C31   C32   S    
C22   C23   S    
O13   C52   A    
O17   V3    S    
C38   H22   S    
O14   V3    S    
O8    V2    S    
C21   C24   S    
C37   C38   A    
O19   V4    S    
C30   C53   S    
C55   H28   S    
C39   C40   A    
O1    V2    S    
C24   H10   S    
V3    O20   S    
C1    O6    A    
C11   C18   A    
C35   H19   S    
O9    C4    A    
C55   H29   S    
C19   C22   S    
C38   C39   A    
C36   C47   A    
O11   C50   A    
C45   H23   S    
O12   C49   A    
C11   C15   A    
C7    C18   A    
C27   H13   S    
C43   C44   A    
C28   H12   S    
C5    C13   A    
C4    C6    S    
C10   C11   A    
C56   O22   D    
C40   C42   A    
C39   C54   S    
C33   C34   S    
C31   H14   S    
C23   C26   S    
C3    C21   S    
O2    C1    A    
C44   C45   A    
C20   H6    S    
O13   V3    S    
C22   H8    S    
C9    H4    S    
O19   C52   A    
C53   O21   D    
C27   C28   S    
C19   C26   S    
C54   H26   S    
C28   C33   S    
C35   C47   A    
H2    C14   S    
O3    C4    A    
C21   C22   S    
O14   C50   A    
C12   C16   A    
O6    V2    S    
O9    V2    S    
C24   C25   S    
C5    C17   A    
C55   H30   S    
C23   C24   S    
C27   C34   S    
O2    V1    S    
C54   H25   S    
C25   C26   S    
O4    C2    A    
O7    V1    S    
C46   H20   S    
C29   C30   S    
C19   C20   S    
O1    C2    A    
H17   C47   S    
C19   H7    S    
O5    V1    S    
C57   O23   D    
O8    C3    A    
C32   H15   S    
C35   C43   A    
C41   C48   A    
C15   H5    S    
C27   C30   S    
H18   C44   S    
C31   C34   S    
C16   C56   S    
C28   C29   S    
O11   V4    S    
C20   C25   S    
O7    V2    S    
O4    V1    S    
O3    V1    S    
C26   C52   S    
C32   C33   S    
C37   C48   A    
C1    C34   S    
C53   H24   S    
C54   H27   S    
C23   H9    S    
O16   V4    S    
O15   V3    S    
O18   C51   A    
C9    C10   A    
C2    C36   S    
C8    C57   S    
C18   C51   S    
C40   C41   A    
V4    O20   S    
C13   C14   A    
C42   C46   A    
C8    C9    A    
V1    O10   S    
H1    C17   S    
C7    C8    A    
C29   C32   S    
C6    C17   A    
