data_str_m3_o14_o16_f0_pcu.sym.11
_audit_creation_date              2012-12-10T17:42:36-0500
_audit_creation_method            fapswitch 2.2
_symmetry_space_group_name_H-M    P1
_symmetry_Int_Tables_number       1
_space_group_crystal_system       triclinic
_cell_length_a                    9.917988
_cell_length_b                    10.650529
_cell_length_c                    13.328429
_cell_angle_alpha                 91.346888
_cell_angle_beta                  71.521491
_cell_angle_gamma                 87.846582
_cell_volume                      1333.44332603

loop_
_atom_site_label
_atom_site_type_symbol
_atom_type_description
_atom_site_fract_x
_atom_site_fract_y
_atom_site_fract_z
_atom_type_partial_charge
C1    C     C_R   0.497196 0.739240 0.500038 0.857719
C2    C     C_R   0.386257 0.453142 0.814590 -0.110999
C3    C     C_R   0.488354 0.863092 0.311745 -0.175854
C4    C     C_R   0.424475 0.485954 0.701925 0.864884
C5    C     C_R   0.512635 0.921518 0.215741 -0.168661
C6    C     C_R   0.561281 0.042747 0.205142 -0.166894
C7    C     C_R   0.577638 0.108838 0.292313 0.004014
C8    C     C_R   0.529516 0.057818 0.394584 0.028834
C9    C     C_R   0.500165 0.929943 0.401291 0.089966
C10   C     C_R   0.492181 0.871152 0.496110 -0.087541
C11   C     C_R   0.496967 0.936766 0.585774 -0.259508
C12   C     C_R   0.449837 0.456193 0.977753 0.102149
C13   C     C_R   0.504337 0.065017 0.584717 0.004252
C14   C     C_R   0.517058 0.126106 0.490072 -0.153986
C15   C     C_R   0.796468 0.668747 0.637769 -0.134680
C16   C     C_R   0.505527 0.260054 0.494442 0.893772
C17   C     C_R   0.835837 0.750962 0.705151 -0.178290
C18   C     C_R   0.975543 0.749717 0.704925 -0.180051
C19   C     C_R   0.076801 0.666431 0.637146 -0.163978
C20   C     C_R   0.040904 0.582670 0.567390 0.115848
C21   C     C_R   0.896329 0.583106 0.567457 0.150526
C22   C     C_R   0.958542 0.419832 0.436278 -0.176604
C23   C     C_R   0.492495 0.449897 0.866472 0.068451
C24   C     C_R   0.102098 0.419371 0.436130 0.164746
C25   C     C_R   0.577138 0.505964 0.297913 0.907226
C26   C     C_R   0.784159 0.568150 0.014842 0.039535
C27   C     C_R   0.621029 0.514188 0.184084 -0.069903
C28   C     C_R   0.244575 0.427526 0.872949 0.108391
C29   C     C_R   0.206271 0.420685 0.982937 -0.205094
C30   C     C_R   0.304800 0.442043 0.035060 -0.220679
C31   C     C_1   0.683388 0.202207 0.268077 0.124499
C32   C     C_1   0.501582 0.130249 0.681539 0.160218
C33   C     C_R   0.554107 0.481142 0.027015 0.041263
C34   C     C_R   0.692160 0.514418 0.965908 0.145923
C35   C     C_R   0.737228 0.485536 0.858088 -0.235270
C36   C     C_R   0.641178 0.440650 0.811788 -0.185685
C37   C     C_R   0.525980 0.472284 0.134718 -0.320282
C38   C     C_R   0.747316 0.569126 0.125888 0.049680
H1    H     H_    0.461125 0.765669 0.314831 0.151841
H2    H     H_    0.431691 0.428167 0.181316 0.177055
H3    H     H_    0.263563 0.448313 0.120228 0.136948
H4    H     H_    0.097538 0.403982 0.029258 0.145707
H5    H     H_    0.687058 0.398184 0.733466 0.199941
H6    H     H_    0.492763 0.887436 0.657095 0.131329
H7    H     H_    0.846275 0.720127 0.159696 0.183613
H8    H     H_    0.935911 0.579577 0.154364 0.184506
H9    H     H_    0.172626 0.241081 0.389198 0.179479
H10   H     H_    0.205189 0.343670 0.290858 0.147912
H11   H     H_    0.995753 0.596205 0.972132 0.180427
H12   H     H_    0.503706 0.869484 0.147516 0.149387
H13   H     H_    0.892581 0.725434 0.971588 0.185361
H14   H     H_    0.103824 0.491843 0.803044 0.202901
H15   H     H_    0.053270 0.362040 0.871221 0.182803
H16   H     H_    0.596426 0.081326 0.127005 0.144884
H17   H     H_    0.928823 0.354462 0.384469 0.163960
H18   H     H_    0.686596 0.674386 0.644713 0.201572
H19   H     H_    0.756911 0.815231 0.758631 0.149444
H20   H     H_    0.005588 0.813069 0.758067 0.151389
H21   H     H_    0.181864 0.669216 0.641945 0.204582
H22   H     H_    0.847691 0.491110 0.810480 0.176626
N1    N     N_R   0.856860 0.501200 0.500990 -0.126932
N2    N     N_R   0.142450 0.501280 0.501020 -0.115877
N3    N     N_3   0.835467 0.625883 0.179639 -0.432226
N4    N     N_1   0.773325 0.272526 0.246269 -0.207370
N5    N     N_1   0.499728 0.180188 0.759905 -0.217574
N6    N     N_3   0.205462 0.331666 0.368354 -0.391059
N7    N     N_3   0.907655 0.629160 0.952184 -0.490948
N8    N     N_3   0.141098 0.404780 0.820487 -0.432304
O1    O     O_R   0.385310 0.683220 0.500000 -0.645194
O2    O     O_R   0.614640 0.683250 0.500010 -0.622005
O3    O     O_R   0.328400 0.499950 0.653610 -0.622709
O4    O     O_R   0.557730 0.499970 0.653620 -0.657572
O5    O     O_R   0.385360 0.316750 0.499990 -0.586464
O6    O     O_R   0.614690 0.316780 0.500000 -0.616063
O7    O     O_R   0.442270 0.500030 0.346380 -0.621944
O8    O     O_R   0.671600 0.500050 0.346390 -0.575245
Zn1   Zn    Zn3+2 0.346880 0.499980 0.499990 0.952919
Zn2   Zn    Zn3+2 0.653120 0.500020 0.500010 0.948965

loop_
_geom_bond_atom_site_label_1
_geom_bond_atom_site_label_2
_ccdc_geom_bond_type
C29   H4    S    
O2    Zn2   S    
C13   C32   S    
O1    Zn1   S    
C19   C20   A    
C4    O4    A    
C7    C8    A    
C12   C23   A    
C16   O6    A    
C26   N7    S    
C28   C29   A    
C28   N8    S    
O8    Zn2   S    
C18   C19   A    
C37   H2    S    
C5    C6    A    
C27   C38   A    
C34   C35   A    
H15   N8    S    
O4    Zn2   S    
N2    Zn1   S    
C26   C34   A    
C35   C36   A    
C8    C9    A    
C8    C14   A    
C30   H3    S    
C9    C10   A    
H9    N6    S    
C21   N1    A    
H14   N8    S    
C24   N6    S    
C3    H1    S    
C13   C14   A    
C6    H16   S    
C18   H20   S    
C17   C18   A    
C7    C31   S    
C16   O5    A    
C26   C38   A    
C19   H21   S    
H7    N3    S    
C33   C37   A    
C35   H22   S    
C25   O7    A    
C2    C4    S    
C29   C30   A    
C3    C9    A    
N1    Zn2   S    
C33   C34   A    
C11   H6    S    
H13   N7    S    
O7    Zn1   S    
C6    C7    A    
C14   C16   S    
C5    H12   S    
O3    Zn1   S    
C38   N3    S    
C15   C17   A    
C24   N2    A    
H11   N7    S    
C12   C30   A    
C31   N4    T    
C1    C10   S    
C3    C5    A    
C22   H17   S    
C25   C27   S    
C1    O2    A    
H8    N3    S    
C25   O8    A    
C15   H18   S    
C22   N1    A    
C11   C13   A    
C27   C37   A    
C22   C24   A    
C20   N2    A    
C1    O1    A    
C10   C11   A    
C15   C21   A    
C20   C21   A    
C23   C36   A    
O6    Zn2   S    
C2    C23   A    
O5    Zn1   S    
C36   H5    S    
C2    C28   A    
H10   N6    S    
C12   C33   A    
C4    O3    A    
C17   H19   S    
C32   N5    T    
