data_str_m3_o10_o17_f0_pcu.sym.120
_audit_creation_date              2012-12-10T16:52:03-0500
_audit_creation_method            fapswitch 2.2
_symmetry_space_group_name_H-M    P1
_symmetry_Int_Tables_number       1
_space_group_crystal_system       triclinic
_cell_length_a                    7.775704
_cell_length_b                    8.559539
_cell_length_c                    14.891452
_cell_angle_alpha                 91.137877
_cell_angle_beta                  86.006108
_cell_angle_gamma                 93.685089
_cell_volume                      986.553023248

loop_
_atom_site_label
_atom_site_type_symbol
_atom_type_description
_atom_site_fract_x
_atom_site_fract_y
_atom_site_fract_z
_atom_type_partial_charge
C1    C     C_R   0.545745 0.794673 0.497523 0.967387
C2    C     C_R   0.547372 0.645561 0.813525 -0.062802
C3    C     C_R   0.491470 0.495512 0.232361 -0.089847
C4    C     C_R   0.508530 0.504487 0.767639 -0.089847
C5    C     C_R   0.531232 0.635662 0.188088 -0.265286
C6    C     C_R   0.468767 0.364338 0.811912 -0.265286
C7    C     C_R   0.534648 0.638457 0.095392 0.129599
C8    C     C_R   0.465352 0.361543 0.904608 0.129599
C9    C     C_R   0.497407 0.498366 0.046947 0.050436
C10   C     C_R   0.502593 0.501634 0.953053 0.050436
C11   C     C_R   0.455499 0.355194 0.092347 0.077406
C12   C     C_R   0.454255 0.205327 0.502476 0.967387
C13   C     C_R   0.544501 0.644806 0.907653 0.077406
C14   C     C_R   0.576109 0.779234 0.050756 -0.209470
C15   C     C_R   0.423891 0.220766 0.949243 -0.209470
C16   C     C_1   0.413351 0.210807 0.236308 0.128462
C17   C     C_1   0.586649 0.789192 0.763692 0.128462
C18   C     C_R   0.581141 0.782698 0.957617 -0.212451
C19   C     C_R   0.418859 0.217301 0.042382 -0.212451
C20   C     C_2   0.569815 0.958220 0.496067 -0.347111
C21   C     C_2   0.430185 0.041780 0.503933 -0.347111
C22   C     C_R   0.502617 0.501168 0.672568 0.898789
C23   C     C_R   0.497383 0.498832 0.327432 0.898789
C24   C     C_R   0.452628 0.354439 0.186474 -0.062802
H1    H     H_    0.560895 0.742286 0.226280 0.149150
H2    H     H_    0.986441 0.617460 0.567936 0.197893
H3    H     H_    0.439105 0.257714 0.773720 0.149150
H4    H     H_    0.605102 0.886763 0.087967 0.154238
H5    H     H_    0.394898 0.113237 0.912033 0.154239
H6    H     H_    0.614014 0.893836 0.925308 0.162389
H7    H     H_    0.385986 0.106164 0.074691 0.162389
H8    H     H_    0.701693 0.009298 0.488665 0.180797
H9    H     H_    0.298307 0.990701 0.511335 0.180797
H10   H     H_    0.013559 0.382539 0.432064 0.197894
N1    N     N_2   0.950330 0.457950 0.475660 -0.171815
N2    N     N_2   0.049670 0.542050 0.524340 -0.171815
N3    N     N_1   0.382173 0.096339 0.275940 -0.220396
N4    N     N_1   0.617827 0.903660 0.724060 -0.220396
O1    O     O_R   0.389250 0.738570 0.505970 -0.614623
O2    O     O_R   0.610750 0.261430 0.494030 -0.614623
O3    O     O_R   0.678390 0.711620 0.490370 -0.630413
O4    O     O_R   0.321610 0.288380 0.509630 -0.630413
O5    O     O_R   0.355420 0.513510 0.639950 -0.613573
O6    O     O_R   0.644580 0.486490 0.360050 -0.613573
O7    O     O_R   0.644560 0.486560 0.624350 -0.621604
O8    O     O_R   0.355440 0.513440 0.375650 -0.621604
Zn1   Zn    Zn3+2 0.306940 0.517990 0.510420 0.962843
Zn2   Zn    Zn3+2 0.693060 0.482010 0.489580 0.962843

loop_
_geom_bond_atom_site_label_1
_geom_bond_atom_site_label_2
_ccdc_geom_bond_type
C12   O2    A    
C2    C4    A    
C18   H6    S    
C22   O5    A    
C4    C22   S    
C9    C10   A    
C14   C18   A    
C3    C23   S    
N1    N2    D    
C16   N3    T    
C17   N4    T    
C19   H7    S    
C16   C24   S    
C23   O8    A    
C2    C17   S    
C15   C19   A    
C9    C11   A    
C11   C19   A    
C3    C24   A    
C13   C18   A    
C5    H1    S    
N1    Zn2   S    
C6    C8    A    
H2    N2    S    
O3    Zn2   S    
C15   H5    S    
C8    C15   A    
C5    C7    A    
O4    Zn1   S    
C8    C10   A    
C4    C6    A    
C21   H9    S    
C1    O1    A    
O6    Zn2   S    
C11   C24   A    
C22   O7    A    
C20   C21   D    
N2    Zn1   S    
O1    Zn1   S    
H10   N1    S    
C20   H8    S    
O7    Zn2   S    
C1    O3    A    
C7    C9    A    
C2    C13   A    
O2    Zn2   S    
O8    Zn1   S    
C1    C20   S    
C12   O4    A    
C14   H4    S    
O5    Zn1   S    
C12   C21   S    
C7    C14   A    
C23   O6    A    
C6    H3    S    
C3    C5    A    
C10   C13   A    
