data_str_m9_o11_o16_f0_sra.sym.225
_audit_creation_date              2012-12-11T14:17:41-0500
_audit_creation_method            fapswitch 2.2
_symmetry_space_group_name_H-M    P1
_symmetry_Int_Tables_number       1
_space_group_crystal_system       triclinic
_cell_length_a                    6.94441
_cell_length_b                    13.611096
_cell_length_c                    20.469439
_cell_angle_alpha                 102.242648
_cell_angle_beta                  90.176615
_cell_angle_gamma                 90.527267
_cell_volume                      1890.68691102

loop_
_atom_site_label
_atom_site_type_symbol
_atom_type_description
_atom_site_fract_x
_atom_site_fract_y
_atom_site_fract_z
_atom_type_partial_charge
O1    O     O_R   0.506860 0.599390 0.449240 -0.539224
O2    O     O_R   0.180220 0.594600 0.586780 -0.543222
O3    O     O_R   0.004500 0.400610 0.550760 -0.539825
C1    C     C_R   0.349203 0.616226 0.613412 0.742536
O4    O     O_R   0.177490 0.611290 0.451970 -0.534649
O5    O     O_R   0.001750 0.417420 0.414990 -0.537250
C2    C     C_R   0.346444 0.638068 0.435345 0.711146
O6    O     O_R   0.509610 0.582580 0.585010 -0.543387
O7    O     O_3   0.337420 0.436370 0.488020 -0.374059
V1    V     V_3+5 0.064680 0.511800 0.502220 1.462719
O8    O     O_R   0.671710 0.405400 0.413220 -0.553885
C3    C     C_R   0.839045 0.387966 0.385333 0.664013
O9    O     O_R   0.674440 0.388710 0.548030 -0.537691
C4    C     C_R   0.842751 0.362874 0.565403 0.693354
V2    V     V_3+5 0.564010 0.488200 0.497780 1.440835
O10   O     O_3   0.841140 0.563630 0.511980 -0.366419
C5    C     C_R   0.813122 0.113562 0.613788 -0.069666
H1    H     H_    0.775156 0.167180 0.523761 0.142752
H2    H     H_    0.782704 0.037449 0.587498 0.191414
C6    C     C_R   0.848890 0.287586 0.606911 -0.119972
C7    C     C_R   0.836784 0.314631 0.928922 -0.167407
C8    C     C_R   0.810231 0.389318 0.893093 -0.146791
C9    C     C_R   0.813458 0.365933 0.823500 -0.092651
C10   C     C_R   0.851542 0.266958 0.787623 0.097692
C11   C     C_R   0.864002 0.189808 0.824508 0.052774
C12   C     C_R   0.861725 0.241260 0.716248 0.022839
C13   C     C_R   0.848053 0.137900 0.683212 0.042377
C14   C     C_R   0.863872 0.061909 0.720727 -0.004909
C15   C     C_R   0.874350 0.089001 0.790296 -0.269762
C16   C     C_R   0.885601 0.314781 0.676598 0.284944
C17   C     C_R   0.807086 0.187963 0.576804 -0.205610
C18   C     C_R   0.860536 0.214964 0.895347 -0.064012
H3    H     H_    0.831746 0.333958 0.983048 0.119250
H4    H     H_    0.774464 0.425790 0.799146 0.163060
H5    H     H_    0.782428 0.465609 0.919376 0.125726
H6    H     H_    0.887450 0.029569 0.817839 0.106428
C19   C     C_2   0.994874 0.282663 0.286703 -0.158913
C20   C     C_2   0.840394 0.337143 0.313520 -0.147032
H7    H     H_    0.119959 0.279688 0.318196 0.116235
C21   C     C_2   0.009966 0.224244 0.216505 -0.092895
C22   C     C_2   0.860283 0.173346 0.183023 -0.224428
H8    H     H_    0.151827 0.217858 0.193913 0.133822
H9    H     H_    0.721507 0.174022 0.207358 0.134377
C23   C     C_2   0.204665 0.791606 0.781890 -0.126305
C24   C     C_2   0.363520 0.816133 0.819777 -0.302756
H10   H     H_    0.066957 0.821954 0.801053 0.123604
H11   H     H_    0.502069 0.786223 0.801843 0.125595
C25   C     C_2   0.203201 0.723239 0.714358 -0.083424
C26   C     C_2   0.361339 0.684726 0.680075 -0.287996
H12   H     H_    0.061977 0.704647 0.691955 0.139317
H13   H     H_    0.504466 0.703030 0.700388 0.121876
C27   C     C_R   0.348075 0.895532 0.393300 0.377722
H14   H     H_    0.387817 0.020992 0.309283 0.124993
C28   C     C_R   0.355425 0.719168 0.398401 -0.214223
C29   C     C_R   0.344086 0.688482 0.075939 -0.208140
C30   C     C_R   0.331769 0.613813 0.112323 -0.093850
C31   C     C_R   0.333657 0.638349 0.181762 -0.114694
C32   C     C_R   0.349792 0.739651 0.217385 0.052194
C33   C     C_R   0.360673 0.817151 0.179857 0.034967
C34   C     C_R   0.352917 0.765729 0.288960 0.038149
C35   C     C_R   0.355563 0.868544 0.322244 -0.076257
C36   C     C_R   0.372083 0.942823 0.284547 -0.257337
C37   C     C_R   0.374823 0.919169 0.214559 0.310633
C38   C     C_R   0.355233 0.692494 0.328684 -0.245120
C39   C     C_R   0.352499 0.821341 0.431236 0.364622
C40   C     C_R   0.357638 0.789415 0.108439 -0.083693
H15   H     H_    0.358830 0.613135 0.307246 0.127095
H16   H     H_    0.341690 0.667439 0.021805 0.104619
H17   H     H_    0.319131 0.575588 0.205714 0.121913
H18   H     H_    0.319423 0.535886 0.086438 0.130274
O11   O     O_R   0.203230 0.917310 0.915020 -0.544352
O12   O     O_R   0.535500 0.888690 0.048040 -0.537912
O13   O     O_R   0.711080 0.082610 0.085000 -0.527433
C41   C     C_R   0.366721 0.863155 0.065716 0.801258
O14   O     O_R   0.532630 0.905370 0.913230 -0.553286
O15   O     O_R   0.708190 0.099410 0.949230 -0.540423
C42   C     C_R   0.364261 0.884365 0.886462 0.726731
O16   O     O_R   0.206120 0.900510 0.050790 -0.536521
O17   O     O_3   0.375360 0.063570 0.011990 -0.363447
V3    V     V_3+5 0.648170 0.988200 0.997780 1.455704
O18   O     O_R   0.038240 0.111390 0.951940 -0.543534
C43   C     C_R   0.869652 0.137881 0.935299 0.689329
O19   O     O_R   0.041120 0.094710 0.086750 -0.536557
C44   C     C_R   0.873009 0.113387 0.114090 0.755137
V4    V     V_3+5 0.148810 0.011930 0.002180 1.465454
O20   O     O_3   0.871750 0.936430 0.988010 -0.382547
C45   C     C_2   0.675384 0.359613 0.272525 0.358986
H19   H     H_    0.533334 0.371802 0.294525 0.038762
O21   O     O_2   0.698401 0.371018 0.215471 -0.525298
O22   O     O_3   0.349476 0.852626 0.500143 -0.596665
H20   H     H_    0.361418 0.794369 0.521604 0.281601
O23   O     O_3   0.336403 0.994099 0.427808 -0.614440
H21   H     H_    0.246408 0.029643 0.403394 0.279429
C46   C     C_2   0.877562 0.952859 0.690374 0.387699
H22   H     H_    0.823667 0.898065 0.717603 0.021245
O24   O     O_2   0.959286 0.922763 0.637284 -0.514340
O25   O     O_3   0.391544 0.995674 0.179856 -0.650275
H23   H     H_    0.397465 0.061841 0.211461 0.269306
O26   O     O_3   0.958258 0.408865 0.706240 -0.663331
H24   H     H_    0.960654 0.454212 0.674467 0.281309

loop_
_geom_bond_atom_site_label_1
_geom_bond_atom_site_label_2
_ccdc_geom_bond_type
C45   H19   S    
O11   C42   A    
C1    O6    A    
O18   C43   A    
C31   C32   A    
C28   C39   A    
C6    C16   A    
V4    O20   S    
C8    H5    S    
C15   H6    S    
C12   C13   A    
C36   C37   A    
C14   C15   A    
C10   C12   A    
C19   C21   S    
C27   C35   A    
C33   C40   A    
O5    C3    A    
C7    H3    S    
C32   C34   A    
V2    O10   S    
C40   C41   S    
C30   C31   A    
C14   C46   S    
V3    O20   S    
O11   V4    S    
O8    V2    S    
O19   C44   A    
C26   H13   S    
C9    C10   A    
O1    V2    S    
O14   V3    S    
O13   C44   A    
C11   C18   A    
C21   H8    S    
O9    C4    A    
C22   H9    S    
C46   H22   S    
C23   H10   S    
O25   H23   S    
C24   H11   S    
C11   C15   A    
C39   O22   S    
C19   H7    S    
C7    C18   A    
C5    C13   A    
C38   H15   S    
C4    C6    S    
C10   C11   A    
O12   C41   A    
O15   C43   A    
O4    C2    A    
C29   H16   S    
C32   C33   A    
C22   C44   S    
C16   O26   S    
C34   C35   A    
O2    C1    A    
C19   C20   D    
H14   C36   S    
O26   H24   S    
C9    H4    S    
C29   C30   A    
C46   O24   D    
O14   C42   A    
O3    C4    A    
O16   V4    S    
C25   C26   D    
O19   V4    S    
C12   C16   A    
O6    V2    S    
C30   H18   S    
C45   O21   D    
C5    C17   A    
C27   O23   S    
O2    V1    S    
O17   V4    S    
C29   C40   A    
C23   C24   D    
O7    V1    S    
C21   C22   D    
O1    C2    A    
O15   V3    S    
O5    V1    S    
O8    C3    A    
C18   C43   S    
C20   C45   S    
C33   C37   A    
C1    C26   S    
C34   C38   A    
O9    V2    S    
O7    V2    S    
O4    V1    S    
C37   O25   S    
O3    V1    S    
V1    O10   S    
O22   H20   S    
C28   C38   A    
C25   H12   S    
O23   H21   S    
C5    H2    S    
O13   V3    S    
C3    C20   S    
C35   C36   A    
O17   V3    S    
O12   V3    S    
C41   O16   A    
C13   C14   A    
C8    C9    A    
C24   C42   S    
H1    C17   S    
C2    C28   S    
C31   H17   S    
C7    C8    A    
O18   V4    S    
C27   C39   A    
C23   C25   S    
C6    C17   A    
