data_str_m4_o14_o22_f0_acs.sym.173
_audit_creation_date              2012-12-11T14:23:05-0500
_audit_creation_method            fapswitch 2.2
_symmetry_space_group_name_H-M    P1
_symmetry_Int_Tables_number       1
_space_group_crystal_system       triclinic
_cell_length_a                    11.104169
_cell_length_b                    10.931211
_cell_length_c                    18.840914
_cell_angle_alpha                 89.645703
_cell_angle_beta                  89.467319
_cell_angle_gamma                 59.496736
_cell_volume                      1970.34703549

loop_
_atom_site_label
_atom_site_type_symbol
_atom_type_description
_atom_site_fract_x
_atom_site_fract_y
_atom_site_fract_z
_atom_type_partial_charge
C1    C     C_R   0.235567 0.646042 0.609802 0.572247
C2    C     C_3   0.728901 0.542737 0.799042 -0.200565
C3    C     C_3   0.718103 0.688669 0.807876 0.040279
C4    C     C_3   0.673968 0.652795 0.675137 0.041528
C5    C     C_3   0.805568 0.666755 0.680472 -0.287405
C6    C     C_3   0.695663 0.524885 0.722481 0.013358
C7    C     C_R   0.693230 0.143256 0.819672 0.012878
C8    C     C_R   0.802624 0.142473 0.779712 0.039984
C9    C     C_R   0.798802 0.138465 0.704138 0.040563
C10   C     C_R   0.576720 0.147154 0.710890 -0.140781
C11   C     C_R   0.580467 0.149903 0.783136 -0.129079
C12   C     C_R   0.653082 0.622199 0.601162 0.572983
C13   C     C_R   0.913805 0.148366 0.811732 -0.106140
C14   C     C_R   0.023677 0.137711 0.770793 -0.153194
C15   C     C_R   0.025044 0.122009 0.697590 -0.146716
C16   C     C_R   0.914854 0.120423 0.664499 -0.094216
C17   C     C_R   0.678223 0.153769 0.670383 0.010819
C18   C     C_R   0.183267 0.666451 0.834831 0.002590
C19   C     C_R   0.201714 0.544599 0.799298 0.041581
C20   C     C_R   0.193265 0.545717 0.723970 0.046199
C21   C     C_R   0.189791 0.770007 0.722788 -0.129189
C22   C     C_R   0.185188 0.774086 0.795725 -0.132610
C23   C     C_R   0.631288 0.222394 0.600776 0.569120
C24   C     C_R   0.226452 0.422461 0.837206 -0.076958
C25   C     C_R   0.228073 0.309968 0.802743 -0.143586
C26   C     C_R   0.207155 0.315973 0.730006 -0.144442
C27   C     C_R   0.187596 0.432972 0.690947 -0.090994
C28   C     C_R   0.192129 0.658737 0.685136 0.015568
C29   C     C_R   0.714187 0.696551 0.181280 -0.000809
C30   C     C_R   0.829665 0.612623 0.227544 0.013655
C31   C     C_R   0.805313 0.622757 0.301521 0.025062
C32   C     C_R   0.557483 0.736872 0.278506 -0.149549
C33   C     C_R   0.578745 0.756624 0.208050 -0.131166
C34   C     C_R   0.294525 0.619865 0.393364 0.563650
C35   C     C_R   0.965393 0.508822 0.204230 -0.108174
C36   C     C_R   0.070436 0.427991 0.252669 -0.145497
C37   C     C_R   0.050947 0.460289 0.324282 -0.103482
C38   C     C_R   0.919658 0.561544 0.348616 -0.078039
C39   C     C_R   0.668134 0.675723 0.326258 -0.003129
C40   C     C_R   0.625849 0.177947 0.172654 -0.006827
C41   C     C_R   0.546180 0.140162 0.217432 0.030125
C42   C     C_R   0.576549 0.121945 0.290118 0.015411
C43   C     C_R   0.691183 0.259602 0.275142 -0.158187
C44   C     C_R   0.686493 0.249882 0.201658 -0.182222
C45   C     C_R   0.644033 0.626987 0.394211 0.518000
C46   C     C_R   0.433086 0.126632 0.193378 -0.099385
C47   C     C_R   0.363884 0.082667 0.239262 -0.158623
C48   C     C_R   0.407418 0.048861 0.309158 -0.117186
C49   C     C_R   0.520478 0.056754 0.332784 -0.075458
C50   C     C_R   0.643791 0.188693 0.319892 0.002247
C51   C     C_R   0.139345 0.681797 0.186428 0.012826
C52   C     C_R   0.104402 0.799218 0.231511 0.027082
C53   C     C_R   0.189180 0.779378 0.288818 0.038240
C54   C     C_R   0.298376 0.523205 0.274262 -0.158400
C55   C     C_R   0.244839 0.545722 0.205808 -0.151169
C56   C     C_R   0.616184 0.232557 0.394001 0.518268
C57   C     C_R   0.995889 0.938919 0.217038 -0.067969
C58   C     C_R   0.003596 0.054900 0.240980 -0.111345
C59   C     C_R   0.098096 0.036245 0.292208 -0.148830
C60   C     C_R   0.189217 0.900706 0.316304 -0.092940
C61   C     C_R   0.264886 0.639848 0.317632 -0.003151
C62   C     C_R   0.703696 0.099334 0.894900 0.522058
C63   C     C_R   0.749298 0.707114 0.882401 0.565232
C64   C     C_R   0.120159 0.704552 0.906134 0.535185
C65   C     C_R   0.670344 0.111381 0.102590 0.526814
C66   C     C_R   0.733517 0.715633 0.105676 0.561108
C67   C     C_3   0.570730 0.810878 0.782857 0.114850
C68   C     C_R   0.087588 0.712099 0.114359 0.532742
C69   C     C_3   0.547342 0.791996 0.703973 -0.192790
C70   C     C_3   0.829376 0.691322 0.758557 -0.298527
Cr1   Cr    Cr6+3 0.392940 0.397950 0.502230 1.001099
Cr2   Cr    Cr6+3 0.398400 0.708500 0.501260 0.993899
Cr3   Cr    Cr6+3 0.708640 0.393530 0.496460 1.009019
Cr4   Cr    Cr6+3 0.937880 0.938320 0.007620 1.005081
Cr5   Cr    Cr6+3 0.625560 0.937220 0.994510 1.031079
Cr6   Cr    Cr6+3 0.938080 0.625010 0.001190 0.984615
H1    H     H_    0.569338 0.912328 0.787543 0.154094
H2    H     H_    0.785633 0.424714 0.701769 0.173828
H3    H     H_    0.934773 0.606671 0.775132 0.150780
H4    H     H_    0.898652 0.568578 0.660363 0.133828
H5    H     H_    0.486326 0.151544 0.687004 0.143266
H6    H     H_    0.916354 0.165247 0.867865 0.146433
H7    H     H_    0.495054 0.149650 0.810415 0.154316
H8    H     H_    0.110569 0.135999 0.796549 0.125528
H9    H     H_    0.113758 0.105765 0.666104 0.100759
H10   H     H_    0.923628 0.100667 0.607993 0.127431
H11   H     H_    0.198561 0.852350 0.695846 0.149382
H12   H     H_    0.248966 0.411010 0.893389 0.133668
H13   H     H_    0.178522 0.865374 0.821603 0.172622
H14   H     H_    0.249909 0.216278 0.832653 0.119185
H15   H     H_    0.211064 0.227522 0.703099 0.103573
H16   H     H_    0.164141 0.434173 0.635474 0.127815
H17   H     H_    0.454496 0.764625 0.295048 0.123152
H18   H     H_    0.994017 0.479420 0.149927 0.169010
H19   H     H_    0.489098 0.809666 0.173456 0.149654
H20   H     H_    0.170538 0.346069 0.233663 0.117453
H21   H     H_    0.136331 0.403958 0.361018 0.137347
H22   H     H_    0.448311 0.791320 0.697687 0.185628
H23   H     H_    0.905514 0.582627 0.405086 0.125975
H24   H     H_    0.732897 0.322001 0.296814 0.156920
H25   H     H_    0.387965 0.161402 0.141409 0.140881
H26   H     H_    0.733724 0.294272 0.167479 0.129500
H27   H     H_    0.276222 0.076221 0.219907 0.119832
H28   H     H_    0.353856 0.018835 0.346407 0.097056
H29   H     H_    0.554421 0.024487 0.386881 0.127000
H30   H     H_    0.363870 0.416125 0.293534 0.144520
H31   H     H_    0.911414 0.956743 0.183668 0.160240
H32   H     H_    0.278596 0.456959 0.169927 0.116320
H33   H     H_    0.535483 0.884174 0.672680 0.073782
H34   H     H_    0.941066 0.158961 0.218883 0.120947
H35   H     H_    0.101715 0.126622 0.312757 0.114349
H36   H     H_    0.262481 0.893827 0.354807 0.141433
H37   H     H_    0.825774 0.794637 0.763342 0.108466
H38   H     H_    0.793236 0.756682 0.647057 0.114447
H39   H     H_    0.837105 0.455808 0.811026 0.130547
H40   H     H_    0.659574 0.530496 0.837751 0.171326
O1    O     O_R   0.507340 0.255690 0.581430 -0.515343
O2    O     O_R   0.524510 0.695820 0.424050 -0.540596
O3    O     O_R   0.736370 0.504260 0.414810 -0.525658
O4    O     O_R   0.691220 0.277270 0.422180 -0.507507
O5    O     O_3   0.499990 0.499990 0.499980 -0.253038
O6    O     O_R   0.089570 0.825450 0.930590 -0.509710
O7    O     O_R   0.818700 0.054260 0.929860 -0.510094
O8    O     O_R   0.606310 0.077010 0.915520 -0.534019
O9    O     O_R   0.646730 0.806540 0.917560 -0.439822
O10   O     O_R   0.837290 0.593240 0.915240 -0.527069
O11   O     O_R   0.065320 0.635310 0.931580 -0.524583
O12   O     O_R   0.280360 0.527380 0.578910 -0.491650
O13   O     O_R   0.068470 0.828620 0.091850 -0.517061
O14   O     O_R   0.799150 0.057200 0.079350 -0.517118
O15   O     O_R   0.585220 0.080180 0.076770 -0.537417
O16   O     O_R   0.627170 0.809480 0.067050 -0.487120
O17   O     O_R   0.816200 0.596410 0.076500 -0.533478
O18   O     O_R   0.045770 0.638240 0.081070 -0.538888
O19   O     O_3   0.833840 0.833520 0.001110 -0.286509
O20   O     O_R   0.260600 0.739610 0.584580 -0.522089
O21   O     O_R   0.532370 0.695050 0.573830 -0.496173
O22   O     O_R   0.744850 0.503430 0.576380 -0.524422
O23   O     O_R   0.699080 0.276500 0.571950 -0.490270
O24   O     O_R   0.498860 0.256520 0.419860 -0.545069
O25   O     O_R   0.272490 0.528150 0.429140 -0.507183
O26   O     O_R   0.252110 0.740440 0.423010 -0.537193
O27   O     O_3   0.460464 0.823168 0.825713 -0.704652
H41   H     H_    0.454652 0.736500 0.819485 0.355002
Br1   Br    Br    0.535808 0.497312 0.721465 -0.571878

loop_
_geom_bond_atom_site_label_1
_geom_bond_atom_site_label_2
_ccdc_geom_bond_type
C45   O2    A    
C21   H11   S    
C34   O25   A    
C8    C13   A    
Cr3   O3    S    
C5    H38   S    
Cr6   O10   S    
C41   C42   A    
C35   C36   A    
C67   H1    S    
C1    O12   A    
C14   H8    S    
C67   O27   S    
C37   H21   S    
C65   O14   A    
C7    C8    A    
Cr5   O16   S    
Cr2   O26   S    
C26   C27   A    
C17   C23   S    
C30   C35   A    
C64   O6    A    
C23   O23   A    
C36   C37   A    
C9    C16   A    
C30   C31   A    
Cr2   O5    S    
Cr5   O19   S    
C6    H2    S    
Cr3   O22   S    
C10   C17   A    
C15   C16   A    
C48   H28   S    
C29   C33   A    
C18   C19   A    
C32   C39   A    
C4    C69   S    
C54   C55   A    
C2    H40   S    
C53   C60   A    
C19   C20   A    
C8    C9    A    
C1    C28   S    
C59   H35   S    
C41   C46   A    
C4    C12   S    
C1    O20   A    
C39   C45   S    
C69   H22   S    
C45   O3    A    
Cr4   O7    S    
C59   C60   A    
Cr3   O4    S    
C58   H34   S    
C21   C22   A    
C16   H10   S    
C56   O4    A    
C2    C6    S    
C69   H33   S    
C33   H19   S    
C62   O8    A    
C62   O7    A    
C65   O15   A    
Cr6   O19   S    
Cr5   O15   S    
C54   C61   A    
C66   O16   A    
C70   H37   S    
Cr2   O21   S    
C46   H25   S    
C47   H27   S    
C54   H30   S    
Cr5   O8    S    
C3    C70   S    
C43   H24   S    
C4    C6    S    
C10   C11   A    
C6    Br1   S    
Cr1   O1    S    
C38   H23   S    
C49   H29   S    
Cr3   O23   S    
C11   H7    S    
C26   H15   S    
C13   H6    S    
C34   C61   S    
C50   C56   S    
C15   H9    S    
C51   C52   A    
C67   C69   S    
C7    C11   A    
C43   C44   A    
C7    C62   S    
C37   C38   A    
C60   H36   S    
C66   O17   A    
C2    H39   S    
C36   H20   S    
C47   C48   A    
C14   C15   A    
C48   C49   A    
C64   O11   A    
C32   H17   S    
Cr4   O19   S    
C25   H14   S    
C27   H16   S    
C24   C25   A    
C5    H4    S    
C24   H12   S    
C63   O9    A    
C42   C50   A    
C9    C17   A    
C40   C41   A    
Cr4   O6    S    
C21   C28   A    
Cr3   O5    S    
C40   C65   S    
Cr4   O14   S    
C12   O22   A    
Cr1   O12   S    
C58   C59   A    
C53   C61   A    
C52   C53   A    
C35   H18   S    
C46   C47   A    
C34   O26   A    
Cr6   O18   S    
C57   H31   S    
C70   H3    S    
C18   C22   A    
Cr1   O5    S    
C3    C67   S    
C4    C5    S    
C5    C70   S    
C23   O1    A    
Cr6   O17   S    
C43   C50   A    
Cr1   O24   S    
C20   C27   A    
C3    C63   S    
C20   C28   A    
C10   H5    S    
C31   C38   A    
Cr1   O25   S    
C55   H32   S    
C32   C33   A    
C68   O18   A    
C2    C3    S    
C25   C26   A    
C18   C64   S    
C57   C58   A    
C56   O24   A    
C22   H13   S    
C31   C39   A    
C19   C24   A    
C51   C55   A    
C51   C68   S    
C68   O13   A    
C63   O10   A    
Cr2   O20   S    
C52   C57   A    
C42   C49   A    
C29   C30   A    
C29   C66   S    
C40   C44   A    
Cr4   O13   S    
Cr2   O2    S    
Cr6   O11   S    
C12   O21   A    
Cr5   O9    S    
C13   C14   A    
O27   H41   S    
C44   H26   S    
