data_str_m9_o4_o18_f0_sra.sym.89
_audit_creation_date              2012-12-11T17:02:22-0500
_audit_creation_method            fapswitch 2.2
_symmetry_space_group_name_H-M    P1
_symmetry_Int_Tables_number       1
_space_group_crystal_system       triclinic
_cell_length_a                    21.656712
_cell_length_b                    7.068359
_cell_length_c                    14.826867
_cell_angle_alpha                 90.000089
_cell_angle_beta                  105.948468
_cell_angle_gamma                 89.999936
_cell_volume                      2182.29754182

loop_
_atom_site_label
_atom_site_type_symbol
_atom_type_description
_atom_site_fract_x
_atom_site_fract_y
_atom_site_fract_z
_atom_type_partial_charge
O1    O     O_R   0.585850 0.505770 0.002130 -0.537177
O2    O     O_R   0.414150 0.005770 0.997870 -0.537177
O3    O     O_R   0.467530 0.173560 0.861970 -0.538179
O4    O     O_R   0.532470 0.673560 0.138030 -0.538179
C1    C     C_R   0.455467 0.344356 0.825309 0.685130
C2    C     C_R   0.544533 0.844356 0.174691 0.685130
O5    O     O_R   0.588690 0.175900 0.993250 -0.544801
O6    O     O_R   0.411310 0.675900 0.006750 -0.544801
O7    O     O_R   0.536170 0.007950 0.130090 -0.537154
O8    O     O_R   0.463830 0.507950 0.869910 -0.537154
C3    C     C_R   0.615115 0.344677 0.997938 0.689670
C4    C     C_R   0.384885 0.844677 0.002062 0.689670
O9    O     O_3   0.482630 0.339970 0.044740 -0.373326
O10   O     O_3   0.517370 0.839970 0.955260 -0.373325
V1    V     V_3+5 0.503220 0.064200 0.991700 1.408650
V2    V     V_3+5 0.496780 0.564200 0.008300 1.408650
C5    C     C_R   0.277351 0.008375 0.958886 0.112546
C6    C     C_R   0.722649 0.508375 0.041114 0.112546
C7    C     C_R   0.315615 0.852808 0.997851 -0.109936
C8    C     C_R   0.684385 0.352807 0.002149 -0.109936
C9    C     C_R   0.284839 0.700408 0.028908 -0.190423
C10   C     C_R   0.715161 0.200408 0.971092 -0.190423
H1    H     H_    0.311991 0.576391 0.058734 0.138167
H2    H     H_    0.688009 0.076391 0.941265 0.138167
C11   C     C_R   0.219622 0.711714 0.027729 -0.169026
C12   C     C_R   0.780378 0.211714 0.972271 -0.169027
H3    H     H_    0.198637 0.595245 0.056265 0.139729
H4    H     H_    0.801364 0.095245 0.943735 0.139734
C13   C     C_R   0.183157 0.876161 0.995817 -0.107810
C14   C     C_R   0.816843 0.376161 0.004183 -0.107811
C15   C     C_R   0.212957 0.019988 0.958108 0.100929
C16   C     C_R   0.787043 0.519988 0.041892 0.100930
C17   C     C_3   0.217947 0.226262 0.979592 -0.416862
C18   C     C_3   0.782053 0.726262 0.020409 -0.416863
C19   C     C_3   0.288078 0.213779 0.979973 -0.403042
C20   C     C_3   0.711922 0.713779 0.020027 -0.403041
H5    H     H_    0.211261 0.258172 0.049739 0.164532
H6    H     H_    0.788738 0.758172 0.950261 0.164532
H7    H     H_    0.188402 0.312644 0.920793 0.175320
H8    H     H_    0.811597 0.812644 0.079207 0.175320
H9    H     H_    0.322034 0.239150 0.050205 0.169895
H10   H     H_    0.677965 0.739150 0.949795 0.169895
H11   H     H_    0.298934 0.292410 0.921191 0.166264
H12   H     H_    0.701065 0.792409 0.078809 0.166264
C21   C     C_R   0.926612 0.881423 0.723376 -0.061913
C22   C     C_R   0.073388 0.381426 0.276624 -0.061915
C23   C     C_R   0.572688 0.850736 0.276119 -0.027597
C24   C     C_R   0.427312 0.350738 0.723881 -0.027596
C25   C     C_R   0.939234 0.820128 0.568554 0.221810
C26   C     C_R   0.060766 0.320125 0.431446 0.221812
C27   C     C_R   0.965071 0.830649 0.665863 -0.256342
C28   C     C_R   0.034929 0.330642 0.334136 -0.256340
C29   C     C_R   0.860720 0.915297 0.685251 0.135020
C30   C     C_R   0.139278 0.415316 0.314749 0.135020
C31   C     C_R   0.831278 0.872904 0.588686 -0.004461
C32   C     C_R   0.168722 0.372921 0.411314 -0.004463
C33   C     C_R   0.872209 0.841831 0.529546 0.093436
C34   C     C_R   0.127790 0.341837 0.470454 0.093437
C35   C     C_R   0.763237 0.857951 0.548669 0.073567
C36   C     C_R   0.236763 0.357974 0.451331 0.073566
C37   C     C_R   0.737024 0.857047 0.449170 0.068400
C38   C     C_R   0.262976 0.357059 0.550830 0.068400
C39   C     C_R   0.779774 0.846597 0.392753 -0.205966
C40   C     C_R   0.220225 0.346599 0.607247 -0.205967
C41   C     C_R   0.845518 0.831441 0.432293 -0.171662
C42   C     C_R   0.154482 0.331442 0.567706 -0.171660
C43   C     C_R   0.721260 0.824052 0.604733 -0.204426
C44   C     C_R   0.278740 0.324090 0.395265 -0.204425
C45   C     C_R   0.655275 0.813961 0.566314 -0.208037
C46   C     C_R   0.344725 0.314003 0.433684 -0.208035
C47   C     C_R   0.628510 0.831450 0.469929 0.141989
C48   C     C_R   0.371491 0.331479 0.530070 0.141988
C49   C     C_R   0.668882 0.853865 0.409683 0.083334
C50   C     C_R   0.331118 0.353878 0.590317 0.083334
C51   C     C_R   0.561605 0.818828 0.432936 -0.166040
C52   C     C_R   0.438395 0.318859 0.567063 -0.166039
C53   C     C_R   0.533962 0.825893 0.336441 -0.177014
C54   C     C_R   0.466038 0.325912 0.663558 -0.177015
C55   C     C_R   0.639269 0.867995 0.312133 -0.213364
C56   C     C_R   0.360730 0.367994 0.687868 -0.213360
H13   H     H_    0.875425 0.811861 0.385288 0.149554
H14   H     H_    0.124575 0.311854 0.614711 0.149558
H15   H     H_    0.666414 0.890896 0.262070 0.093446
H16   H     H_    0.333586 0.390883 0.737932 0.093444
H17   H     H_    0.482422 0.810890 0.308708 0.104325
H18   H     H_    0.517579 0.310913 0.691291 0.104324
H19   H     H_    0.625009 0.788595 0.612434 0.123219
H20   H     H_    0.374993 0.288651 0.387563 0.123218
H21   H     H_    0.015916 0.806267 0.696867 0.113035
H22   H     H_    0.984085 0.306251 0.303132 0.113036
H23   H     H_    0.763771 0.836614 0.317413 0.121863
H24   H     H_    0.236228 0.336611 0.682587 0.121863
H25   H     H_    0.738760 0.793646 0.678469 0.135196
H26   H     H_    0.261241 0.293694 0.321529 0.135194
H27   H     H_    0.530733 0.799507 0.478690 0.118430
H28   H     H_    0.469268 0.299553 0.521307 0.118429
O11   O     O_R   0.036080 0.231270 0.130120 -0.546227
O12   O     O_R   0.963920 0.731270 0.869880 -0.546227
O13   O     O_R   0.911300 0.558970 0.006750 -0.544021
O14   O     O_R   0.088700 0.058970 0.993250 -0.544021
C57   C     C_R   0.884780 0.389900 0.001572 0.694164
C58   C     C_R   0.115220 0.889900 0.998428 0.694166
O15   O     O_R   0.032450 0.561140 0.138040 -0.527065
O16   O     O_R   0.967550 0.061140 0.861960 -0.527068
O17   O     O_R   0.085870 0.728910 0.002130 -0.538189
O18   O     O_R   0.914130 0.228910 0.997870 -0.538189
C59   C     C_R   0.044791 0.392354 0.175084 0.741287
C60   C     C_R   0.955209 0.892354 0.824916 0.741291
O19   O     O_3   0.017320 0.394650 0.955270 -0.375423
O20   O     O_3   0.982680 0.894650 0.044730 -0.375422
V3    V     V_3+5 0.996780 0.670490 0.008300 1.431711
V4    V     V_3+5 0.003220 0.170490 0.991700 1.431709
N1    N     N_3   0.980525 0.780661 0.509563 -0.682498
H29   H     H_    0.027622 0.756390 0.550055 0.232084
H30   H     H_    0.982190 0.902086 0.470150 0.246185
N2    N     N_3   0.019475 0.280653 0.490436 -0.682501
H31   H     H_    0.972379 0.256364 0.449945 0.232078
H32   H     H_    0.017805 0.402082 0.529845 0.246191
N3    N     N_3   0.828184 0.017392 0.742700 -0.680919
H33   H     H_    0.789028 0.094003 0.702376 0.244345
H34   H     H_    0.814606 0.923958 0.788435 0.201659
N4    N     N_3   0.171813 0.517427 0.257303 -0.680912
H35   H     H_    0.210967 0.594041 0.297629 0.244345
H36   H     H_    0.185393 0.424005 0.211565 0.201657

loop_
_geom_bond_atom_site_label_1
_geom_bond_atom_site_label_2
_ccdc_geom_bond_type
C25   N1    S    
C39   C41   A    
C31   C35   A    
C20   H10   S    
O1    C3    A    
C23   C55   A    
C56   H16   S    
C46   H20   S    
C2    O7    A    
C51   H27   S    
O18   V4    S    
O5    C3    A    
C17   H7    S    
C18   H8    S    
O15   V3    S    
C7    C9    A    
C52   C54   A    
N1    H29   S    
O19   V3    S    
C17   C19   S    
C21   C27   A    
C22   C28   A    
C25   C33   A    
N2    H31   S    
C14   C57   S    
C58   O17   A    
C36   C38   A    
C24   C54   A    
C45   C47   A    
O20   V3    S    
C38   C40   A    
C35   C43   A    
C28   H22   S    
C34   C42   A    
N2    H32   S    
C25   C27   A    
C26   C28   A    
C15   C17   S    
C14   C16   A    
C19   H11   S    
C6    C8    A    
C45   H19   S    
C21   C60   S    
C48   C52   A    
C54   H18   S    
C29   C31   A    
C30   N4    S    
C53   H17   S    
O6    V2    S    
C50   C56   A    
O20   V4    S    
N3    H34   S    
C11   C13   A    
C1    C24   S    
C30   C32   A    
C3    C8    S    
C47   C51   A    
C35   C37   A    
C2    C23   S    
C26   C34   A    
C48   C50   A    
O19   V4    S    
O16   V4    S    
O11   V4    S    
C37   C49   A    
C17   H5    S    
C32   C36   A    
C43   C45   A    
C40   C42   A    
O4    V2    S    
C42   H14   S    
C41   H13   S    
O6    C4    A    
O13   V3    S    
C22   C59   S    
C22   C30   A    
C26   N2    S    
O14   C58   A    
C49   C55   A    
O1    V2    S    
O2    V1    S    
C51   C53   A    
O4    C2    A    
O13   C57   A    
C8    C10   A    
O14   V4    S    
C31   C33   A    
C5    C15   A    
C10   H2    S    
C20   H12   S    
C6    C16   A    
C23   C53   A    
N4    H36   S    
O16   C60   A    
O3    V1    S    
C47   C49   A    
O2    C4    A    
C57   O18   A    
C9    C11   A    
O12   V3    S    
C18   H6    S    
O12   C60   A    
C37   C39   A    
C33   C41   A    
O3    C1    A    
C46   C48   A    
N3    H33   S    
C29   N3    S    
C12   C14   A    
C11   H3    S    
C12   H4    S    
C24   C56   A    
C9    H1    S    
O7    V1    S    
C1    O8    A    
C13   C15   A    
O8    V2    S    
C52   H28   S    
C55   H15   S    
C4    C7    S    
O5    V1    S    
C5    C7    A    
C32   C34   A    
C13   C58   S    
C18   C20   S    
O17   V3    S    
C19   H9    S    
C44   H26   S    
C21   C29   A    
O11   C59   A    
C36   C44   A    
C44   C46   A    
C10   C12   A    
O9    V2    S    
C39   H23   S    
C43   H25   S    
C40   H24   S    
O10   V1    S    
C38   C50   A    
O15   C59   A    
C5    C19   S    
N4    H35   S    
C6    C20   S    
C27   H21   S    
C16   C18   S    
N1    H30   S    
