data_str_m2_o10_o17_f0_pcu.sym.106
_audit_creation_date              2013-03-05T15:40:33-0500
_audit_creation_method            fapswitch 2.2
_symmetry_space_group_name_H-M    P1
_symmetry_Int_Tables_number       1
_space_group_crystal_system       triclinic
_cell_length_a                    14.957835
_cell_length_b                    8.759898
_cell_length_c                    7.446168
_cell_angle_alpha                 102.749936
_cell_angle_beta                  94.117187
_cell_angle_gamma                 92.646259
_cell_volume                      947.221056384

loop_
_atom_site_label
_atom_site_type_symbol
_atom_site_description
_atom_site_fract_x
_atom_site_fract_y
_atom_site_fract_z
_atom_type_partial_charge
O1    O     O_R   0.506510 0.286130 0.619770 -0.572980
O2    O     O_R   0.493490 0.713870 0.380230 -0.572979
O3    O     O_R   0.489600 0.256770 0.308360 -0.520976
O4    O     O_R   0.510400 0.743230 0.691640 -0.520976
C1    C     C_R   0.497742 0.200525 0.454006 0.809365
C2    C     C_R   0.502257 0.799475 0.545994 0.809362
O5    O     O_R   0.378710 0.514640 0.655720 -0.580663
O6    O     O_R   0.621290 0.485360 0.344280 -0.580664
O7    O     O_R   0.361800 0.485290 0.344300 -0.573299
O8    O     O_R   0.638200 0.514710 0.655700 -0.573299
C3    C     C_R   0.329097 0.499309 0.502391 0.794265
C4    C     C_R   0.670903 0.500691 0.497609 0.794264
Cu1   Cu    Cu3+1 0.510010 0.517380 0.684380 1.079010
Cu2   Cu    Cu3+1 0.489990 0.482620 0.315620 1.079010
C5    C     C_R   0.819614 0.635584 0.582186 -0.133173
C6    C     C_R   0.180386 0.364415 0.417814 -0.133172
C7    C     C_R   0.767043 0.501133 0.493133 -0.070434
C8    C     C_R   0.232956 0.498867 0.506867 -0.070434
C9    C     C_R   0.805928 0.365338 0.407031 -0.154951
C10   C     C_R   0.194072 0.634662 0.592969 -0.154950
C11   C     C_R   0.899551 0.360333 0.414092 -0.002373
C12   C     C_R   0.100449 0.639667 0.585907 -0.002373
C13   C     C_R   0.953085 0.499196 0.499104 0.019226
C14   C     C_R   0.046915 0.500804 0.500896 0.019226
C15   C     C_R   0.912654 0.636708 0.582777 0.064996
C16   C     C_R   0.087346 0.363292 0.417223 0.064996
C17   C     C_R   0.941114 0.221810 0.336235 0.321186
C18   C     C_R   0.058886 0.778189 0.663765 0.321186
C19   C     C_R   0.034657 0.226021 0.335872 -0.179049
C20   C     C_R   0.965343 0.773979 0.664128 -0.179049
H1    H     H_    0.787689 0.739782 0.648192 0.164149
H2    H     H_    0.212310 0.260218 0.351808 0.164150
H3    H     H_    0.762298 0.264538 0.337081 0.203227
H4    H     H_    0.237702 0.735462 0.662919 0.203227
H5    H     H_    0.066613 0.120056 0.276373 0.215135
H6    H     H_    0.933387 0.879944 0.723627 0.215134
C21   C     C_2   0.503363 0.034835 0.428281 0.035149
C22   C     C_2   0.496634 0.965165 0.571718 0.035147
N1    N     N_2   0.474890 0.456420 0.038520 -0.179353
N2    N     N_2   0.525110 0.543580 0.961480 -0.179353
H7    H     H_    0.428329 0.381366 0.949179 0.268108
H8    H     H_    0.571671 0.618634 0.050821 0.268106
N3    N     N_R   0.890254 0.075095 0.263174 0.128935
O9    O     O_R   0.832794 0.022961 0.362194 -0.349088
O10   O     O_R   0.913797 0.980043 0.116237 -0.333257
N4    N     N_R   0.109746 0.924905 0.736826 0.128935
O11   O     O_R   0.167206 0.977040 0.637806 -0.349085
O12   O     O_R   0.086204 0.019956 0.883764 -0.333257
N5    N     N_R   0.521970 0.950395 0.247881 0.140439
O13   O     O_R   0.456766 0.907311 0.118491 -0.270972
O14   O     O_R   0.604738 0.934453 0.207664 -0.322620
N6    N     N_R   0.478027 0.049604 0.752117 0.140438
O15   O     O_R   0.543229 0.092681 0.881513 -0.270967
O16   O     O_R   0.395258 0.065555 0.792328 -0.322624

loop_
_geom_bond_atom_site_label_1
_geom_bond_atom_site_label_2
_geom_bond_distance
_ccdc_geom_bond_type
C4    C7    1.440677 S    
N3    O9    1.301653 A    
C2    C22   1.428736 S    
C3    C8    1.440677 S    
C5    H1    1.085656 S    
C21   C22   1.349374 D    
C1    C21   1.428735 S    
C17   C19   1.398194 A    
O7    C3    1.290164 A    
C19   H5    1.084556 S    
O5    Cu1   1.958692 S    
O6    C4    1.293724 A    
C10   H4    1.082520 S    
N5    O14   1.301018 A    
C18   C20   1.398193 A    
C11   C17   1.416315 A    
N1    H7    1.028589 S    
C12   C18   1.416314 A    
Cu1   Cu2   2.688223 S    
O5    C3    1.293724 A    
N3    O10   1.301803 A    
C18   N4    1.438107 S    
O2    C2    1.289252 A    
O3    Cu2   1.966925 S    
O8    C4    1.290164 A    
O1    C1    1.289251 A    
C22   N6    1.436359 S    
C6    C8    1.392869 A    
C9    C11   1.400686 A    
N6    O16   1.301019 A    
C8    C10   1.394690 A    
C13   C15   1.412472 A    
C11   C13   1.420909 A    
C6    C16   1.390942 A    
O2    Cu2   1.973369 S    
C12   C14   1.420910 A    
C5    C15   1.390942 A    
O1    Cu1   1.973369 S    
C10   C12   1.400686 A    
C13   C14   1.401990 A    
N1    N2    1.295587 D    
N4    O12   1.301803 A    
C17   N3    1.438107 S    
O4    Cu1   1.966925 S    
C21   N5    1.436358 S    
N6    O15   1.300971 A    
C16   C19   1.398729 A    
O4    C2    1.286919 A    
N5    O13   1.300967 A    
C9    H3    1.082519 S    
C15   C20   1.398730 A    
C5    C7    1.392869 A    
O7    Cu2   1.945116 S    
C6    H2    1.085655 S    
Cu1   N2    2.019975 S    
O6    Cu2   1.958692 S    
C7    C9    1.394689 A    
Cu2   N1    2.019975 S    
N4    O11   1.301654 A    
C14   C16   1.412472 A    
N2    H8    1.028588 S    
O3    C1    1.286918 A    
O8    Cu1   1.945116 S    
C20   H6    1.084556 S    
