data_str_m12_o4_o9_f0_bcu.sym.23
_audit_creation_date              2012-12-11T17:10:30-0500
_audit_creation_method            fapswitch 2.2
_symmetry_space_group_name_H-M    P1
_symmetry_Int_Tables_number       1
_space_group_crystal_system       triclinic
_cell_length_a                    14.91473
_cell_length_b                    15.015808
_cell_length_c                    14.804372
_cell_angle_alpha                 108.636539
_cell_angle_beta                  109.872567
_cell_angle_gamma                 109.142389
_cell_volume                      2575.80230862

loop_
_atom_site_label
_atom_site_type_symbol
_atom_type_description
_atom_site_fract_x
_atom_site_fract_y
_atom_site_fract_z
_atom_type_partial_charge
C1    C     C_R   0.186881 0.279931 0.253495 -0.140567
C2    C     C_R   0.393319 0.478482 0.187818 -0.047939
C3    C     C_R   0.554992 0.814566 0.589012 -0.129817
C4    C     C_R   0.525437 0.432644 0.746905 -0.147064
C5    C     C_R   0.725783 0.471804 0.410135 -0.090444
C6    C     C_R   0.534687 0.826004 0.495101 -0.007806
C7    C     C_R   0.829473 0.546543 0.504068 0.043934
C8    C     C_R   0.427152 0.421177 0.127153 0.059506
C9    C     C_R   0.805419 0.806153 0.856832 0.080868
C10   C     C_R   0.094414 0.631673 0.191007 -0.042247
C11   C     C_R   0.103006 0.643275 0.291654 -0.126744
C12   C     C_R   0.451631 0.449126 0.777040 0.072009
C13   C     C_R   0.025192 0.562318 0.294899 0.089156
C14   C     C_R   0.939785 0.469086 0.195992 -0.168328
C15   C     C_R   0.932490 0.457247 0.095773 -0.107471
C16   C     C_R   0.518483 0.211424 0.411816 -0.160437
C17   C     C_R   0.009580 0.538560 0.093212 -0.117381
C18   C     C_R   0.934221 0.569124 0.406924 -0.221986
C19   C     C_R   0.935327 0.593915 0.507239 0.067769
C20   C     C_R   0.038541 0.654367 0.605432 0.032784
C21   C     C_R   0.131289 0.665746 0.598126 -0.226407
C22   C     C_R   0.123458 0.613720 0.496886 0.046729
C23   C     C_R   0.580465 0.207733 0.502197 0.098345
C24   C     C_R   0.028196 0.579775 0.400451 0.035587
C25   C     C_R   0.060022 0.796548 0.768841 -0.169777
C26   C     C_R   0.079620 0.838174 0.876821 -0.051553
C27   C     C_R   0.094286 0.780974 0.933817 -0.091720
C28   C     C_R   0.293501 0.599802 0.588818 -0.136178
C29   C     C_R   0.092534 0.683701 0.884304 -0.134112
C30   C     C_R   0.074849 0.642677 0.777154 -0.116979
C31   C     C_R   0.056185 0.697830 0.718062 0.084054
C32   C     C_R   0.448478 0.341445 0.874967 0.154804
C33   C     C_R   0.405664 0.398263 0.831960 0.030300
C34   C     C_R   0.202405 0.574947 0.496496 0.065999
C35   C     C_R   0.331121 0.420397 0.859674 -0.182869
C36   C     C_R   0.323774 0.411967 0.948792 -0.175046
C37   C     C_R   0.391110 0.381450 0.010038 0.031190
C38   C     C_R   0.441312 0.333180 0.962809 0.179091
C39   C     C_3   0.552592 0.343653 0.012480 -0.509668
C40   C     C_R   0.599835 0.293470 0.592451 -0.108457
C41   C     C_3   0.560441 0.352609 0.916709 -0.516249
C42   C     C_R   0.537949 0.933891 0.394799 0.212459
C43   C     C_R   0.577481 0.928274 0.492216 0.030297
C44   C     C_R   0.660642 0.025832 0.588888 -0.260976
C45   C     C_R   0.465504 0.722140 0.405948 -0.021864
C46   C     C_R   0.682818 0.126076 0.591638 -0.101204
C47   C     C_R   0.616005 0.126349 0.496899 -0.029741
C48   C     C_R   0.559907 0.031128 0.396746 0.162024
C49   C     C_3   0.452653 0.982254 0.294665 -0.469919
C50   C     C_3   0.426368 0.878015 0.296055 -0.603021
C51   C     C_R   0.050278 0.985072 0.131568 0.253930
C52   C     C_R   0.201668 0.507391 0.407004 -0.126175
C53   C     C_R   0.073392 0.084551 0.135999 0.028638
C54   C     C_R   0.010971 0.090551 0.045321 -0.195700
C55   C     C_R   0.921809 0.998190 0.954425 -0.203154
C56   C     C_R   0.814188 0.561222 0.593727 -0.099211
C57   C     C_R   0.895148 0.899477 0.953612 0.034045
C58   C     C_R   0.961787 0.892388 0.040081 0.091150
C59   C     C_3   0.931871 0.844923 0.106873 -0.490089
C60   C     C_3   0.029279 0.947481 0.207903 -0.479950
C61   C     C_R   0.435758 0.526394 0.751194 -0.110790
C62   C     C_R   0.277496 0.186470 0.240975 -0.040750
C63   C     C_R   0.175484 0.177819 0.219274 -0.021527
C64   C     C_2   0.775582 0.226573 0.691895 0.987957
C65   C     C_2   0.465873 0.979503 0.196541 1.140817
C66   C     C_2   0.298933 0.106630 0.177369 0.919506
C67   C     C_R   0.495075 0.401096 0.196434 -0.122568
C68   C     C_2   0.425852 0.689351 0.290506 0.935730
C69   C     C_R   0.710322 0.802184 0.797372 -0.142211
C70   C     C_R   0.803062 0.711739 0.801172 -0.148189
H1    H     H_    0.122648 0.300988 0.241511 0.118214
H2    H     H_    0.153010 0.695303 0.188703 0.124894
H3    H     H_    0.168509 0.716440 0.366664 0.112693
H4    H     H_    0.552253 0.374752 0.749478 0.108693
H5    H     H_    0.878630 0.405898 0.196459 0.125254
H6    H     H_    0.866213 0.385532 0.020050 0.134284
H7    H     H_    0.859475 0.538017 0.332489 0.123472
H8    H     H_    0.207552 0.705677 0.673908 0.135668
H9    H     H_    0.047871 0.840839 0.724941 0.125408
H10   H     H_    0.082757 0.914385 0.916000 0.131628
H11   H     H_    0.107327 0.811803 0.016524 0.149809
H12   H     H_    0.871366 0.610537 0.679254 0.123303
H13   H     H_    0.105069 0.640247 0.929059 0.112087
H14   H     H_    0.073876 0.567278 0.739444 0.129721
H15   H     H_    0.289444 0.456996 0.822877 0.131107
H16   H     H_    0.510168 0.175217 0.331991 0.151052
H17   H     H_    0.277355 0.443398 0.977501 0.126337
H18   H     H_    0.613577 0.419339 0.091554 0.198299
H19   H     H_    0.549196 0.268690 0.012824 0.208023
H20   H     H_    0.625613 0.433264 0.942495 0.205128
H21   H     H_    0.561670 0.282780 0.861947 0.198935
H22   H     H_    0.705016 0.024507 0.662981 0.173954
H23   H     H_    0.518591 0.340369 0.173022 0.143095
H24   H     H_    0.394045 0.008713 0.305380 0.186100
H25   H     H_    0.359484 0.851457 0.315245 0.212756
H26   H     H_    0.328470 0.660556 0.672443 0.097990
H27   H     H_    0.415098 0.817418 0.220631 0.233068
H28   H     H_    0.032524 0.165975 0.043423 0.146083
H29   H     H_    0.874463 0.003698 0.884399 0.147057
H30   H     H_    0.851844 0.834410 0.099382 0.212181
H31   H     H_    0.942023 0.772541 0.094242 0.193574
H32   H     H_    0.006207 0.997137 0.259299 0.199779
H33   H     H_    0.095496 0.934205 0.253785 0.200909
H34   H     H_    0.681577 0.857583 0.823937 0.107520
H35   H     H_    0.655411 0.323144 0.677616 0.109471
H36   H     H_    0.150127 0.480488 0.321666 0.121725
H37   H     H_    0.382137 0.557527 0.761787 0.101070
H38   H     H_    0.880381 0.300620 0.854482 0.311926
H39   H     H_    0.312210 0.857371 0.087094 0.306686
H40   H     H_    0.373932 0.077636 0.089542 0.351159
H41   H     H_    0.295284 0.625902 0.141700 0.303337
H42   H     H_    0.860090 0.685180 0.832191 0.111408
H43   H     H_    0.318585 0.480213 0.151271 0.114892
H44   H     H_    0.604201 0.878131 0.673274 0.108038
H45   H     H_    0.705752 0.440020 0.325234 0.092195
H46   H     H_    0.003167 0.529745 0.015439 0.105666
N1    N     N_R   0.291070 0.347930 0.293870 -0.053611
N2    N     N_R   0.497240 0.291100 0.443210 -0.051210
N3    N     N_R   0.347890 0.554050 0.556810 -0.042681
N4    N     N_R   0.554050 0.347900 0.556830 -0.049119
N5    N     N_R   0.291070 0.497250 0.443190 -0.043874
N6    N     N_R   0.497240 0.554030 0.706140 -0.042469
N7    N     N_R   0.347890 0.291110 0.293870 -0.056909
N8    N     N_R   0.445950 0.652100 0.443170 -0.072993
N9    N     N_R   0.708930 0.502750 0.556810 -0.042851
N10   N     N_R   0.502760 0.445970 0.293860 -0.046415
N11   N     N_R   0.652110 0.708890 0.706130 -0.039597
N12   N     N_R   0.708930 0.652070 0.706130 -0.043843
N13   N     N_R   0.445950 0.502780 0.293850 -0.058652
N14   N     N_R   0.502760 0.708900 0.556790 -0.049303
N15   N     N_R   0.652110 0.445950 0.443190 -0.039654
N16   N     N_R   0.554050 0.497220 0.706150 -0.042967
Ni1   Ni    Ni4+2 0.369690 0.500010 0.369700 0.232096
Ni2   Ni    Ni4+2 0.630310 0.499990 0.630300 0.225789
Ni3   Ni    Ni4+2 0.500000 0.369720 0.369720 0.250325
Ni4   Ni    Ni4+2 0.500000 0.630280 0.630280 0.214098
O1    O     O_2   0.821033 0.306623 0.685428 -0.658099
O2    O     O_R   0.814631 0.228553 0.793188 -0.825753
O3    O     O_2   0.552362 0.042089 0.210298 -0.612642
O4    O     O_R   0.379918 0.905347 0.089370 -0.772806
O5    O     O_2   0.251681 0.012490 0.154284 -0.710222
O6    O     O_R   0.372013 0.139784 0.140587 -0.818354
O7    O     O_2   0.490668 0.704103 0.256500 -0.641356
O8    O     O_R   0.313731 0.642693 0.219824 -0.846967

loop_
_geom_bond_atom_site_label_1
_geom_bond_atom_site_label_2
_ccdc_geom_bond_type
N9    Ni2   S    
C25   C31   A    
C6    C45   A    
C27   C29   A    
C3    N14   A    
C35   H15   S    
C35   C36   A    
C3    C6    A    
N1    Ni1   S    
C4    N16   A    
C66   O5    D    
C64   O2    S    
C53   C54   A    
C26   C27   A    
C37   C38   A    
C49   C65   S    
N8    Ni1   S    
H39   O4    S    
C18   C24   A    
C7    C56   A    
C36   C37   A    
C9    C69   A    
C29   H13   S    
N15   Ni3   S    
C30   C31   A    
C2    H43   S    
C50   H25   S    
C10   C17   A    
C23   C40   A    
C30   H14   S    
C16   N2    A    
C2    N13   A    
C68   O7    D    
C18   C19   A    
H40   O6    S    
C53   C63   S    
C46   C47   A    
C65   O4    S    
C19   C20   A    
C21   H8    S    
C32   C41   S    
C32   C38   A    
C49   H24   S    
C4    C12   A    
C60   H33   S    
C4    H4    S    
C44   H22   S    
C15   H6    S    
C52   H36   S    
C59   C60   S    
C36   H17   S    
C13   C14   A    
C5    H45   S    
C16   H16   S    
C59   H30   S    
C39   H18   S    
C60   H32   S    
C1    C63   A    
N6    N16   A    
C62   N7    A    
C44   C46   A    
C64   O1    D    
N3    N5    A    
C45   N8    A    
C22   C34   S    
N14   Ni4   S    
C23   C47   S    
C62   C66   S    
C59   H31   S    
C27   H11   S    
C9    C70   A    
C9    C57   S    
C39   C41   S    
C11   H3    S    
C67   N10   A    
C5    C7    A    
C42   C48   A    
N10   N13   A    
C25   C26   A    
C28   N3    A    
C26   H10   S    
C13   C24   S    
C46   C64   S    
C61   N6    A    
C51   C53   A    
C43   C44   A    
C62   C63   A    
N12   Ni2   S    
C52   N5    A    
N9    N15   A    
C47   C48   A    
C45   C68   S    
N8    N14   A    
C51   C58   A    
C1    N1    A    
C56   N9    A    
N11   Ni4   S    
N6    Ni4   S    
C70   H42   S    
H41   O8    S    
C42   C50   S    
N13   Ni1   S    
C48   C49   S    
C41   H21   S    
N10   Ni3   S    
C16   C23   A    
C7    C19   S    
C6    C43   S    
C55   C57   A    
C22   C24   A    
C8    C37   S    
C55   H29   S    
N11   N12   A    
C69   H34   S    
C70   N12   A    
C15   C17   A    
C54   C55   A    
C50   H27   S    
C40   N4    A    
C25   H9    S    
C2    C8    A    
C3    H44   S    
C56   H12   S    
C66   O6    S    
C34   C52   A    
N3    Ni4   S    
C28   H26   S    
C14   H5    S    
C58   C59   S    
C32   C33   A    
H38   O2    S    
C12   C61   A    
C11   C13   A    
C57   C58   A    
C38   C39   S    
C1    H1    S    
C18   H7    S    
C33   C35   A    
C68   O8    S    
N4    Ni2   S    
C28   C34   A    
N1    N7    A    
C61   H37   S    
N2    N4    A    
C10   C11   A    
C29   C30   A    
C65   O3    D    
C5    N15   A    
C20   C21   A    
C69   N11   A    
C8    C67   A    
N16   Ni2   S    
C49   C50   S    
C42   C43   A    
N7    Ni3   S    
C67   H23   S    
C14   C15   A    
C54   H28   S    
C51   C60   S    
N5    Ni1   S    
C12   C33   S    
C21   C22   A    
C39   H19   S    
N2    Ni3   S    
C17   H46   S    
C41   H20   S    
C40   H35   S    
C20   C31   S    
C10   H2    S    
