data_str_m12_o1_o9_f0_bcu.sym.27
_audit_creation_date              2013-03-05T15:46:53-0500
_audit_creation_method            fapswitch 2.2
_symmetry_space_group_name_H-M    P1
_symmetry_Int_Tables_number       1
_space_group_crystal_system       triclinic
_cell_length_a                    14.755157
_cell_length_b                    14.888215
_cell_length_c                    14.849425
_cell_angle_alpha                 109.221918
_cell_angle_beta                  109.597287
_cell_angle_gamma                 109.295617
_cell_volume                      2520.35500924

loop_
_atom_site_label
_atom_site_type_symbol
_atom_site_description
_atom_site_fract_x
_atom_site_fract_y
_atom_site_fract_z
_atom_type_partial_charge
C1    C     C_R   0.191873 0.990266 0.900587 -0.137021
C2    C     C_R   0.745503 0.930979 0.021991 -0.123311
H1    H     H_    0.162962 0.011869 0.838156 0.102413
H2    H     H_    0.752403 0.875038 0.051466 0.096661
N1    N     N_R   0.293810 0.002730 0.945950 -0.041224
N2    N     N_R   0.706190 0.997270 0.054050 -0.040765
C3    C     C_R   0.804717 0.208856 0.300479 -0.140133
C4    C     C_R   0.251633 0.777605 0.685277 -0.123965
H3    H     H_    0.832922 0.175824 0.351862 0.087155
H4    H     H_    0.241486 0.799794 0.621838 0.093790
N3    N     N_R   0.706160 0.152130 0.208910 -0.037193
N4    N     N_R   0.293840 0.847870 0.791090 -0.039893
C5    C     C_R   0.407053 0.973913 0.222464 -0.127270
C6    C     C_R   0.591534 0.095816 0.791205 -0.135658
H5    H     H_    0.321117 0.941396 0.200382 0.091466
H6    H     H_    0.676069 0.156800 0.824619 0.084365
N5    N     N_R   0.443140 0.945920 0.152090 -0.039663
N6    N     N_R   0.556860 0.054080 0.847910 -0.037920
C7    C     C_R   0.588738 0.315100 0.061232 -0.126037
C8    C     C_R   0.409444 0.704714 0.011266 -0.134985
H7    H     H_    0.673867 0.380131 0.113451 0.091884
H8    H     H_    0.324392 0.656824 0.988556 0.087215
N7    N     N_R   0.556830 0.208940 0.002760 -0.039931
N8    N     N_R   0.443170 0.791060 0.997240 -0.039243
C9    C     C_R   0.592115 0.066256 0.314594 -0.123202
C10   C     C_R   0.407971 0.004124 0.699610 -0.141908
H9    H     H_    0.677971 0.119306 0.377631 0.093435
H10   H     H_    0.322942 0.980343 0.648482 0.085854
N9    N     N_R   0.556790 0.002750 0.208910 -0.038422
N10   N     N_R   0.443210 0.997250 0.791090 -0.037727
C11   C     C_R   0.404019 0.219235 0.969991 -0.130365
C12   C     C_R   0.592386 0.794693 0.101352 -0.156672
H11   H     H_    0.317564 0.190077 0.939501 0.128656
H12   H     H_    0.677710 0.829264 0.160769 0.115089
N11   N     N_R   0.443180 0.152110 0.945950 -0.043287
N12   N     N_R   0.556820 0.847890 0.054050 -0.039850
C13   C     C_R   0.803928 0.300486 0.208976 -0.137659
C14   C     C_R   0.251961 0.685692 0.778019 -0.127007
H13   H     H_    0.830885 0.352003 0.175863 0.083530
H14   H     H_    0.242640 0.623051 0.801087 0.095993
N13   N     N_R   0.706170 0.208950 0.152090 -0.036799
N14   N     N_R   0.293830 0.791050 0.847910 -0.039398
C15   C     C_R   0.195021 0.902547 0.995137 -0.150153
C16   C     C_R   0.749143 0.026578 0.933639 -0.151911
H15   H     H_    0.172331 0.844916 0.022918 0.131879
H16   H     H_    0.761282 0.062226 0.883691 0.111643
N15   N     N_R   0.293800 0.945910 0.002760 -0.040993
N16   N     N_R   0.706200 0.054090 0.997240 -0.040353
C17   C     C_R   0.126504 0.925341 0.927964 0.076147
C18   C     C_R   0.770656 0.945048 0.943168 0.066062
C19   C     C_R   0.868536 0.302382 0.302551 0.048698
C20   C     C_R   0.226073 0.674618 0.674594 0.039236
C21   C     C_R   0.499298 0.051717 0.325568 0.038240
C22   C     C_R   0.499590 0.066802 0.697828 0.049366
C23   C     C_R   0.493013 0.324053 0.042820 0.056021
C24   C     C_R   0.501437 0.705429 0.079091 0.071439
Ni1   Ni    Ni4+2 0.369690 0.999990 0.869700 0.212083
Ni2   Ni    Ni4+2 0.630310 0.000010 0.130300 0.215108
Ni3   Ni    Ni4+2 0.369670 0.869670 0.000000 0.210656
Ni4   Ni    Ni4+2 0.630330 0.130330 0.000000 0.207761
H17   H     H_    0.976765 0.102345 0.736488 0.108157
H18   H     H_    0.972911 0.997504 0.498289 0.103865
C25   C     C_R   0.133018 0.217140 0.768092 -0.114249
C26   C     C_R   0.800026 0.897125 0.439148 -0.109734
H19   H     H_    0.105816 0.190700 0.681972 0.104671
H20   H     H_    0.800628 0.952800 0.508395 0.115105
C27   C     C_R   0.240584 0.301706 0.848139 -0.185704
C28   C     C_R   0.702061 0.800206 0.355559 -0.144653
H21   H     H_    0.295954 0.340630 0.823126 0.125271
H22   H     H_    0.627402 0.781860 0.361237 0.121607
C29   C     C_R   0.276752 0.336309 0.960150 0.070208
C30   C     C_R   0.700364 0.726901 0.265573 0.066014
C31   C     C_R   0.203117 0.286757 0.991953 0.051606
C32   C     C_R   0.799074 0.752960 0.259786 0.023136
C33   C     C_R   0.094758 0.201710 0.910284 -0.163027
C34   C     C_R   0.896568 0.850763 0.344090 -0.120263
H23   H     H_    0.036897 0.162502 0.932775 0.111297
H24   H     H_    0.972112 0.871823 0.339920 0.110321
C35   C     C_R   0.060199 0.167415 0.799063 -0.138649
C36   C     C_R   0.897156 0.922244 0.433531 -0.136139
C37   C     C_R   0.396084 0.531406 0.065426 -0.248431
C38   C     C_R   0.587236 0.524292 0.164995 -0.240157
H25   H     H_    0.319862 0.532127 0.028071 0.124944
H26   H     H_    0.660778 0.523274 0.211539 0.126212
C39   C     C_R   0.498700 0.624705 0.116511 0.055383
C40   C     C_R   0.487643 0.425752 0.085681 0.072562
C41   C     C_R   0.594738 0.624657 0.179540 0.028345
C42   C     C_R   0.388677 0.430716 0.042743 0.045321
C43   C     C_R   0.036621 0.477493 0.377810 -0.175135
C44   C     C_R   0.129225 0.471991 0.571983 -0.168603
H27   H     H_    0.001773 0.482886 0.304438 0.106477
H28   H     H_    0.162177 0.467729 0.646404 0.109123
C45   C     C_R   0.128307 0.570879 0.471165 -0.167307
C46   C     C_R   0.037425 0.378599 0.478721 -0.172865
H29   H     H_    0.160490 0.644582 0.466176 0.108276
H30   H     H_    0.003120 0.306050 0.484956 0.106000
C47   C     C_R   0.166865 0.571406 0.571480 0.144275
C48   C     C_R   0.984183 0.384317 0.384548 0.142040
C49   C     C_R   0.599462 0.160225 0.622520 -0.174640
C50   C     C_R   0.398795 0.059475 0.429374 -0.169207
H31   H     H_    0.678605 0.198144 0.695353 0.108139
H32   H     H_    0.319805 0.018227 0.355282 0.107714
C51   C     C_R   0.599295 0.158525 0.528786 -0.170370
C52   C     C_R   0.398846 0.061278 0.523137 -0.175256
H33   H     H_    0.678281 0.195336 0.533087 0.109554
H34   H     H_    0.319814 0.021333 0.517716 0.105331
C53   C     C_R   0.499058 0.096741 0.428899 0.145117
C54   C     C_R   0.499261 0.101414 0.616520 0.142629
C55   C     C_R   0.948849 0.821629 0.924549 0.202342
C56   C     C_R   0.856217 0.920372 0.820742 0.184284
C57   C     C_R   0.859211 0.830142 0.929432 -0.301688
C58   C     C_R   0.951671 0.920494 0.824128 -0.293322
H35   H     H_    0.823209 0.792775 0.969052 0.124469
H36   H     H_    0.984346 0.953093 0.779948 0.140061
C59   C     C_R   0.822573 0.892827 0.891154 0.074592
C60   C     C_R   0.006764 0.884242 0.888179 0.063942
N17   N     N_3   0.239213 0.322476 0.106348 -0.211370
H37   H     H_    0.251040 0.401628 0.142803 0.108244
H38   H     H_    0.177087 0.273437 0.115255 0.102838
N18   N     N_3   0.801130 0.685076 0.166962 -0.228916
H39   H     H_    0.739141 0.671747 0.095420 0.103689
H40   H     H_    0.784169 0.609728 0.163364 0.100421
N19   N     N_2   0.980807 0.753184 0.959146 -0.127890
H41   H     H_    0.953689 0.735787 0.010157 0.164590
C61   C     C_3   0.960785 0.656375 0.871003 -0.949207
H42   H     H_    0.993536 0.611046 0.905759 0.244602
H43   H     H_    0.003437 0.679002 0.826392 0.263188
H44   H     H_    0.870413 0.601918 0.812348 0.261413
N20   N     N_2   0.798491 0.949195 0.747441 -0.119372
H45   H     H_    0.828082 0.031280 0.772744 0.138858
C62   C     C_3   0.681272 0.874478 0.671743 -0.899229
H46   H     H_    0.651079 0.900270 0.610927 0.242167
H47   H     H_    0.633717 0.874076 0.715832 0.255445
H48   H     H_    0.666308 0.790275 0.626590 0.259615

loop_
_geom_bond_atom_site_label_1
_geom_bond_atom_site_label_2
_geom_bond_distance
_ccdc_geom_bond_type
C49   C51   1.382927 A    
C25   H19   1.082242 S    
N5    N9    1.372214 A    
C6    N6    1.334274 A    
C7    N7    1.343141 A    
C58   C60   1.402174 A    
C8    C24   1.386818 A    
C62   H48   1.110948 S    
C52   H34   1.080375 S    
N19   H41   1.031985 S    
C57   H35   1.080597 S    
C25   C35   1.394262 A    
C3    N3    1.335162 A    
C49   C54   1.401865 A    
N1    N15   1.377384 A    
N8    N12   1.372215 A    
C32   C34   1.401493 A    
C1    N1    1.343156 A    
C26   C28   1.396732 A    
H18   C36   1.082311 S    
C7    H7    1.079352 S    
C9    C21   1.387820 A    
C14   N14   1.332958 A    
N12   Ni2   1.857957 S    
N17   H38   1.045690 S    
C13   C19   1.381377 A    
C40   C42   1.422014 A    
N19   C61   1.447352 S    
C14   C20   1.389222 A    
C46   C48   1.401999 A    
C16   C18   1.389889 A    
C38   C41   1.397798 A    
N10   Ni1   1.840766 S    
C20   C47   1.461240 S    
C50   C52   1.383457 A    
C56   N20   1.421841 S    
C18   C59   1.477482 S    
N2    Ni2   1.840494 S    
N4    N14   1.377504 A    
C2    C18   1.397527 A    
C55   C60   1.416178 A    
C8    N8    1.329158 A    
N18   H40   1.044003 S    
C61   H44   1.111527 S    
C11   H11   1.066738 S    
C44   C46   1.383832 A    
N6    N10   1.372214 A    
C43   H27   1.080272 S    
N3    Ni2   1.858004 S    
C15   N15   1.331638 A    
C4    C20   1.391363 A    
C44   C47   1.402155 A    
C27   C29   1.405484 A    
C28   C30   1.405881 A    
C19   C48   1.461144 S    
C45   H29   1.080657 S    
C43   C45   1.383748 A    
C26   C36   1.395453 A    
C2    N2    1.338436 A    
C10   C22   1.380411 A    
C58   H36   1.079622 S    
C37   H25   1.079853 S    
C16   H16   1.072092 S    
N16   Ni4   1.839354 S    
C5    C21   1.389526 A    
C39   C41   1.412599 A    
C9    N9    1.333059 A    
N7    Ni4   1.839739 S    
C25   C27   1.394823 A    
C31   N17   1.436355 S    
C30   C32   1.418341 A    
C1    H1    1.080088 S    
C29   C31   1.411259 A    
C55   N19   1.422839 S    
C38   C40   1.405491 A    
C27   H21   1.083357 S    
C26   H20   1.082728 S    
C2    H2    1.077851 S    
N1    Ni1   1.840493 S    
C15   H15   1.074415 S    
C21   C53   1.460046 S    
C44   H28   1.080645 S    
C4    N4    1.334827 A    
C50   H32   1.080704 S    
C51   H33   1.080564 S    
C46   H30   1.080467 S    
C33   H23   1.082337 S    
N2    N16   1.377384 A    
N5    Ni3   1.849503 S    
N4    Ni1   1.858004 S    
N6    Ni4   1.849505 S    
C6    C22   1.380646 A    
C8    H8    1.078632 S    
C10   N10   1.333810 A    
C38   H26   1.081710 S    
C5    H5    1.077312 S    
C61   H42   1.110364 S    
C6    H6    1.079870 S    
C31   C33   1.407330 A    
C62   H46   1.110396 S    
C45   C47   1.401263 A    
C52   C54   1.402228 A    
C30   C41   1.481304 S    
N18   H39   1.045935 S    
N20   H45   1.029711 S    
C7    C23   1.406000 A    
C3    H3    1.080069 S    
C50   C53   1.401287 A    
C49   H31   1.080343 S    
C10   H10   1.079953 S    
C15   C17   1.380346 A    
C34   C36   1.397181 A    
N13   Ni4   1.849670 S    
C34   H24   1.082913 S    
C62   H47   1.108595 S    
N14   Ni3   1.849672 S    
C51   C53   1.401628 A    
C12   N12   1.337821 A    
C5    N5    1.335075 A    
C9    H9    1.077646 S    
C32   N18   1.432950 S    
N7    N11   1.372214 A    
C22   C54   1.459697 S    
C43   C48   1.402523 A    
N11   Ni1   1.857957 S    
C23   C40   1.477334 S    
C55   C57   1.392735 A    
C3    C19   1.382874 A    
C13   H13   1.079893 S    
N17   H37   1.045396 S    
C14   H14   1.078520 S    
C24   C39   1.475634 S    
C33   C35   1.398623 A    
H17   C35   1.081307 S    
N8    Ni3   1.839738 S    
N3    N13   1.377504 A    
C11   N11   1.321038 A    
C13   N13   1.333011 A    
C56   C58   1.391745 A    
C37   C42   1.381028 A    
N15   Ni3   1.839355 S    
C29   C42   1.476237 S    
C17   C60   1.480630 S    
N9    Ni2   1.840764 S    
C4    H4    1.077956 S    
C61   H43   1.111257 S    
C28   H22   1.083454 S    
C57   C59   1.401042 A    
C11   C23   1.382392 A    
C1    C17   1.391254 A    
C56   C59   1.415566 A    
C12   C24   1.382343 A    
C37   C39   1.393992 A    
C16   N16   1.333955 A    
C12   H12   1.075162 S    
N20   C62   1.446855 S    
