data_str_m3_o5_o25_f0_pcu.sym.77
_audit_creation_date              2012-12-10T20:49:28-0500
_audit_creation_method            fapswitch 2.2
_symmetry_space_group_name_H-M    P1
_symmetry_Int_Tables_number       1
_space_group_crystal_system       triclinic
_cell_length_a                    15.622186
_cell_length_b                    8.962744
_cell_length_c                    8.137243
_cell_angle_alpha                 89.800728
_cell_angle_beta                  94.997197
_cell_angle_gamma                 91.900565
_cell_volume                      1134.40234089

loop_
_atom_site_label
_atom_site_type_symbol
_atom_type_description
_atom_site_fract_x
_atom_site_fract_y
_atom_site_fract_z
_atom_type_partial_charge
C1    C     C_1   0.499920 0.065144 0.500241 -0.193805
C2    C     C_3   0.996750 0.618393 0.601975 0.442665
C3    C     C_1   0.247019 0.476914 0.474036 -0.208336
C4    C     C_1   0.752981 0.523080 0.525964 -0.208334
C5    C     C_3   0.042560 0.472035 0.650942 -0.241928
C6    C     C_3   0.957440 0.527953 0.349071 -0.241930
C7    C     C_3   0.080021 0.475763 0.479536 -0.116998
C8    C     C_3   0.919979 0.524225 0.520476 -0.116983
C9    C     C_1   0.170823 0.467910 0.465924 0.118227
C10   C     C_1   0.829176 0.532081 0.534081 0.118227
C11   C     C_3   0.947989 0.210739 0.200407 -0.369919
C12   C     C_1   0.500080 0.934855 0.499759 -0.193806
C13   C     C_3   0.052023 0.789275 0.799569 -0.369963
C14   C     C_3   0.949873 0.124011 0.618953 -0.285808
C15   C     C_3   0.050120 0.875980 0.381056 -0.285785
C16   C     C_R   0.898311 0.565836 0.196130 0.162102
C17   C     C_R   0.916135 0.689370 0.096510 -0.138382
C18   C     C_R   0.856061 0.734830 0.970325 -0.105827
C19   C     C_R   0.778648 0.654374 0.937387 -0.094096
C20   C     C_R   0.760976 0.528378 0.030985 -0.087372
C21   C     C_R   0.819890 0.485101 0.160025 -0.181885
C22   C     C_R   0.101690 0.434153 0.803882 0.162147
C23   C     C_R   0.499774 0.218029 0.500140 0.936306
C24   C     C_R   0.180113 0.514881 0.839983 -0.181864
C25   C     C_R   0.239026 0.471600 0.969020 -0.087384
C26   C     C_R   0.221352 0.345607 0.062620 -0.094086
C27   C     C_R   0.143940 0.265154 0.029682 -0.105846
C28   C     C_R   0.083866 0.310616 0.903499 -0.138412
C29   C     C_R   0.500226 0.781971 0.499860 0.936307
C30   C     C_R   0.336928 0.493728 0.492606 0.891905
C31   C     C_R   0.663072 0.506271 0.507394 0.891907
C32   C     C_3   0.965964 0.377937 0.567452 0.416667
C33   C     C_3   0.034036 0.622051 0.432561 0.416637
C34   C     C_3   0.003250 0.381595 0.398037 0.442660
H1    H     H_    0.937184 0.289703 0.096358 0.211044
H2    H     H_    0.978837 0.874021 0.380897 0.163415
H3    H     H_    0.067817 0.948981 0.278373 0.191019
H4    H     H_    0.081336 0.926450 0.495512 0.191173
H5    H     H_    0.975498 0.752950 0.116152 0.164615
H6    H     H_    0.869299 0.833425 0.898560 0.161985
H7    H     H_    0.732270 0.690240 0.839966 0.141856
H8    H     H_    0.700781 0.465929 0.005957 0.152429
H9    H     H_    0.802659 0.390665 0.234435 0.134615
H10   H     H_    0.197348 0.609310 0.765569 0.134608
H11   H     H_    0.299222 0.534044 0.994046 0.152432
H12   H     H_    0.889729 0.196634 0.268305 0.169687
H13   H     H_    0.267730 0.309740 0.160042 0.141855
H14   H     H_    0.130700 0.166561 0.101448 0.161985
H15   H     H_    0.024502 0.247039 0.883858 0.164605
H16   H     H_    0.959707 0.100962 0.145786 0.163031
H17   H     H_    0.110279 0.803319 0.731651 0.169687
H18   H     H_    0.062827 0.710367 0.903671 0.211041
H19   H     H_    0.040322 0.899087 0.854114 0.163031
H20   H     H_    0.021156 0.125960 0.619106 0.163416
H21   H     H_    0.918654 0.073536 0.504509 0.191184
H22   H     H_    0.932171 0.051029 0.721643 0.191021
N1    N     N_1   0.500010 0.500000 0.073640 -0.049762
N2    N     N_1   0.499990 0.500000 0.926360 -0.049762
O1    O     O_R   0.500000 0.285340 0.636850 -0.611490
O2    O     O_3   0.979073 0.744023 0.696003 -0.623447
O3    O     O_3   0.917096 0.265656 0.642778 -0.618200
O4    O     O_3   0.082902 0.734334 0.357228 -0.618188
O5    O     O_R   0.500000 0.714660 0.363150 -0.611490
O6    O     O_R   0.500000 0.285340 0.363150 -0.617214
O7    O     O_R   0.500000 0.714660 0.636850 -0.617213
O8    O     O_R   0.376770 0.500000 0.636850 -0.612800
O9    O     O_R   0.623230 0.500000 0.363150 -0.612797
O10   O     O_R   0.376780 0.500000 0.363100 -0.626166
O11   O     O_R   0.623220 0.500000 0.636900 -0.626169
O12   O     O_3   0.020925 0.255957 0.304015 -0.623463
Zn1   Zn    Zn3+2 0.499990 0.500000 0.682780 0.970707
Zn2   Zn    Zn3+2 0.500010 0.500000 0.317220 0.970709

loop_
_geom_bond_atom_site_label_1
_geom_bond_atom_site_label_2
_ccdc_geom_bond_type
C27   H14   S    
C3    C30   S    
C14   H22   S    
C24   C25   A    
C29   O5    A    
C15   H4    S    
C16   C21   A    
C3    C9    T    
C12   C29   S    
C21   H9    S    
C13   H18   S    
C5    C7    S    
C28   H15   S    
C34   O12   S    
C20   H8    S    
O8    Zn1   S    
C6    C33   S    
O10   Zn2   S    
C5    C32   S    
C6    C34   S    
C11   H1    S    
C14   H21   S    
C26   C27   A    
C11   O12   S    
C19   H7    S    
C13   O2    S    
C22   C28   A    
C20   C21   A    
C23   O1    A    
C7    C33   S    
O1    Zn1   S    
N1    N2    T    
C30   O8    A    
C1    C12   T    
C26   H13   S    
C29   O7    A    
C6    C8    S    
C2    C33   S    
C8    C10   S    
C23   O6    A    
C14   H20   S    
C15   O4    S    
C32   O3    S    
C1    C23   S    
C2    O2    S    
O6    Zn2   S    
N1    Zn2   S    
C24   H10   S    
C7    C34   S    
C22   C24   A    
N2    Zn1   S    
C4    C31   S    
O11   Zn1   S    
C13   H19   S    
C31   O9    A    
C4    C10   T    
C2    C5    S    
C25   H11   S    
C15   H2    S    
C31   O11   A    
C18   C19   A    
O5    Zn2   S    
C17   C18   A    
O9    Zn2   S    
C17   H5    S    
C2    C8    S    
C27   C28   A    
C7    C9    S    
C11   H16   S    
C15   H3    S    
C11   H12   S    
C18   H6    S    
C32   C34   S    
C25   C26   A    
C13   H17   S    
C14   O3    S    
C6    C16   S    
C30   O10   A    
C5    C22   S    
C19   C20   A    
C16   C17   A    
O7    Zn1   S    
C33   O4    S    
C8    C32   S    
