data_str_m12_o9_o11_f0_bcu.sym.71
_audit_creation_date              2012-12-11T17:39:39-0500
_audit_creation_method            fapswitch 2.2
_symmetry_space_group_name_H-M    P1
_symmetry_Int_Tables_number       1
_space_group_crystal_system       triclinic
_cell_length_a                    15.076918
_cell_length_b                    15.099966
_cell_length_c                    14.925299
_cell_angle_alpha                 108.608254
_cell_angle_beta                  109.760479
_cell_angle_gamma                 110.461352
_cell_volume                      2601.66244347

loop_
_atom_site_label
_atom_site_type_symbol
_atom_type_description
_atom_site_fract_x
_atom_site_fract_y
_atom_site_fract_z
_atom_type_partial_charge
C1    C     C_R   0.909296 0.913551 0.714260 -0.148196
C2    C     C_R   0.002678 0.302886 0.441024 0.059340
C3    C     C_R   0.289403 0.323340 0.825819 0.154758
C4    C     C_R   0.713621 0.034556 0.539137 0.039728
C5    C     C_R   0.695620 0.702641 0.292676 -0.242875
C6    C     C_R   0.303896 0.093595 0.503759 -0.140924
C7    C     C_R   0.091806 0.779909 0.529001 -0.108621
C8    C     C_R   0.910609 0.934584 0.187892 -0.144615
C9    C     C_R   0.093420 0.023515 0.282248 -0.116393
C10   C     C_R   0.907537 0.685178 0.444351 -0.141374
C11   C     C_R   0.694678 0.798260 0.206099 0.347412
C12   C     C_R   0.092849 0.299556 0.498252 -0.152866
C13   C     C_R   0.302329 0.005804 0.598189 -0.155814
C14   C     C_R   0.629735 0.704410 0.203419 0.122368
C15   C     C_R   0.365117 0.064273 0.567045 0.059856
C16   C     C_R   0.000532 0.677247 0.465478 0.042189
C17   C     C_R   0.002947 0.946323 0.179073 0.049163
C18   C     C_R   0.493810 0.682030 0.401526 -0.111779
C19   C     C_R   0.509026 0.785805 0.428067 -0.117179
C20   C     C_R   0.538111 0.857441 0.534179 0.109551
C21   C     C_R   0.548869 0.822706 0.612150 -0.185805
C22   C     C_R   0.533826 0.719004 0.585242 -0.126380
C23   C     C_R   0.258615 0.220880 0.814237 -0.158534
C24   C     C_R   0.506606 0.648811 0.480092 -0.099660
C25   C     C_R   0.475645 0.983626 0.579547 -0.235736
C26   C     C_R   0.469371 0.075246 0.585765 0.061096
C27   C     C_R   0.551817 0.161440 0.590589 0.026655
C28   C     C_R   0.635475 0.148168 0.580373 -0.243767
C29   C     C_R   0.634427 0.050963 0.563144 0.071411
C30   C     C_R   0.553779 0.967681 0.563336 0.016275
C31   C     C_R   0.569260 0.303768 0.533829 -0.163082
C32   C     C_R   0.558610 0.393159 0.538026 -0.110437
C33   C     C_R   0.526993 0.440807 0.608594 -0.091281
C34   C     C_R   0.741967 0.055744 0.465826 -0.128755
C35   C     C_R   0.507960 0.400436 0.676452 -0.092583
C36   C     C_R   0.522525 0.313885 0.675706 -0.145932
C37   C     C_R   0.549977 0.262259 0.601794 0.112678
C38   C     C_R   0.815313 0.121347 0.091275 -0.114785
C39   C     C_R   0.890218 0.220975 0.188533 -0.137972
C40   C     C_R   0.853860 0.286916 0.235723 0.119891
C41   C     C_R   0.741480 0.252147 0.182328 -0.177022
C42   C     C_R   0.666913 0.152588 0.084813 -0.109677
C43   C     C_R   0.703743 0.087106 0.039553 -0.085053
C44   C     C_R   0.932066 0.485193 0.353913 -0.248012
C45   C     C_R   0.258275 0.313520 0.722766 -0.136650
C46   C     C_R   0.005659 0.582024 0.454401 0.071259
C47   C     C_R   0.083032 0.586906 0.544701 0.016516
C48   C     C_R   0.085357 0.494308 0.531590 -0.236957
C49   C     C_R   0.008835 0.396464 0.433897 0.061255
C50   C     C_R   0.932539 0.390224 0.342181 0.022315
C51   C     C_R   0.271131 0.731428 0.704365 -0.194409
C52   C     C_R   0.340927 0.820655 0.810566 -0.111228
C53   C     C_R   0.297042 0.861274 0.870627 -0.095394
C54   C     C_R   0.183258 0.812557 0.824698 -0.123702
C55   C     C_R   0.113022 0.723639 0.718212 -0.113864
C56   C     C_R   0.752186 0.970987 0.564916 -0.108326
C57   C     C_R   0.156603 0.682966 0.656953 0.118737
C58   C     C_2   0.351755 0.514814 0.947512 0.336026
C59   C     C_2   0.356645 0.423637 0.929998 -0.267836
C60   C     C_2   0.448885 0.618967 0.039349 -0.167902
C61   C     C_2   0.511460 0.626250 0.133042 -0.251572
C62   C     C_R   0.398547 0.213192 0.118384 -0.107728
C63   C     C_R   0.307433 0.113113 0.079317 -0.190435
C64   C     C_R   0.201934 0.099286 0.039528 0.114309
C65   C     C_R   0.189438 0.187838 0.041706 -0.127536
C66   C     C_R   0.280936 0.288072 0.081678 -0.126919
C67   C     C_R   0.909838 0.210939 0.409647 -0.128533
C68   C     C_R   0.385360 0.300674 0.119826 -0.117892
C69   C     C_R   0.107859 0.971851 0.087195 -0.225762
C70   C     C_R   0.009125 0.908029 0.078825 0.054372
C71   C     C_R   0.914352 0.834529 0.974240 0.024924
C72   C     C_R   0.915859 0.845831 0.885297 -0.241955
C73   C     C_R   0.008289 0.931442 0.901742 0.054003
C74   C     C_R   0.106163 0.995429 0.005083 0.004417
C75   C     C_R   0.823429 0.685909 0.009180 -0.138222
C76   C     C_R   0.730694 0.610604 0.001147 -0.099222
C77   C     C_R   0.628258 0.596704 0.941516 -0.087282
C78   C     C_R   0.091484 0.002287 0.801623 -0.128038
C79   C     C_R   0.617887 0.657098 0.888675 -0.140786
C80   C     C_R   0.710296 0.732130 0.895887 -0.173407
C81   C     C_R   0.814278 0.748166 0.957475 0.120663
C82   C     C_R   0.002522 0.952302 0.811580 0.051674
H1    H     H_    0.825632 0.856190 0.686620 0.098912
H2    H     H_    0.331788 0.148027 0.474042 0.112086
H3    H     H_    0.176827 0.802456 0.560636 0.109299
H4    H     H_    0.826041 0.884249 0.123595 0.141893
H5    H     H_    0.178556 0.053543 0.307842 0.094742
H6    H     H_    0.822988 0.619928 0.400150 0.100471
H7    H     H_    0.329199 0.982367 0.659088 0.100904
H8    H     H_    0.494910 0.568494 0.459271 0.097647
H9    H     H_    0.471811 0.627170 0.320001 0.106013
H10   H     H_    0.498907 0.810655 0.366512 0.117543
H11   H     H_    0.177337 0.353601 0.524787 0.095439
H12   H     H_    0.570032 0.876428 0.693936 0.111160
H13   H     H_    0.543187 0.693142 0.645939 0.099941
H14   H     H_    0.411105 0.916315 0.573427 0.132299
H15   H     H_    0.699997 0.212114 0.582874 0.130612
H16   H     H_    0.589480 0.265250 0.475365 0.107919
H17   H     H_    0.572634 0.424037 0.484878 0.104042
H18   H     H_    0.516271 0.508327 0.610064 0.093766
H19   H     H_    0.480004 0.434905 0.728351 0.107712
H20   H     H_    0.507969 0.284359 0.729573 0.114916
H21   H     H_    0.645857 0.009862 0.964395 0.092121
H22   H     H_    0.274396 0.200197 0.878515 0.128580
H23   H     H_    0.843778 0.070567 0.056152 0.114781
H24   H     H_    0.976413 0.246274 0.227494 0.114837
H25   H     H_    0.711233 0.300933 0.217269 0.103867
H26   H     H_    0.580400 0.125845 0.044704 0.101740
H27   H     H_    0.874678 0.484103 0.285363 0.129769
H28   H     H_    0.141322 0.497029 0.602607 0.135999
H29   H     H_    0.306134 0.700557 0.658656 0.118125
H30   H     H_    0.429030 0.858116 0.846406 0.101384
H31   H     H_    0.351339 0.930123 0.952930 0.096349
H32   H     H_    0.149514 0.843418 0.871791 0.120758
H33   H     H_    0.721822 0.100769 0.426968 0.099242
H34   H     H_    0.025012 0.686427 0.683570 0.112963
H35   H     H_    0.421924 0.424591 0.991215 0.113023
H36   H     H_    0.475746 0.682257 0.019453 0.163204
H37   H     H_    0.478479 0.561793 0.150798 0.125034
H38   H     H_    0.456084 0.378274 0.150767 0.092045
H39   H     H_    0.479518 0.223199 0.148455 0.100969
H40   H     H_    0.318914 0.046569 0.080596 0.108258
H41   H     H_    0.109128 0.179420 0.013579 0.114825
H42   H     H_    0.270942 0.356011 0.083128 0.120367
H43   H     H_    0.274857 0.377910 0.702635 0.106926
H44   H     H_    0.184246 0.021234 0.164247 0.125615
H45   H     H_    0.843457 0.790555 0.804639 0.125823
H46   H     H_    0.902650 0.696913 0.057035 0.113194
H47   H     H_    0.738354 0.563559 0.041812 0.107907
H48   H     H_    0.556732 0.538252 0.935385 0.111938
H49   H     H_    0.538226 0.646045 0.842513 0.102420
H50   H     H_    0.701261 0.780136 0.856659 0.103948
H51   H     H_    0.745868 0.941848 0.620814 0.113723
H52   H     H_    0.825358 0.184159 0.356303 0.105536
H53   H     H_    0.174276 0.021466 0.849384 0.109996
H54   H     H_    0.666914 0.650378 0.324342 0.115890
N1    N     N_R   0.941940 0.944580 0.650780 -0.038658
N2    N     N_R   0.206190 0.054080 0.497260 -0.040449
N3    N     N_R   0.056380 0.847410 0.553580 -0.042388
N4    N     N_R   0.944890 0.999100 0.292900 -0.042172
N5    N     N_R   0.058060 0.055420 0.349220 -0.041747
N6    N     N_R   0.943200 0.791100 0.497260 -0.037734
N7    N     N_R   0.795540 0.849750 0.292910 -0.061438
N8    N     N_R   0.205730 0.996760 0.553580 -0.037542
N9    N     N_R   0.056800 0.208900 0.502740 -0.036756
N10   N     N_R   0.204460 0.150250 0.707090 -0.042855
N11   N     N_R   0.794270 0.003240 0.446420 -0.038394
N12   N     N_R   0.204920 0.207570 0.650770 -0.043335
N13   N     N_R   0.793810 0.945920 0.502740 -0.040774
N14   N     N_R   0.943620 0.152590 0.446420 -0.040057
N15   N     N_R   0.055110 0.000900 0.707100 -0.039560
N16   N     N_R   0.795080 0.792430 0.349230 -0.051351
Ni1   Ni    Ni4+2 0.869690 0.869690 0.500000 0.213749
Ni2   Ni    Ni4+2 0.130310 0.130310 0.500000 0.210503
Ni3   Ni    Ni4+2 0.129250 0.998840 0.629170 0.214969
Ni4   Ni    Ni4+2 0.870750 0.001160 0.370830 0.211773
C83   C     C_3   0.655278 0.859139 0.156853 -1.094045
H55   H     H_    0.633538 0.824327 0.069752 0.250599
H56   H     H_    0.584103 0.857298 0.164716 0.257950
H57   H     H_    0.720705 0.946002 0.200905 0.260295
C84   C     C_3   0.261956 0.518461 0.866919 -0.990035
H58   H     H_    0.242952 0.576311 0.912333 0.253862
H59   H     H_    0.289605 0.547105 0.816103 0.232761
H60   H     H_    0.184855 0.437933 0.813305 0.258177

loop_
_geom_bond_atom_site_label_1
_geom_bond_atom_site_label_2
_ccdc_geom_bond_type
C28   H15   S    
C5    H54   S    
C66   C68   A    
C83   H55   S    
C80   H50   S    
C61   H37   S    
C45   N12   A    
C41   C42   A    
C48   H28   S    
C35   C36   A    
C2    C12   A    
C63   H40   S    
C84   H58   S    
C20   C30   S    
C53   C54   A    
C10   H6    S    
C26   C27   A    
C62   C63   A    
C5    N16   A    
C18   C24   A    
C18   H9    S    
C36   C37   A    
N11   N13   A    
C18   C19   A    
C10   N6    A    
C38   C39   A    
N3    N6    A    
C40   C50   S    
N5    Ni2   S    
C31   H16   S    
C21   H12   S    
C52   H30   S    
C58   C60   S    
C36   H20   S    
C75   H46   S    
C73   C74   A    
C13   N8    A    
N13   Ni1   S    
C19   H10   S    
C33   C35   A    
C6    C15   A    
C54   C55   A    
C3    C23   A    
N10   Ni3   S    
C23   H22   S    
C44   C46   A    
C60   H36   S    
C70   C71   A    
C51   C57   A    
N15   Ni3   S    
C78   H53   S    
C8    H4    S    
C4    C29   S    
C72   C73   A    
C44   H27   S    
N2    Ni2   S    
C17   C70   S    
C59   H35   S    
N14   Ni4   S    
C21   C22   A    
C4    C56   A    
C67   N14   A    
N12   Ni2   S    
C84   H59   S    
C53   H31   S    
C78   N15   A    
C56   H51   S    
N10   N12   A    
C77   C79   A    
C23   N10   A    
C4    C34   A    
C6    H2    S    
C72   H45   S    
C51   C52   A    
C47   C48   A    
C67   H52   S    
C76   C77   A    
C2    C67   A    
C16   C46   S    
C39   C40   A    
C9    N5    A    
C75   C81   A    
C15   C26   S    
C1    C82   A    
C63   C64   A    
C14   C61   S    
C3    C45   A    
C31   C37   A    
C60   C61   D    
C12   N9    A    
C6    N2    A    
C75   C76   A    
N8    Ni3   S    
C29   C30   A    
C2    C49   S    
C47   C57   S    
C34   N11   A    
C78   C82   A    
C31   C32   A    
N3    Ni3   S    
C79   H49   S    
C20   C21   A    
C76   H47   S    
C39   H24   S    
N1    Ni1   S    
C69   C74   A    
C25   C26   A    
N4    N5    A    
N11   Ni4   S    
C5    C14   A    
N4    Ni4   S    
N9    Ni2   S    
C9    C17   A    
N7    N16   A    
C69   H44   S    
C65   C66   A    
C83   H57   S    
C13   C15   A    
C22   C24   A    
C12   H11   S    
C58   C59   D    
C42   C43   A    
C28   C29   A    
C73   C82   S    
C84   H60   S    
C1    N1    A    
C52   C53   A    
C11   C83   S    
C44   C50   A    
C25   C30   A    
C46   C47   A    
C40   C41   A    
C51   H29   S    
C41   H25   S    
C13   H7    S    
C7    C16   A    
N9    N14   A    
C80   C81   A    
C35   H19   S    
C24   H8    S    
C1    H1    S    
C8    C17   A    
C32   H17   S    
C62   C68   A    
C8    N4    A    
C33   H18   S    
C32   C33   A    
C19   C20   A    
C55   C57   A    
C34   H33   S    
C38   C43   A    
C38   H23   S    
N2    N8    A    
C64   C65   A    
C7    N3    A    
N7    Ni4   S    
C7    H3    S    
C11   N7    A    
C27   C37   S    
C48   C49   A    
C54   H32   S    
C11   C14   A    
C66   H42   S    
C77   H48   S    
C65   H41   S    
N6    Ni1   S    
C69   C70   A    
C43   H21   S    
C79   C80   A    
C22   H13   S    
C71   C72   A    
N16   Ni1   S    
C25   H14   S    
C83   H56   S    
C49   C50   A    
C55   H34   S    
C45   H43   S    
C27   C28   A    
C64   C74   S    
N1    N15   A    
C10   C16   A    
C56   N13   A    
C58   C84   S    
C42   H26   S    
C62   H39   S    
C68   H38   S    
C3    C59   S    
C71   C81   S    
C9    H5    S    
