data_str_m4_o22_o22_f0_acs.sym.70
_audit_creation_date              2012-12-11T15:07:06-0500
_audit_creation_method            fapswitch 2.2
_symmetry_space_group_name_H-M    P1
_symmetry_Int_Tables_number       1
_space_group_crystal_system       triclinic
_cell_length_a                    19.812954
_cell_length_b                    11.419361
_cell_length_c                    18.6766
_cell_angle_alpha                 89.197974
_cell_angle_beta                  90.040058
_cell_angle_gamma                 90.429825
_cell_volume                      4225.07092609

loop_
_atom_site_label
_atom_site_type_symbol
_atom_type_description
_atom_site_fract_x
_atom_site_fract_y
_atom_site_fract_z
_atom_type_partial_charge
C1    C     C_R   0.761310 0.524323 0.639528 0.543707
C2    C     C_R   0.238592 0.522488 0.360762 0.541786
C3    C     C_R   0.261310 0.024323 0.639528 0.543707
C4    C     C_R   0.738592 0.022488 0.360762 0.541786
C5    C     C_3   0.810655 0.129817 0.448066 -0.256993
C6    C     C_3   0.189944 0.130968 0.550686 -0.258706
C7    C     C_3   0.310655 0.629817 0.448066 -0.256993
C8    C     C_3   0.689944 0.630968 0.550686 -0.258705
C9    C     C_3   0.747250 0.055764 0.436680 0.066303
C10   C     C_3   0.253088 0.057546 0.563470 0.066824
C11   C     C_3   0.247250 0.555764 0.436680 0.066303
C12   C     C_3   0.753089 0.557546 0.563470 0.066823
C13   C     C_3   0.760368 0.090979 0.574177 0.063026
C14   C     C_3   0.239747 0.090642 0.425791 0.061427
C15   C     C_3   0.260368 0.590979 0.574177 0.063026
C16   C     C_3   0.739747 0.590642 0.425791 0.061427
C17   C     C_3   0.753646 0.959252 0.563202 -0.257028
C18   C     C_3   0.246178 0.959330 0.439205 -0.259845
C19   C     C_3   0.253646 0.459253 0.563202 -0.257027
C20   C     C_3   0.746178 0.459330 0.439205 -0.259845
C21   C     C_3   0.822731 0.134100 0.529168 -0.220866
C22   C     C_3   0.177518 0.133498 0.469654 -0.222099
C23   C     C_3   0.322731 0.634100 0.529168 -0.220866
C24   C     C_3   0.677518 0.633498 0.469654 -0.222099
C25   C     C_3   0.004103 0.205678 0.460441 -0.235162
C26   C     C_3   0.995593 0.206590 0.542482 -0.231954
C27   C     C_3   0.504103 0.705678 0.460441 -0.235162
C28   C     C_3   0.495593 0.706591 0.542482 -0.231954
C29   C     C_3   0.064463 0.405006 0.473855 -0.216533
C30   C     C_3   0.935817 0.405603 0.524967 -0.219496
C31   C     C_3   0.564462 0.905006 0.473855 -0.216533
C32   C     C_3   0.435817 0.905603 0.524967 -0.219496
C33   C     C_3   0.942058 0.389082 0.443988 -0.258290
C34   C     C_3   0.057958 0.390974 0.555233 -0.260055
C35   C     C_3   0.442058 0.889083 0.443988 -0.258290
C36   C     C_3   0.557958 0.890974 0.555233 -0.260055
C37   C     C_3   0.010539 0.332580 0.430986 0.063405
C38   C     C_3   0.989334 0.334234 0.569250 0.062404
C39   C     C_3   0.510539 0.832580 0.430986 0.063406
C40   C     C_3   0.489334 0.834234 0.569250 0.062404
C41   C     C_3   0.815256 0.000260 0.043492 -0.101547
C42   C     C_3   0.177935 0.008675 0.953821 -0.097978
C43   C     C_3   0.315256 0.500261 0.043492 -0.101548
C44   C     C_3   0.677937 0.508674 0.953821 -0.097989
C45   C     C_R   0.774383 0.121936 0.649485 0.553356
C46   C     C_R   0.225772 0.120852 0.350322 0.568268
C47   C     C_R   0.274383 0.621936 0.649485 0.553357
C48   C     C_R   0.725772 0.620852 0.350322 0.568268
C49   C     C_3   0.814882 0.010254 0.961999 -0.209522
C50   C     C_3   0.173516 0.029162 0.034950 -0.203069
C51   C     C_3   0.314883 0.510256 0.962000 -0.209522
C52   C     C_3   0.673518 0.529158 0.034950 -0.203083
C53   C     C_3   0.687733 0.021923 0.032197 -0.225031
C54   C     C_3   0.301826 0.017852 0.978237 -0.257740
C55   C     C_3   0.187733 0.521925 0.032197 -0.225032
C56   C     C_3   0.801828 0.517849 0.978239 -0.257741
C57   C     C_3   0.760810 0.195959 0.058260 -0.251991
C58   C     C_3   0.247597 0.191447 0.928046 -0.230357
C59   C     C_3   0.260811 0.695960 0.058261 -0.251991
C60   C     C_3   0.747599 0.691445 0.928047 -0.230354
C61   C     C_3   0.751378 0.065870 0.074084 0.034596
C62   C     C_3   0.247698 0.060831 0.925490 0.026136
C63   C     C_3   0.251379 0.565871 0.074085 0.034596
C64   C     C_3   0.747701 0.560828 0.925492 0.026135
C65   C     C_3   0.760200 0.099139 0.934112 0.082076
C66   C     C_3   0.227038 0.124013 0.058954 0.058257
C67   C     C_3   0.260201 0.599141 0.934112 0.082075
C68   C     C_3   0.727039 0.624010 0.058955 0.058264
C69   C     C_3   0.690136 0.051013 0.950132 -0.006362
C70   C     C_3   0.297875 0.073846 0.052511 0.024596
C71   C     C_3   0.190137 0.551015 0.950132 -0.006362
C72   C     C_3   0.797876 0.573843 0.052513 0.024597
C73   C     C_3   0.762169 0.213053 0.976005 -0.254052
C74   C     C_3   0.223773 0.224350 0.002945 -0.290831
C75   C     C_3   0.262169 0.713055 0.976005 -0.254051
C76   C     C_3   0.723775 0.724347 0.002946 -0.290828
C77   C     C_3   0.992096 0.487361 0.044167 -0.234861
C78   C     C_3   0.985417 0.486164 0.962723 -0.232576
C79   C     C_3   0.492097 0.987362 0.044167 -0.234862
C80   C     C_3   0.485417 0.986163 0.962723 -0.232574
C81   C     C_3   0.058498 0.305236 0.019958 -0.267751
C82   C     C_3   0.916944 0.299520 0.991977 -0.277177
C83   C     C_3   0.558497 0.805234 0.019958 -0.267753
C84   C     C_3   0.416942 0.799522 0.991978 -0.277179
C85   C     C_3   0.946284 0.285564 0.067887 -0.241342
C86   C     C_3   0.027567 0.284370 0.945837 -0.229725
C87   C     C_3   0.446283 0.785566 0.067888 -0.241342
C88   C     C_3   0.527566 0.784367 0.945838 -0.229721
C89   C     C_R   0.968828 0.342867 0.645157 0.552268
C90   C     C_R   0.031020 0.341727 0.354837 0.544071
C91   C     C_R   0.468828 0.842867 0.645157 0.552268
C92   C     C_R   0.531020 0.841727 0.354837 0.544070
C93   C     C_3   0.008152 0.359961 0.071610 0.065044
C94   C     C_3   0.966289 0.358718 0.937964 0.048688
C95   C     C_3   0.508152 0.859962 0.071611 0.065045
C96   C     C_3   0.466289 0.858718 0.937964 0.048691
C97   C     C_R   0.762836 0.521088 0.852040 0.531407
C98   C     C_R   0.240387 0.534143 0.151573 0.535668
C99   C     C_R   0.262835 0.021093 0.852038 0.531411
C100  C     C_R   0.740387 0.034142 0.151573 0.535669
C101  C     C_R   0.773767 0.130299 0.857368 0.596045
C102  C     C_R   0.213224 0.163839 0.134566 0.570430
C103  C     C_R   0.273767 0.630300 0.857369 0.596047
C104  C     C_R   0.713225 0.663837 0.134566 0.570433
C105  C     C_R   0.942837 0.357022 0.861187 0.540620
C106  C     C_R   0.035651 0.355809 0.144775 0.548281
C107  C     C_R   0.442837 0.857022 0.861187 0.540622
C108  C     C_R   0.535651 0.855809 0.144775 0.548281
C109  C     C_3   0.688132 0.130329 0.464722 -0.234181
C110  C     C_3   0.312867 0.131701 0.534211 -0.237072
C111  C     C_3   0.188132 0.630329 0.464722 -0.234181
C112  C     C_3   0.812867 0.631701 0.534211 -0.237072
C113  C     C_3   0.693614 0.144592 0.545881 -0.232662
C114  C     C_3   0.306908 0.146005 0.452944 -0.232235
C115  C     C_3   0.193614 0.644592 0.545881 -0.232662
C116  C     C_3   0.806908 0.646005 0.452944 -0.232235
C117  C     C_3   0.756244 0.939662 0.481919 -0.222877
C118  C     C_3   0.243531 0.940786 0.520749 -0.220530
C119  C     C_3   0.256244 0.439662 0.481919 -0.222877
C120  C     C_3   0.743531 0.440786 0.520749 -0.220530
Cr1   Cr    Cr6+3 0.885690 0.492860 0.745310 1.005408
Cr2   Cr    Cr6+3 0.114310 0.492860 0.254690 1.003223
Cr3   Cr    Cr6+3 0.385690 0.992860 0.745310 1.005407
Cr4   Cr    Cr6+3 0.614310 0.992860 0.254690 1.003223
Cr5   Cr    Cr6+3 0.729880 0.332270 0.748190 1.004356
Cr6   Cr    Cr6+3 0.270120 0.332270 0.251810 0.999077
Cr7   Cr    Cr6+3 0.229880 0.832270 0.748190 1.004357
Cr8   Cr    Cr6+3 0.770120 0.832270 0.251810 0.999076
Cr9   Cr    Cr6+3 0.888120 0.178590 0.753010 0.995632
Cr10  Cr    Cr6+3 0.111880 0.178590 0.246990 0.998849
Cr11  Cr    Cr6+3 0.388120 0.678590 0.753010 0.995634
Cr12  Cr    Cr6+3 0.611880 0.678590 0.246990 0.998850
H1    H     H_    0.639519 0.092791 0.450827 0.131026
H2    H     H_    0.361150 0.093041 0.548347 0.131868
H3    H     H_    0.139519 0.592791 0.450827 0.131026
H4    H     H_    0.861150 0.593041 0.548347 0.131868
H5    H     H_    0.863345 0.070391 0.540461 0.127823
H6    H     H_    0.136640 0.068964 0.459785 0.126738
H7    H     H_    0.363345 0.570391 0.540461 0.127823
H8    H     H_    0.636640 0.568964 0.459785 0.126738
H9    H     H_    0.807923 0.908555 0.470888 0.125781
H10   H     H_    0.191554 0.909896 0.532480 0.128430
H11   H     H_    0.307923 0.408554 0.470888 0.125781
H12   H     H_    0.691554 0.409896 0.532480 0.128430
H13   H     H_    0.795461 0.911683 0.590320 0.126010
H14   H     H_    0.204150 0.911119 0.413047 0.124951
H15   H     H_    0.295461 0.411683 0.590320 0.126010
H16   H     H_    0.704150 0.411119 0.413047 0.124951
H17   H     H_    0.047223 0.153454 0.445234 0.129567
H18   H     H_    0.952643 0.153242 0.559135 0.132552
H19   H     H_    0.547223 0.653454 0.445234 0.129567
H20   H     H_    0.452643 0.653242 0.559135 0.132552
H21   H     H_    0.960313 0.160915 0.435693 0.109145
H22   H     H_    0.039421 0.163251 0.568207 0.109828
H23   H     H_    0.460313 0.660915 0.435693 0.109145
H24   H     H_    0.539421 0.663251 0.568207 0.109828
H25   H     H_    0.615958 0.888600 0.455882 0.110004
H26   H     H_    0.384236 0.889749 0.543550 0.108541
H27   H     H_    0.115958 0.388600 0.455882 0.110004
H28   H     H_    0.884236 0.389749 0.543550 0.108541
H29   H     H_    0.599286 0.836384 0.577341 0.110457
H30   H     H_    0.400449 0.833430 0.423605 0.109652
H31   H     H_    0.099285 0.336384 0.577341 0.110457
H32   H     H_    0.900449 0.333430 0.423605 0.109653
H33   H     H_    0.938507 0.475282 0.415912 0.129140
H34   H     H_    0.061383 0.477882 0.581014 0.127239
H35   H     H_    0.438507 0.975282 0.415912 0.129140
H36   H     H_    0.561383 0.977882 0.581014 0.127238
H37   H     H_    0.947511 0.499181 0.534321 0.128894
H38   H     H_    0.053109 0.498113 0.462131 0.132885
H39   H     H_    0.447511 0.999181 0.534321 0.128894
H40   H     H_    0.553109 0.998113 0.462131 0.132885
H41   H     H_    0.809255 0.910141 0.058069 0.166930
H42   H     H_    0.176721 0.915052 0.945740 0.151339
H43   H     H_    0.309255 0.410142 0.058069 0.166930
H44   H     H_    0.676722 0.415051 0.945738 0.151350
H45   H     H_    0.688380 0.217700 0.438099 0.111169
H46   H     H_    0.313662 0.219063 0.559462 0.109658
H47   H     H_    0.188380 0.717700 0.438099 0.111169
H48   H     H_    0.813662 0.719063 0.559462 0.109658
H49   H     H_    0.866294 0.032080 0.943003 0.137825
H50   H     H_    0.121653 0.053253 0.050123 0.131508
H51   H     H_    0.366295 0.532084 0.943004 0.137823
H52   H     H_    0.621653 0.553247 0.050121 0.131497
H53   H     H_    0.804461 0.923542 0.938547 0.145996
H54   H     H_    0.183056 0.945085 0.063790 0.159186
H55   H     H_    0.304462 0.423544 0.938547 0.145996
H56   H     H_    0.683058 0.445081 0.063790 0.159186
H57   H     H_    0.686045 0.928729 0.043586 0.107115
H58   H     H_    0.287804 0.928325 0.988336 0.133408
H59   H     H_    0.186045 0.428731 0.043586 0.107114
H60   H     H_    0.787805 0.428322 0.988339 0.133409
H61   H     H_    0.718565 0.245947 0.081926 0.142863
H62   H     H_    0.299182 0.226725 0.917088 0.132242
H63   H     H_    0.218566 0.745948 0.081927 0.142866
H64   H     H_    0.799184 0.726723 0.917090 0.132241
H65   H     H_    0.808113 0.227850 0.082262 0.165000
H66   H     H_    0.213621 0.223887 0.885517 0.190230
H67   H     H_    0.308114 0.727850 0.082262 0.164999
H68   H     H_    0.713623 0.723885 0.885518 0.190230
H69   H     H_    0.801875 0.265487 0.953149 0.091770
H70   H     H_    0.173923 0.255641 0.997112 0.139793
H71   H     H_    0.301874 0.765490 0.953149 0.091770
H72   H     H_    0.673925 0.755641 0.997114 0.139787
H73   H     H_    0.716945 0.261160 0.962474 0.100518
H74   H     H_    0.254718 0.292107 0.019502 0.100989
H75   H     H_    0.216945 0.761161 0.962475 0.100518
H76   H     H_    0.754720 0.792103 0.019503 0.100987
H77   H     H_    0.641881 0.062106 0.054651 0.119669
H78   H     H_    0.351573 0.028795 0.954662 0.110697
H79   H     H_    0.141881 0.562107 0.054651 0.119669
H80   H     H_    0.851575 0.528790 0.954665 0.110695
H81   H     H_    0.689308 0.236400 0.559805 0.135764
H82   H     H_    0.311128 0.238361 0.437723 0.139036
H83   H     H_    0.189308 0.736400 0.559805 0.135764
H84   H     H_    0.811128 0.738361 0.437723 0.139036
H85   H     H_    0.650850 0.118112 0.938827 0.140703
H86   H     H_    0.336498 0.144933 0.056112 0.135840
H87   H     H_    0.150851 0.618113 0.938827 0.140704
H88   H     H_    0.836499 0.644930 0.056114 0.135839
H89   H     H_    0.031821 0.551866 0.057953 0.124350
H90   H     H_    0.951867 0.556792 0.944246 0.117454
H91   H     H_    0.531822 0.051866 0.057952 0.124350
H92   H     H_    0.451867 0.056791 0.944246 0.117454
H93   H     H_    0.944715 0.519023 0.068477 0.177292
H94   H     H_    0.034783 0.511933 0.938758 0.178674
H95   H     H_    0.444716 0.019024 0.068477 0.177292
H96   H     H_    0.534784 0.011931 0.938757 0.178677
H97   H     H_    0.596611 0.870918 0.011117 0.149888
H98   H     H_    0.377367 0.857960 0.000601 0.149108
H99   H     H_    0.096612 0.370920 0.011118 0.149885
H100  H     H_    0.877367 0.357956 0.000601 0.149105
H101  H     H_    0.562769 0.801786 0.901475 0.193500
H102  H     H_    0.410217 0.806448 0.110635 0.170736
H103  H     H_    0.062770 0.301796 0.901474 0.193500
H104  H     H_    0.910217 0.306445 0.110634 0.170735
H105  H     H_    0.964017 0.196941 0.079656 0.123224
H106  H     H_    0.010914 0.191896 0.941964 0.135387
H107  H     H_    0.464016 0.696943 0.079656 0.123227
H108  H     H_    0.510910 0.691893 0.941967 0.135372
H109  H     H_    0.900608 0.213703 0.971915 0.121499
H110  H     H_    0.077921 0.222656 0.042686 0.116050
H111  H     H_    0.400606 0.713705 0.971917 0.121497
H112  H     H_    0.577921 0.722656 0.042687 0.116046
H113  H     H_    0.649847 0.101699 0.572603 0.113641
H114  H     H_    0.350607 0.104096 0.426728 0.113376
H115  H     H_    0.149847 0.601699 0.572603 0.113641
H116  H     H_    0.850607 0.604096 0.426728 0.113376
H117  H     H_    0.721214 0.870457 0.466251 0.105693
H118  H     H_    0.278186 0.872000 0.538123 0.107436
H119  H     H_    0.221214 0.370457 0.466251 0.105693
H120  H     H_    0.778186 0.371999 0.538123 0.107436
H121  H     H_    0.705710 0.925171 0.586302 0.113298
H122  H     H_    0.294098 0.925917 0.416919 0.114599
H123  H     H_    0.205710 0.425171 0.586302 0.113298
H124  H     H_    0.794098 0.425917 0.416919 0.114599
H125  H     H_    0.854721 0.090123 0.421110 0.125436
H126  H     H_    0.145666 0.091509 0.578698 0.125482
H127  H     H_    0.354721 0.590123 0.421110 0.125435
H128  H     H_    0.645666 0.591509 0.578698 0.125482
H129  H     H_    0.804295 0.219189 0.425208 0.109146
H130  H     H_    0.196819 0.220828 0.571279 0.108599
H131  H     H_    0.304295 0.719189 0.425208 0.109145
H132  H     H_    0.696819 0.720828 0.571279 0.108599
H133  H     H_    0.840643 0.220499 0.545403 0.109241
H134  H     H_    0.159690 0.219283 0.451166 0.109376
H135  H     H_    0.340643 0.720499 0.545403 0.109241
H136  H     H_    0.659690 0.719283 0.451166 0.109376
O1    O     O_R   0.957210 0.449410 0.665480 -0.523655
O2    O     O_R   0.042790 0.449410 0.334520 -0.526990
O3    O     O_R   0.457210 0.949410 0.665480 -0.523656
O4    O     O_R   0.542790 0.949410 0.334520 -0.526991
O5    O     O_R   0.736260 0.212010 0.826560 -0.498368
O6    O     O_R   0.263740 0.212010 0.173440 -0.473997
O7    O     O_R   0.236260 0.712010 0.826560 -0.498364
O8    O     O_R   0.763740 0.712010 0.173440 -0.474001
O9    O     O_R   0.832520 0.095300 0.836000 -0.537168
O10   O     O_R   0.167480 0.095300 0.164000 -0.504844
O11   O     O_R   0.332520 0.595300 0.836000 -0.537168
O12   O     O_R   0.667480 0.595300 0.164000 -0.504842
O13   O     O_R   0.946380 0.253940 0.826940 -0.510809
O14   O     O_R   0.053620 0.253940 0.173060 -0.530844
O15   O     O_R   0.446380 0.753940 0.826940 -0.510810
O16   O     O_R   0.553620 0.753940 0.173060 -0.530843
O17   O     O_3   0.834560 0.334570 0.748840 -0.305803
O18   O     O_3   0.165440 0.334570 0.251160 -0.302997
O19   O     O_3   0.334560 0.834570 0.748840 -0.305802
O20   O     O_3   0.665440 0.834570 0.251160 -0.302997
O21   O     O_R   0.820730 0.541240 0.668250 -0.513109
O22   O     O_R   0.179270 0.541240 0.331750 -0.512509
O23   O     O_R   0.320730 0.041240 0.668250 -0.513109
O24   O     O_R   0.679270 0.041240 0.331750 -0.512509
O25   O     O_R   0.714240 0.455060 0.663710 -0.532099
O26   O     O_R   0.285760 0.455060 0.336290 -0.534287
O27   O     O_R   0.214240 0.955060 0.663710 -0.532101
O28   O     O_R   0.785760 0.955060 0.336290 -0.534287
O29   O     O_R   0.736780 0.204870 0.675910 -0.507184
O30   O     O_R   0.263220 0.204870 0.324090 -0.504334
O31   O     O_R   0.236780 0.704870 0.675910 -0.507183
O32   O     O_R   0.763220 0.704870 0.324090 -0.504334
O33   O     O_R   0.833070 0.087590 0.673490 -0.526448
O34   O     O_R   0.166930 0.087590 0.326510 -0.520712
O35   O     O_R   0.333070 0.587590 0.673490 -0.526448
O36   O     O_R   0.666930 0.587590 0.326510 -0.520712
O37   O     O_R   0.946890 0.246800 0.676300 -0.510074
O38   O     O_R   0.053110 0.246800 0.323700 -0.513281
O39   O     O_R   0.446890 0.746800 0.676300 -0.510073
O40   O     O_R   0.553110 0.746800 0.323700 -0.513281
O41   O     O_R   0.956650 0.457120 0.827980 -0.503249
O42   O     O_R   0.043350 0.457120 0.172020 -0.517563
O43   O     O_R   0.456650 0.957120 0.827980 -0.503249
O44   O     O_R   0.543350 0.957120 0.172020 -0.517564
O45   O     O_R   0.820220 0.548390 0.818890 -0.516256
O46   O     O_R   0.179780 0.548390 0.181110 -0.507350
O47   O     O_R   0.320220 0.048390 0.818890 -0.516256
O48   O     O_R   0.679780 0.048390 0.181110 -0.507350
O49   O     O_R   0.713680 0.462770 0.826210 -0.538721
O50   O     O_R   0.286320 0.462770 0.173790 -0.541238
O51   O     O_R   0.213680 0.962770 0.826210 -0.538733
O52   O     O_R   0.786320 0.962770 0.173790 -0.541239
C121  C     C_3   0.886108 0.022196 0.077386 -0.282868
C122  C     C_3   0.922131 0.910980 0.104411 -0.440993
H137  H     H_    0.894231 0.867434 0.148900 0.196382
H138  H     H_    0.927719 0.847967 0.060008 0.126842
H139  H     H_    0.973281 0.934592 0.124192 0.133711
H140  H     H_    0.920894 0.055087 0.035998 0.129254
H141  H     H_    0.882408 0.083860 0.122538 0.176498
C123  C     C_3   0.114908 0.050775 0.913383 -0.273120
C124  C     C_3   0.052146 0.974433 0.928443 -0.467154
H142  H     H_    0.062392 0.881655 0.915390 0.154163
H143  H     H_    0.036191 0.979514 0.985190 0.135423
H144  H     H_    0.009584 0.004231 0.894207 0.147959
H145  H     H_    0.109835 0.138940 0.930201 0.149543
H146  H     H_    0.120066 0.059131 0.854677 0.200542
C125  C     C_3   0.386109 0.522196 0.077387 -0.282869
C126  C     C_3   0.422130 0.410981 0.104414 -0.441002
H147  H     H_    0.394232 0.367439 0.148901 0.196384
H148  H     H_    0.427719 0.347966 0.060017 0.126838
H149  H     H_    0.473278 0.434589 0.124196 0.133710
H150  H     H_    0.420896 0.555084 0.035999 0.129261
H151  H     H_    0.382408 0.583862 0.122538 0.176498
C127  C     C_3   0.614914 0.550784 0.913383 -0.273118
C128  C     C_3   0.552158 0.474412 0.928409 -0.467154
H152  H     H_    0.562406 0.381665 0.915287 0.154191
H153  H     H_    0.536221 0.479382 0.985165 0.135436
H154  H     H_    0.509586 0.504264 0.894207 0.147956
H155  H     H_    0.609827 0.638927 0.930233 0.149537
H156  H     H_    0.620083 0.559199 0.854681 0.200540
Br1   Br    Br    0.666199 0.934946 0.881002 -0.683573
Br2   Br    Br    0.316027 0.964020 0.131313 -0.627714
Br3   Br    Br    0.166200 0.434949 0.881001 -0.683571
Br4   Br    Br    0.816028 0.464018 0.131315 -0.627712

loop_
_geom_bond_atom_site_label_1
_geom_bond_atom_site_label_2
_ccdc_geom_bond_type
C78   H94   S    
C122  H138  S    
C82   C94   S    
C119  H11   S    
C10   C110  S    
C7    H127  S    
C120  H12   S    
C41   C61   S    
C116  H84   S    
C53   C69   S    
C104  O12   A    
C56   H60   S    
C120  H120  S    
C43   C63   S    
Cr5   O5    S    
C44   C64   S    
C70   H86   S    
C16   C20   S    
C63   C98   S    
C51   H51   S    
C127  H155  S    
C122  H139  S    
C31   H40   S    
C28   C40   S    
C36   H36   S    
C30   C38   S    
C75   H75   S    
C56   C72   S    
C105  O13   A    
C21   H5    S    
C8    H132  S    
C84   H98   S    
C18   C118  S    
C81   C86   S    
C108  O16   A    
C83   C88   S    
C111  H47   S    
C90   O2    A    
C72   H88   S    
C41   C49   S    
Cr8   O32   S    
Cr5   O17   S    
C118  H10   S    
Cr2   O46   S    
C109  H1    S    
Cr7   O19   S    
Cr8   O20   S    
C118  H118  S    
C127  C128  S    
C26   C38   S    
Cr10  O38   S    
C59   H63   S    
C14   C114  S    
C73   H69   S    
C83   H112  S    
C60   C76   S    
C24   H8    S    
C55   H59   S    
C81   H110  S    
C30   H37   S    
C123  H145  S    
C22   H134  S    
C54   C70   S    
C68   C72   S    
C97   O49   A    
C115  H83   S    
C98   O46   A    
C102  O6    A    
C99   O51   A    
C31   H25   S    
C19   H123  S    
C64   C97   S    
C17   H13   S    
C15   C115  S    
C43   C125  S    
C20   C120  S    
Cr7   O27   S    
Cr8   O28   S    
C57   H65   S    
C52   H52   S    
Cr7   O7    S    
C126  H147  S    
Cr4   O24   S    
C57   C61   S    
C82   C85   S    
C59   C63   S    
C60   C64   S    
Cr9   O17   S    
C13   C45   S    
C66   C70   S    
C78   C94   S    
C44   C127  S    
C23   H135  S    
C86   H106  S    
C95   C108  S    
C60   H68   S    
C62   C99   S    
C5    C21   S    
C121  C122  S    
C81   H99   S    
C57   H61   S    
C110  H46   S    
C31   C36   S    
C48   O32   A    
C55   C71   S    
C76   H76   S    
Cr6   O26   S    
C6    C22   S    
C114  H82   S    
Cr2   O22   S    
C65   C101  S    
Cr10  O18   S    
C43   C51   S    
Cr11  O15   S    
C67   C103  S    
C18   H122  S    
C88   H101  S    
C37   C90   S    
Cr11  O35   S    
C113  H113  S    
C66   C74   S    
C25   H17   S    
C57   C73   S    
C105  O41   A    
C85   C93   S    
C107  O43   A    
C55   C63   S    
Cr5   O49   S    
C56   C64   S    
C7    H131  S    
C2    O22   A    
C45   O33   A    
C104  O8    A    
C85   H105  S    
C112  H48   S    
C44   C52   S    
Cr6   O6    S    
C124  H143  S    
C50   H50   S    
C1    C12   S    
Cr9   O37   S    
C112  H4    S    
C126  H149  S    
C2    C11   S    
C7    C11   S    
Cr12  O12   S    
C87   H107  S    
C42   H42   S    
C75   H71   S    
C15   C47   S    
C25   C26   S    
C125  C126  S    
C106  O14   A    
C8    H128  S    
C5    C9    S    
C119  H119  S    
C93   C106  S    
C8    C12   S    
C5    H125  S    
C6    H130  S    
C51   C67   S    
C78   H90   S    
C49   H49   S    
C42   C50   S    
C69   Br1   S    
Cr6   O18   S    
Cr3   O47   S    
C110  H2    S    
C61   C100  S    
C67   C75   S    
C50   H54   S    
Cr1   O1    S    
C12   C112  S    
C58   C74   S    
Cr3   O3    S    
C41   H41   S    
Cr4   O4    S    
C54   H58   S    
C33   H33   S    
C44   H44   S    
C123  C124  S    
C79   H91   S    
C68   C76   S    
C13   C17   S    
C98   O50   A    
C14   C22   S    
C99   O47   A    
C103  O7    A    
C127  H156  S    
C13   C21   S    
C7    C23   S    
C8    C24   S    
C40   C91   S    
Cr7   O31   S    
C54   H78   S    
C49   H53   S    
Cr1   O41   S    
Cr3   O43   S    
C52   H56   S    
C4    C9    S    
C53   H57   S    
Cr10  O34   S    
C91   O39   A    
C58   C62   S    
C5    H129  S    
C88   C96   S    
C94   C105  S    
C77   H93   S    
C125  H151  S    
C42   C123  S    
C14   C46   S    
C77   C78   S    
C15   C19   S    
Cr9   O33   S    
C69   H85   S    
C101  O9    A    
C125  H150  S    
C92   O4    A    
C112  C116  S    
C108  O44   A    
C121  H140  S    
C88   H108  S    
C71   H87   S    
C66   C102  S    
Cr11  O39   S    
Cr7   O51   S    
C116  H116  S    
Cr8   O52   S    
C113  H81   S    
Cr3   O23   S    
Cr11  O11   S    
C17   C117  S    
C42   C62   S    
C74   H70   S    
C122  H137  S    
C19   C119  S    
C24   H136  S    
C9    C109  S    
C2    O26   A    
Cr12  O40   S    
C16   C116  S    
C100  O48   A    
C20   H124  S    
C115  H115  S    
C27   H23   S    
C25   H21   S    
C26   H18   S    
C126  H148  S    
C117  H117  S    
C106  O42   A    
C54   C62   S    
C48   O36   A    
C11   C111  S    
C29   C34   S    
C58   H62   S    
C33   C37   S    
C82   H109  S    
C45   O29   A    
C117  H9    S    
C4    O24   A    
C79   C95   S    
C89   O37   A    
C80   H92   S    
Cr5   O29   S    
Cr5   O25   S    
C76   H72   S    
Cr1   O17   S    
C80   H96   S    
Cr3   O19   S    
Cr4   O20   S    
Cr12  O16   S    
C32   H39   S    
C71   Br3   S    
C39   C92   S    
C27   H19   S    
C107  O15   A    
C68   C104  S    
C6    C10   S    
C1    O25   A    
C83   H97   S    
C22   H6    S    
C6    H126  S    
C121  H141  S    
C103  O11   A    
C111  H3    S    
C114  H114  S    
C128  H153  S    
C65   C69   S    
C77   C93   S    
Cr4   O44   S    
C84   H111  S    
C67   C71   S    
C19   H15   S    
C51   H55   S    
Cr2   O2    S    
C3    O27   A    
C109  H45   S    
C53   H77   S    
Cr12  O36   S    
C29   C37   S    
C34   H34   S    
C92   O40   A    
C46   O30   A    
C43   H43   S    
C128  H152  S    
C85   H104  S    
C9    C117  S    
C124  H142  S    
C14   C18   S    
C35   C39   S    
C84   C87   S    
C3    O23   A    
C11   C119  S    
C16   C48   S    
C29   H27   S    
Cr12  O20   S    
C30   H28   S    
C38   C89   S    
C17   H121  S    
C87   H102  S    
C49   C65   S    
C89   O1    A    
C23   H7    S    
C56   H80   S    
C91   O3    A    
Cr1   O45   S    
Cr2   O42   S    
C65   C73   S    
C84   C96   S    
Cr4   O48   S    
Cr8   O8    S    
C86   C94   S    
C25   C37   S    
C12   C120  S    
C59   H67   S    
C35   H35   S    
Cr9   O9    S    
C29   H38   S    
C80   C96   S    
C52   C68   S    
C21   H133  S    
C15   C23   S    
C16   C24   S    
C97   O45   A    
C101  O5    A    
C53   C61   S    
C102  O10   A    
C79   H95   S    
C32   H26   S    
C35   H30   S    
C1    O21   A    
C72   Br4   S    
C32   C35   S    
C36   C40   S    
C33   H32   S    
C34   H31   S    
C27   C39   S    
Cr6   O50   S    
C73   H73   S    
C87   C95   S    
Cr10  O10   S    
C46   O34   A    
C10   C118  S    
C81   C93   S    
C83   C95   S    
C20   H16   S    
C82   H100  S    
Cr9   O13   S    
C50   C66   S    
C100  O52   A    
C77   H89   S    
C70   Br2   S    
C28   H20   S    
C124  H144  S    
C26   H22   S    
C59   C75   S    
C60   H64   S    
C74   H74   S    
C110  C114  S    
C58   H66   S    
C30   C33   S    
C34   C38   S    
C96   C107  S    
C47   O35   A    
C4    O28   A    
C18   H14   S    
C41   C121  S    
C90   O38   A    
Cr6   O30   S    
C109  C113  S    
C86   H103  S    
Cr1   O21   S    
Cr2   O18   S    
Cr10  O14   S    
C3    C10   S    
Cr11  O19   S    
C36   H29   S    
C123  H146  S    
C31   C39   S    
C32   C40   S    
C55   H79   S    
C79   C80   S    
C128  H154  S    
C27   C28   S    
C28   H24   S    
C111  C115  S    
C13   C113  S    
C47   O31   A    
