data_str_m9_o11_o18_f0_sra.sym.128
_audit_creation_date              2012-12-11T14:21:04-0500
_audit_creation_method            fapswitch 2.2
_symmetry_space_group_name_H-M    P1
_symmetry_Int_Tables_number       1
_space_group_crystal_system       triclinic
_cell_length_a                    21.95386
_cell_length_b                    7.205291
_cell_length_c                    14.920997
_cell_angle_alpha                 89.999922
_cell_angle_beta                  107.311215
_cell_angle_gamma                 90.000234
_cell_volume                      2253.34843596

loop_
_atom_site_label
_atom_site_type_symbol
_atom_type_description
_atom_site_fract_x
_atom_site_fract_y
_atom_site_fract_z
_atom_type_partial_charge
O1    O     O_R   0.584770 0.505770 0.002090 -0.532006
O2    O     O_R   0.415230 0.005770 0.997910 -0.532004
O3    O     O_R   0.467060 0.173340 0.861950 -0.528669
O4    O     O_R   0.532940 0.673340 0.138050 -0.528669
C1    C     C_R   0.455016 0.344047 0.825821 0.688905
C2    C     C_R   0.544983 0.844047 0.174178 0.688897
O5    O     O_R   0.587510 0.175890 0.993210 -0.550538
O6    O     O_R   0.412490 0.675890 0.006790 -0.550538
O7    O     O_R   0.536540 0.008150 0.130100 -0.539029
O8    O     O_R   0.463460 0.508150 0.869900 -0.539030
C3    C     C_R   0.612352 0.345190 0.994595 0.633870
C4    C     C_R   0.387648 0.845190 0.005405 0.633864
O9    O     O_3   0.483140 0.340040 0.044760 -0.376078
O10   O     O_3   0.516860 0.840040 0.955240 -0.376080
V1    V     V_3+5 0.503130 0.064190 0.991700 1.482267
V2    V     V_3+5 0.496870 0.564190 0.008300 1.482265
C5    C     C_2   0.212759 0.730506 0.994265 -0.084782
C6    C     C_2   0.787240 0.230504 0.005732 -0.084792
C7    C     C_2   0.178439 0.887619 0.988853 -0.220285
C8    C     C_2   0.821562 0.387617 0.011147 -0.220283
H1    H     H_    0.190883 0.597639 0.000014 0.138773
H2    H     H_    0.809115 0.097638 0.999980 0.138768
H3    H     H_    0.198227 0.019274 0.975866 0.200491
H4    H     H_    0.801774 0.519271 0.024136 0.200487
C9    C     C_2   0.278771 0.726022 0.985701 -0.101507
C10   C     C_2   0.721228 0.226021 0.014297 -0.101498
C11   C     C_2   0.322850 0.860416 0.017748 0.221115
C12   C     C_2   0.677150 0.360418 0.982252 0.221112
H5    H     H_    0.291926 0.602108 0.954324 0.114957
H6    H     H_    0.708072 0.102104 0.045671 0.114946
C13   C     C_R   0.925916 0.884604 0.723667 -0.045065
C14   C     C_R   0.074084 0.384606 0.276334 -0.045073
C15   C     C_R   0.572218 0.847939 0.276233 -0.043930
C16   C     C_R   0.427782 0.347931 0.723766 -0.043936
C17   C     C_R   0.936063 0.865526 0.567585 -0.068969
C18   C     C_R   0.063935 0.365606 0.432417 -0.068973
C19   C     C_R   0.963804 0.887622 0.663775 -0.133348
C20   C     C_R   0.036196 0.387682 0.336226 -0.133364
C21   C     C_R   0.859884 0.865471 0.687196 -0.167067
C22   C     C_R   0.140115 0.365435 0.312806 -0.167067
C23   C     C_R   0.830018 0.843077 0.589504 0.065617
C24   C     C_R   0.169978 0.343058 0.410500 0.065618
C25   C     C_R   0.869550 0.839456 0.529232 0.006309
C26   C     C_R   0.130446 0.339502 0.470773 0.006302
C27   C     C_R   0.762392 0.826350 0.550220 -0.049867
C28   C     C_R   0.237603 0.326293 0.449785 -0.049871
C29   C     C_R   0.735171 0.812682 0.451098 -0.059467
C30   C     C_R   0.264824 0.312677 0.548909 -0.059470
C31   C     C_R   0.776430 0.774398 0.395624 0.235445
C32   C     C_R   0.223563 0.274460 0.604389 0.235443
C33   C     C_R   0.842598 0.800616 0.432984 0.242416
C34   C     C_R   0.157396 0.300697 0.567025 0.242408
C35   C     C_R   0.721084 0.819743 0.607047 -0.147442
C36   C     C_R   0.278910 0.319594 0.392958 -0.147448
C37   C     C_R   0.655105 0.810391 0.569337 0.329738
C38   C     C_R   0.344888 0.310218 0.430667 0.329735
C39   C     C_R   0.627408 0.811641 0.471075 0.032658
C40   C     C_R   0.372586 0.311534 0.528928 0.032667
C41   C     C_R   0.667428 0.827084 0.411965 0.083051
C42   C     C_R   0.332568 0.327054 0.588038 0.083049
C43   C     C_R   0.560801 0.794887 0.430062 -0.159733
C44   C     C_R   0.439192 0.294763 0.569942 -0.159731
C45   C     C_R   0.533860 0.807914 0.333233 -0.154511
C46   C     C_R   0.466136 0.307839 0.666769 -0.154499
C47   C     C_R   0.638140 0.864899 0.315887 -0.125517
C48   C     C_R   0.361860 0.364913 0.684111 -0.125536
H7    H     H_    0.666025 0.906767 0.270666 0.152599
H8    H     H_    0.333978 0.406829 0.729329 0.152603
H9    H     H_    0.482930 0.788287 0.302748 0.119492
H10   H     H_    0.517065 0.288189 0.697254 0.119485
H11   H     H_    0.967731 0.866344 0.524328 0.181521
H12   H     H_    0.032267 0.366473 0.475675 0.181532
H13   H     H_    0.015072 0.903377 0.691709 0.157424
H14   H     H_    0.984929 0.403472 0.308291 0.157450
H15   H     H_    0.833659 0.869329 0.737680 0.093288
H16   H     H_    0.166341 0.369264 0.262323 0.093290
H17   H     H_    0.738249 0.819651 0.682473 0.149492
H18   H     H_    0.261742 0.319437 0.317531 0.149496
H19   H     H_    0.528974 0.766296 0.471453 0.128945
H20   H     H_    0.471018 0.266115 0.528554 0.128925
O11   O     O_R   0.036450 0.233070 0.130130 -0.536843
O12   O     O_R   0.963550 0.733070 0.869870 -0.536841
O13   O     O_R   0.912470 0.560570 0.006790 -0.539078
O14   O     O_R   0.087530 0.060570 0.993210 -0.539076
C49   C     C_R   0.887437 0.391870 0.004309 0.705276
C50   C     C_R   0.112563 0.891871 0.995691 0.705275
O15   O     O_R   0.032920 0.562940 0.138050 -0.534351
O16   O     O_R   0.967080 0.062940 0.861950 -0.534349
O17   O     O_R   0.084790 0.730500 0.002090 -0.539767
O18   O     O_R   0.915210 0.230500 0.997910 -0.539768
C51   C     C_R   0.045060 0.394365 0.174631 0.688577
C52   C     C_R   0.954940 0.894365 0.825369 0.688581
O19   O     O_3   0.016820 0.396170 0.955260 -0.374246
O20   O     O_3   0.983180 0.896170 0.044740 -0.374250
V3    V     V_3+5 0.996880 0.672090 0.008300 1.489392
V4    V     V_3+5 0.003120 0.172090 0.991700 1.489397
Br1   Br    Br    0.747449 0.634064 0.279504 -0.515511
Br2   Br    Br    0.252537 0.134185 0.720529 -0.515514
O21   O     O_3   0.308100 0.010334 0.065498 -0.641028
H21   H     H_    0.346972 0.086085 0.091911 0.301578
O22   O     O_3   0.691901 0.510339 0.934504 -0.641033
H22   H     H_    0.653030 0.586094 0.908093 0.301576
Br3   Br    Br    0.896053 0.773358 0.351199 -0.516230
Br4   Br    Br    0.103939 0.273522 0.648813 -0.516197
O23   O     O_3   0.619748 0.805992 0.631903 -0.642142
H23   H     H_    0.580300 0.879023 0.605577 0.283831
O24   O     O_3   0.380244 0.305729 0.368100 -0.642143
H24   H     H_    0.419695 0.378753 0.394409 0.283837

loop_
_geom_bond_atom_site_label_1
_geom_bond_atom_site_label_2
_ccdc_geom_bond_type
C40   C44   A    
C48   H8    S    
O16   V4    S    
O4    V2    S    
O22   H22   S    
O15   C51   A    
C35   H17   S    
C6    C10   S    
C7    C50   S    
O2    C4    A    
C16   C48   A    
C2    O7    A    
C15   C47   A    
C21   H15   S    
C29   C31   A    
O5    C3    A    
C11   O21   S    
C37   O23   S    
C44   H20   S    
C17   C19   A    
O14   C50   A    
O14   V4    S    
C39   C41   A    
C14   C51   S    
C33   Br3   S    
O12   C52   A    
C24   C28   A    
C27   C29   A    
C43   C45   A    
C8    H4    S    
C44   C46   A    
C12   O22   S    
C45   H9    S    
C13   C21   A    
C31   C33   A    
O15   V3    S    
C32   C34   A    
O24   H24   S    
C14   C20   A    
C17   C25   A    
O6    C4    A    
C26   C34   A    
C30   C32   A    
C42   C48   A    
O6    V2    S    
C8    C49   S    
C23   C25   A    
C24   C26   A    
C30   C42   A    
C28   C30   A    
C35   C37   A    
C9    H5    S    
C36   C38   A    
C32   Br2   S    
C4    C11   S    
O16   C52   A    
C21   C23   A    
O11   V4    S    
C47   H7    S    
C31   Br1   S    
C27   C35   A    
C5    H1    S    
C22   H16   S    
O17   V3    S    
C7    H3    S    
C38   O24   S    
O21   H21   S    
C15   C45   A    
O13   V3    S    
C1    C16   S    
C28   C36   A    
C16   C46   A    
O1    V2    S    
C39   C43   A    
O2    V1    S    
O4    C2    A    
O13   C49   A    
C10   H6    S    
O19   V4    S    
C46   H10   S    
C37   C39   A    
C18   C26   A    
O3    V1    S    
C20   H14   S    
C19   H13   S    
C34   Br4   S    
O12   V3    S    
C6    H2    S    
C22   C24   A    
O3    C1    A    
C50   O17   A    
C49   O18   A    
O18   V4    S    
C9    C11   D    
O23   H23   S    
C10   C12   D    
C2    C15   S    
C5    C9    S    
C18   C20   A    
O7    V1    S    
C1    O8    A    
C17   H11   S    
O8    V2    S    
C41   C47   A    
C25   C33   A    
C3    C12   S    
C43   H19   S    
O5    V1    S    
C5    C7    D    
C38   C40   A    
C6    C8    D    
C14   C22   A    
O20   V3    S    
C29   C41   A    
O11   C51   A    
C13   C19   A    
C13   C52   S    
O9    V2    S    
C23   C27   A    
O10   V1    S    
O1    C3    A    
C40   C42   A    
C18   H12   S    
C36   H18   S    
