data_str_m9_o2_o17_f0_sra.sym.30
_audit_creation_date              2012-12-11T16:26:26-0500
_audit_creation_method            fapswitch 2.2
_symmetry_space_group_name_H-M    P1
_symmetry_Int_Tables_number       1
_space_group_crystal_system       triclinic
_cell_length_a                    6.935946
_cell_length_b                    17.529407
_cell_length_c                    19.474845
_cell_angle_alpha                 108.664396
_cell_angle_beta                  89.662891
_cell_angle_gamma                 90.554703
_cell_volume                      2243.17090175

loop_
_atom_site_label
_atom_site_type_symbol
_atom_type_description
_atom_site_fract_x
_atom_site_fract_y
_atom_site_fract_z
_atom_type_partial_charge
O1    O     O_R   0.494330 0.415720 0.413720 -0.532139
O2    O     O_R   0.819330 0.430070 0.560210 -0.554332
O3    O     O_R   0.994320 0.584280 0.586280 -0.544425
C1    C     C_R   0.650220 0.414681 0.581561 0.669802
O4    O     O_R   0.823730 0.406300 0.412670 -0.526389
O5    O     O_R   0.998760 0.560340 0.437690 -0.510482
C2    C     C_R   0.654985 0.383929 0.384702 0.843412
O6    O     O_R   0.489890 0.439660 0.562310 -0.551456
O7    O     O_3   0.662340 0.550560 0.508380 -0.358385
V1    V     V_3+5 0.935370 0.490620 0.498450 1.491052
O8    O     O_R   0.328750 0.569930 0.439790 -0.510555
C3    C     C_R   0.160849 0.584587 0.417714 0.799570
O9    O     O_R   0.324340 0.593700 0.587330 -0.547162
C4    C     C_R   0.155528 0.616569 0.614930 0.665423
V2    V     V_3+5 0.435940 0.509380 0.501550 1.511780
O10   O     O_3   0.159100 0.449440 0.491620 -0.385399
C5    C     C_R   0.039015 0.591901 0.749147 -0.149997
C6    C     C_R   0.981253 0.577993 0.812769 -0.112924
C7    C     C_R   0.968970 0.641669 0.877187 -0.102790
C8    C     C_R   0.014312 0.719743 0.878483 -0.141934
C9    C     C_R   0.071886 0.735900 0.814617 0.066971
C10   C     C_R   0.084565 0.670642 0.748571 0.070189
C11   C     C_R   0.120124 0.815206 0.816041 -0.183546
C12   C     C_R   0.181090 0.829237 0.751401 0.067836
C13   C     C_R   0.193773 0.763979 0.685356 0.069441
C14   C     C_R   0.145461 0.684681 0.683927 -0.175458
C15   C     C_R   0.226712 0.907971 0.750828 -0.148913
C16   C     C_R   0.284575 0.921868 0.687212 -0.126695
C17   C     C_R   0.296870 0.858192 0.622797 -0.119123
C18   C     C_R   0.251430 0.780127 0.621495 -0.136833
H1    H     H_    0.048872 0.540100 0.700740 0.104369
H2    H     H_    0.946958 0.517368 0.812120 0.132433
H3    H     H_    0.925106 0.630483 0.926570 0.132854
H4    H     H_    0.004887 0.766977 0.930180 0.102956
H5    H     H_    0.216848 0.959775 0.799230 0.109577
H6    H     H_    0.318937 0.982487 0.687864 0.108041
H7    H     H_    0.260863 0.732894 0.569799 0.090309
C19   C     C_R   0.307991 0.632082 0.319631 0.581688
C20   C     C_R   0.153823 0.633261 0.367661 -0.191214
C21   C     C_R   0.991200 0.680540 0.367126 -0.207602
C22   C     C_R   0.982590 0.727249 0.320536 0.104965
C23   C     C_R   0.136802 0.725543 0.272472 -0.015790
C24   C     C_R   0.299468 0.677409 0.271657 -0.030635
C25   C     C_R   0.822528 0.775955 0.321330 -0.154885
C26   C     C_R   0.814177 0.822003 0.274474 -0.203342
C27   C     C_R   0.965499 0.820076 0.225790 0.096258
C28   C     C_R   0.128233 0.772064 0.225078 0.092463
C29   C     C_R   0.282544 0.770607 0.177116 0.091401
C30   C     C_R   0.442225 0.721749 0.176042 -0.205776
C31   C     C_R   0.450463 0.675486 0.222659 -0.086875
C32   C     C_R   0.957268 0.865485 0.178039 -0.220881
C33   C     C_R   0.111844 0.865195 0.130730 -0.084037
C34   C     C_R   0.274475 0.817874 0.130994 -0.223102
H8    H     H_    0.872178 0.681920 0.403845 0.164788
H9    H     H_    0.703023 0.778141 0.357990 0.125542
H10   H     H_    0.688558 0.858822 0.276043 0.129102
H11   H     H_    0.393777 0.816940 0.094506 0.129431
H12   H     H_    0.561685 0.719647 0.139378 0.144578
H13   H     H_    0.576376 0.638722 0.220625 0.222768
C35   C     C_R   0.468274 0.189636 0.870627 0.619431
C36   C     C_R   0.622482 0.137750 0.871525 -0.237052
C37   C     C_R   0.781083 0.133519 0.825223 -0.223586
C38   C     C_R   0.785198 0.178524 0.777187 0.169013
C39   C     C_R   0.629765 0.229580 0.775886 -0.107352
C40   C     C_R   0.470895 0.235739 0.823107 -0.165139
C41   C     C_R   0.941926 0.172872 0.729938 -0.097752
C42   C     C_R   0.945976 0.217853 0.682184 -0.212193
C43   C     C_R   0.792916 0.268994 0.680524 0.122510
C44   C     C_R   0.633562 0.274628 0.727215 0.087977
C45   C     C_R   0.478287 0.325379 0.725338 0.003685
C46   C     C_R   0.322300 0.331735 0.772780 -0.293864
C47   C     C_R   0.318267 0.287814 0.821392 0.686313
C48   C     C_R   0.796776 0.314726 0.633103 -0.234367
C49   C     C_R   0.641764 0.365094 0.630565 -0.078708
C50   C     C_R   0.482230 0.369522 0.676532 -0.179185
H14   H     H_    0.899832 0.093800 0.825448 0.156137
H15   H     H_    0.062241 0.133974 0.730227 0.105643
H16   H     H_    0.069421 0.212838 0.646681 0.121030
H17   H     H_    0.202530 0.370812 0.772224 0.156769
H18   H     H_    0.417230 0.142037 0.432293 0.110150
C51   C     C_R   0.763597 0.403970 0.245142 0.541756
C52   C     C_R   0.816608 0.413440 0.179109 0.627402
C53   C     C_R   0.806145 0.348795 0.115481 -0.259972
C54   C     C_R   0.741988 0.273965 0.117006 -0.215992
C55   C     C_R   0.688105 0.261770 0.182942 0.001452
C56   C     C_R   0.699670 0.327817 0.248763 -0.147948
C57   C     C_R   0.620282 0.185382 0.183523 -0.112224
C58   C     C_R   0.564230 0.174407 0.249805 0.075169
C59   C     C_R   0.576789 0.239725 0.315737 0.055194
C60   C     C_R   0.644572 0.316307 0.315416 -0.156757
C61   C     C_R   0.498226 0.098493 0.251977 -0.155519
C62   C     C_R   0.445219 0.087372 0.317236 -0.120307
C63   C     C_R   0.457687 0.151054 0.381652 -0.109552
C64   C     C_R   0.523108 0.226333 0.381277 -0.149234
H19   H     H_    0.734031 0.226010 0.065696 0.162422
H20   H     H_    0.487688 0.046778 0.203478 0.101139
H21   H     H_    0.395058 0.028894 0.317821 0.113440
O11   O     O_R   0.775200 0.060470 0.937800 -0.539361
O12   O     O_R   0.441110 0.093720 0.087350 -0.532923
O13   O     O_R   0.266330 0.939630 0.062280 -0.548014
C65   C     C_R   0.609907 0.116642 0.114971 0.686721
O14   O     O_R   0.445750 0.069950 0.939820 -0.505865
O15   O     O_R   0.271000 0.915700 0.913700 -0.540812
C66   C     C_R   0.614810 0.086335 0.919212 0.760246
O16   O     O_R   0.770530 0.084400 0.086380 -0.539936
O17   O     O_3   0.602830 0.949510 0.991680 -0.381707
V3    V     V_3+5 0.329710 0.009370 0.001550 1.500813
O18   O     O_R   0.940990 0.906170 0.912570 -0.542720
C67   C     C_R   0.109876 0.883337 0.885023 0.688081
O19   O     O_R   0.936350 0.929940 0.060100 -0.547854
C68   C     C_R   0.104384 0.914841 0.081716 0.691650
V4    V     V_3+5 0.829160 0.990450 0.998310 1.438965
O20   O     O_3   0.105910 0.050480 0.008320 -0.346190
H22   H     H_    0.340811 0.869371 0.573419 0.108923
H23   H     H_    0.831994 0.902237 0.178630 0.123383
F1    F     F_    0.316853 0.195892 0.916698 -0.626516
H24   H     H_    0.920289 0.310645 0.597753 0.126733
H25   H     H_    0.362979 0.408696 0.675489 0.122436
F2    F     F_    0.163730 0.296401 0.866274 -0.623480
F3    F     F_    0.773436 0.470564 0.304497 -0.622464
F4    F     F_    0.877404 0.486391 0.176805 -0.635651
H26   H     H_    0.846652 0.356749 0.064408 0.206544
H27   H     H_    0.531960 0.273565 0.433014 0.083434
F5    F     F_    0.464247 0.585411 0.318263 -0.640286

loop_
_geom_bond_atom_site_label_1
_geom_bond_atom_site_label_2
_ccdc_geom_bond_type
C57   C58   A    
C63   C64   A    
C48   C49   A    
C7    C8    A    
C12   C15   A    
C1    O6    A    
C46   H17   S    
C51   C52   A    
O17   V4    S    
C55   C56   A    
C33   C34   A    
C42   H16   S    
C51   F3    S    
C37   C38   A    
C31   H13   S    
C16   C17   A    
O5    C3    A    
C19   C20   A    
O17   V3    S    
V2    O10   S    
O18   C67   A    
C6    C7    A    
C22   C23   A    
C59   C64   A    
O19   C68   A    
V3    O20   S    
C17   H22   S    
C61   H20   S    
C57   C65   S    
O8    V2    S    
C28   C29   A    
C26   H10   S    
C43   C44   A    
C11   C12   A    
C45   C46   A    
O1    V2    S    
O7    V1    S    
C52   F4    S    
C1    C49   S    
C51   C56   A    
C8    H4    S    
C64   H27   S    
C41   C42   A    
C38   C41   A    
O9    C4    A    
C37   H14   S    
C36   C37   A    
C50   H25   S    
V4    O20   S    
C62   H21   S    
C55   C57   A    
C65   O16   A    
C29   C34   A    
C11   C67   S    
O11   V4    S    
C49   C50   A    
C32   C33   A    
C36   C66   S    
C48   H24   S    
C12   C13   A    
C56   C60   A    
C59   C60   A    
C20   C21   A    
O4    C2    A    
C34   H11   S    
C33   C68   S    
C15   H5    S    
C13   C14   A    
C26   C27   A    
C2    C60   S    
C27   C32   A    
C32   H23   S    
C30   H12   S    
C42   C43   A    
C18   H7    S    
C35   C36   A    
C54   H19   S    
O2    C1    A    
C17   C18   A    
C53   C54   A    
C58   C61   A    
C4    C14   S    
C5    C6    A    
O14   V3    S    
C39   C44   A    
C54   C55   A    
O14   C66   A    
O3    C4    A    
C21   C22   A    
O12   C65   A    
O16   V4    S    
C35   C40   A    
C52   C53   A    
O6    V2    S    
C21   H8    S    
C9    C11   A    
C7    H3    S    
C5    H1    S    
C22   C25   A    
C35   F1    S    
C6    H2    S    
C23   C24   A    
O2    V1    S    
C61   C62   A    
C25   C26   A    
C13   C18   A    
C41   H15   S    
C27   C28   A    
C29   C30   A    
O13   V3    S    
C8    C9    A    
O1    C2    A    
O5    V1    S    
O8    C3    A    
C24   C31   A    
C40   C47   A    
O12   V3    S    
C5    C10   A    
O15   C67   A    
C39   C40   A    
C3    C20   S    
O9    V2    S    
C43   C48   A    
C19   C24   A    
O3    V1    S    
V1    O10   S    
C25   H9    S    
O11   C66   A    
C47   F2    S    
C62   C63   A    
C23   C28   A    
C53   H26   S    
O7    V2    S    
C44   C45   A    
O19   V4    S    
C38   C39   A    
O18   V4    S    
O4    V1    S    
C46   C47   A    
C58   C59   A    
C16   H6    S    
O13   C68   A    
C30   C31   A    
C10   C14   A    
C15   C16   A    
C45   C50   A    
O15   V3    S    
H18   C63   S    
C9    C10   A    
C19   F5    S    
