data_str_m9_o11_o16_f0_sra.sym.32
_audit_creation_date              2012-12-11T14:17:43-0500
_audit_creation_method            fapswitch 2.2
_symmetry_space_group_name_H-M    P1
_symmetry_Int_Tables_number       1
_space_group_crystal_system       triclinic
_cell_length_a                    6.964026
_cell_length_b                    13.633521
_cell_length_c                    20.437498
_cell_angle_alpha                 102.499151
_cell_angle_beta                  90.291702
_cell_angle_gamma                 90.782716
_cell_volume                      1894.19113215

loop_
_atom_site_label
_atom_site_type_symbol
_atom_type_description
_atom_site_fract_x
_atom_site_fract_y
_atom_site_fract_z
_atom_type_partial_charge
O1    O     O_R   0.506860 0.599390 0.449240 -0.539386
O2    O     O_R   0.180220 0.594600 0.586780 -0.541165
O3    O     O_R   0.004500 0.400610 0.550760 -0.540196
C1    C     C_R   0.349497 0.616447 0.613270 0.732088
O4    O     O_R   0.177490 0.611290 0.451970 -0.546422
O5    O     O_R   0.001750 0.417420 0.414990 -0.534441
C2    C     C_R   0.347515 0.640357 0.437850 0.719331
O6    O     O_R   0.509610 0.582580 0.585010 -0.549435
O7    O     O_3   0.337420 0.436370 0.488020 -0.370224
V1    V     V_3+5 0.064680 0.511800 0.502220 1.394601
O8    O     O_R   0.671710 0.405400 0.413220 -0.544172
C3    C     C_R   0.838499 0.385168 0.386222 0.743714
O9    O     O_R   0.674440 0.388710 0.548030 -0.540669
C4    C     C_R   0.842659 0.362225 0.564833 0.694436
V2    V     V_3+5 0.564010 0.488200 0.497780 1.389719
O10   O     O_3   0.841140 0.563630 0.511980 -0.376780
C5    C     C_R   0.857346 0.110716 0.611495 -0.168403
H1    H     H_    0.848910 0.160828 0.519014 0.103625
H2    H     H_    0.867483 0.984955 0.693762 0.117761
H3    H     H_    0.860181 0.032362 0.586155 0.115259
C6    C     C_R   0.849531 0.285159 0.604703 -0.030171
C7    C     C_R   0.859101 0.314678 0.928565 -0.167780
C8    C     C_R   0.853730 0.390938 0.893259 -0.118937
C9    C     C_R   0.852532 0.368299 0.823418 -0.156935
C10   C     C_R   0.856737 0.267476 0.786683 0.075496
C11   C     C_R   0.861752 0.189467 0.823333 0.067708
C12   C     C_R   0.855966 0.241499 0.714970 0.070949
C13   C     C_R   0.859350 0.138439 0.681791 0.149131
C14   C     C_R   0.864519 0.063610 0.718826 -0.206628
C15   C     C_R   0.865879 0.088509 0.788396 -0.194882
C16   C     C_R   0.851875 0.314032 0.674744 -0.208537
C17   C     C_R   0.851510 0.183593 0.573208 -0.202353
C18   C     C_R   0.862922 0.214226 0.894450 -0.074178
H4    H     H_    0.849829 0.393547 0.695978 0.093740
H5    H     H_    0.860320 0.334051 0.982873 0.099535
H6    H     H_    0.848155 0.431661 0.799899 0.107150
H7    H     H_    0.850598 0.468534 0.920277 0.118694
H8    H     H_    0.870021 0.027559 0.814638 0.115331
C19   C     C_2   0.961030 0.327829 0.270851 -0.118964
C20   C     C_2   0.836525 0.317796 0.319032 -0.321357
H9    H     H_    0.069490 0.387274 0.281612 0.123224
H10   H     H_    0.715983 0.266001 0.306952 0.133600
C21   C     C_2   0.947500 0.267953 0.200626 -0.136912
C22   C     C_2   0.871824 0.174403 0.183359 -0.311765
H11   H     H_    0.012556 0.300810 0.162006 0.115120
H12   H     H_    0.807700 0.139241 0.220881 0.131934
C23   C     C_2   0.205046 0.793153 0.781109 -0.137914
C24   C     C_2   0.362511 0.815481 0.819990 -0.307572
H13   H     H_    0.068653 0.825488 0.799407 0.130586
H14   H     H_    0.499478 0.783291 0.802960 0.128258
C25   C     C_2   0.203823 0.724267 0.713633 -0.129252
C26   C     C_2   0.361834 0.685719 0.679782 -0.314370
H15   H     H_    0.063084 0.705453 0.690878 0.133655
H16   H     H_    0.504575 0.704771 0.700213 0.123757
C27   C     C_R   0.415580 0.900680 0.402699 0.081466
H17   H     H_    0.373987 0.027612 0.322462 0.133481
C28   C     C_R   0.361365 0.724023 0.403823 -0.092181
C29   C     C_R   0.352548 0.698439 0.083147 -0.148699
C30   C     C_R   0.352817 0.624227 0.119462 -0.133690
C31   C     C_R   0.357527 0.649401 0.188787 -0.149867
C32   C     C_R   0.357586 0.751000 0.224712 0.088961
C33   C     C_R   0.361445 0.829492 0.187684 0.017252
C34   C     C_R   0.361446 0.775281 0.296470 0.049187
C35   C     C_R   0.385943 0.876176 0.331454 0.045319
C36   C     C_R   0.377704 0.951556 0.294997 -0.196138
C37   C     C_R   0.367913 0.932277 0.224774 0.013820
C38   C     C_R   0.339291 0.701488 0.334569 -0.257365
C39   C     C_R   0.405132 0.822742 0.439005 0.106872
C40   C     C_R   0.358758 0.799846 0.115376 -0.076457
H18   H     H_    0.301562 0.624649 0.312073 0.108223
H19   H     H_    0.350699 0.676388 0.028867 0.103129
H20   H     H_    0.367018 0.586462 0.212517 0.104371
H21   H     H_    0.352275 0.546011 0.093549 0.117371
O11   O     O_R   0.203230 0.917310 0.915020 -0.536582
O12   O     O_R   0.535500 0.888690 0.048040 -0.542463
O13   O     O_R   0.711080 0.082610 0.085000 -0.544992
C41   C     C_R   0.367566 0.869549 0.070054 0.673230
O14   O     O_R   0.532630 0.905370 0.913230 -0.545612
O15   O     O_R   0.708190 0.099410 0.949230 -0.536907
C42   C     C_R   0.363957 0.884297 0.886561 0.754995
O16   O     O_R   0.206120 0.900510 0.050790 -0.542495
O17   O     O_3   0.375360 0.063570 0.011990 -0.373313
V3    V     V_3+5 0.648170 0.988200 0.997780 1.405030
O18   O     O_R   0.038240 0.111390 0.951940 -0.540530
C43   C     C_R   0.870057 0.136836 0.934380 0.689346
O19   O     O_R   0.041120 0.094710 0.086750 -0.549798
C44   C     C_R   0.874165 0.115234 0.113636 0.724761
V4    V     V_3+5 0.148810 0.011930 0.002180 1.401949
O20   O     O_3   0.871750 0.936430 0.988010 -0.370184
C45   C     C_3   0.436025 0.843514 0.514986 -0.367551
C46   C     C_3   0.637277 0.816109 0.537353 -0.305902
C47   C     C_3   0.802573 0.828470 0.490428 -0.680270
H22   H     H_    0.783541 0.776041 0.440993 0.234268
H23   H     H_    0.813691 0.906499 0.483238 0.198761
H24   H     H_    0.940052 0.810394 0.512620 0.194773
H25   H     H_    0.669515 0.863200 0.587875 0.162016
H26   H     H_    0.634949 0.737336 0.543170 0.216287
H27   H     H_    0.404953 0.922190 0.539505 0.165160
H28   H     H_    0.326424 0.800925 0.537368 0.119036
C48   C     C_3   0.469135 0.008135 0.438977 -0.373147
C49   C     C_3   0.289832 0.070583 0.461432 -0.357708
C50   C     C_3   0.344971 0.178574 0.494940 -0.685513
H29   H     H_    0.430346 0.180181 0.541215 0.230221
H30   H     H_    0.430136 0.213968 0.460169 0.220646
H31   H     H_    0.213302 0.222939 0.508665 0.221377
H32   H     H_    0.194469 0.071584 0.417884 0.190238
H33   H     H_    0.206734 0.036687 0.497456 0.197817
H34   H     H_    0.563326 0.009819 0.482917 0.185418
H35   H     H_    0.561860 0.045134 0.407137 0.156651
C51   C     C_3   0.367688 0.022395 0.191206 -0.350028
C52   C     C_3   0.370669 0.128810 0.236787 -0.340277
C53   C     C_3   0.385955 0.211369 0.196926 -0.713719
H36   H     H_    0.527860 0.214012 0.174485 0.231686
H37   H     H_    0.282709 0.198686 0.154960 0.245832
H38   H     H_    0.361517 0.285682 0.230493 0.203827
H39   H     H_    0.236429 0.139999 0.266553 0.209150
H40   H     H_    0.495858 0.137895 0.271378 0.178616
H41   H     H_    0.496506 0.017324 0.159589 0.194100
H42   H     H_    0.235298 0.016825 0.160781 0.198143

loop_
_geom_bond_atom_site_label_1
_geom_bond_atom_site_label_2
_ccdc_geom_bond_type
C49   H33   S    
C9    C10   A    
C49   C50   S    
C40   C41   S    
C52   C53   S    
O15   C43   A    
C1    O6    A    
C51   H41   S    
C53   H37   S    
C27   C39   A    
C19   H9    S    
C7    H5    S    
C6    C16   A    
C9    H6    S    
C1    C26   S    
C4    C6    S    
C13   C14   A    
O5    C3    A    
O14   C42   A    
C29   H19   S    
C31   H20   S    
V2    O10   S    
C5    H3    S    
C15   H8    S    
C50   H31   S    
C32   C34   A    
C18   C43   S    
C51   C52   S    
C48   C49   S    
C46   H25   S    
O8    V2    S    
O14   V3    S    
C26   H16   S    
C27   C48   S    
C39   C45   S    
C8    C9    A    
C52   H39   S    
O1    V2    S    
C22   C44   S    
O7    V1    S    
C30   H21   S    
C20   H10   S    
C30   C31   A    
O11   C42   A    
O9    C4    A    
C32   C33   A    
C28   C38   A    
O13   V3    S    
C53   H36   S    
C22   H12   S    
V3    O20   S    
C6    C17   A    
C34   C38   A    
C48   H34   S    
C33   C37   A    
C12   C16   A    
C25   C26   D    
O18   C43   A    
C23   H13   S    
C19   C20   D    
O4    C2    A    
O19   C44   A    
C23   C25   S    
C10   C11   A    
C8    H7    S    
C47   H24   S    
C46   H26   S    
C33   C40   A    
C31   C32   A    
C25   H15   S    
C3    C20   S    
O2    C1    A    
C21   C22   D    
C14   C15   A    
C21   H11   S    
C11   C18   A    
C23   C24   D    
C41   O16   A    
C27   C35   A    
C47   H23   S    
C16   H4    S    
C37   C51   S    
C50   H30   S    
O12   C41   A    
O13   C44   A    
O3    C4    A    
C11   C15   A    
O6    V2    S    
O9    V2    S    
H1    C17   S    
C28   C39   A    
O2    V1    S    
C45   H28   S    
C46   C47   S    
C49   H32   S    
C7    C18   A    
O1    C2    A    
C5    C13   A    
O18   V4    S    
C51   H42   S    
O5    V1    S    
C19   C21   S    
O8    C3    A    
C29   C40   A    
C10   C12   A    
C52   H40   S    
C38   H18   S    
C35   C36   A    
C24   C42   S    
C29   C30   A    
O4    V1    S    
O3    V1    S    
V1    O10   S    
O15   V3    S    
O12   V3    S    
C45   C46   S    
O17   V4    S    
C24   H14   S    
C47   H22   S    
C45   H27   S    
O19   V4    S    
C36   C37   A    
O7    V2    S    
C50   H29   S    
O16   V4    S    
C34   C35   A    
C48   H35   S    
V4    O20   S    
O17   V3    S    
C12   C13   A    
C5    C17   A    
C7    C8    A    
O11   V4    S    
C2    C28   S    
C53   H38   S    
H17   C36   S    
H2    C14   S    
