data_str_m3_o10_o29_f0_pcu.sym.191
_audit_creation_date              2012-12-10T16:59:16-0500
_audit_creation_method            fapswitch 2.2
_symmetry_space_group_name_H-M    P1
_symmetry_Int_Tables_number       1
_space_group_crystal_system       triclinic
_cell_length_a                    7.726348
_cell_length_b                    8.634688
_cell_length_c                    26.826199
_cell_angle_alpha                 90.932637
_cell_angle_beta                  86.543009
_cell_angle_gamma                 93.014531
_cell_volume                      1783.81638699

loop_
_atom_site_label
_atom_site_type_symbol
_atom_type_description
_atom_site_fract_x
_atom_site_fract_y
_atom_site_fract_z
_atom_type_partial_charge
C1    C     C_R   0.544961 0.794419 0.499589 0.877908
C2    C     C_R   0.455046 0.205566 0.500290 0.884942
C3    C     C_R   0.432223 0.791452 0.894247 -0.140807
C4    C     C_R   0.435079 0.744800 0.102777 -0.135465
C5    C     C_R   0.584392 0.838066 0.865774 -0.108466
C6    C     C_R   0.294014 0.667081 0.129592 -0.086278
C7    C     C_R   0.723520 0.912781 0.889616 0.493154
C8    C     C_R   0.138234 0.632421 0.106067 0.502194
C9    C     C_R   0.286104 0.736941 0.869295 0.003059
C10   C     C_R   0.587868 0.785968 0.127179 -0.018469
C11   C     C_R   0.512278 0.518534 0.648719 -0.102973
C12   C     C_R   0.492281 0.543170 0.352887 -0.093870
C13   C     C_R   0.573537 0.846640 0.024212 0.085912
C14   C     C_R   0.269099 0.753176 0.974551 0.087948
C15   C     C_R   0.271796 0.735451 0.027027 0.000010
C16   C     C_R   0.572153 0.859683 0.971497 -0.004532
C17   C     C_R   0.425993 0.777244 0.051296 0.075630
C18   C     C_R   0.424084 0.802907 0.946981 0.072855
C19   C     C_R   0.721623 0.891526 0.050599 -0.230229
C20   C     C_R   0.118841 0.716756 0.947966 -0.253745
C21   C     C_R   0.727737 0.862548 0.101067 -0.137874
C22   C     C_R   0.127792 0.708381 0.896151 -0.115922
C23   C     C_R   0.503344 0.501203 0.594696 0.903230
C24   C     C_R   0.497199 0.504162 0.405413 0.885783
C25   C     C_R   0.716005 0.922947 0.941971 -0.347473
C26   C     C_R   0.128759 0.667394 0.055549 -0.354088
C27   C     C_2   0.565743 0.956914 0.506196 0.184810
C28   C     C_2   0.434428 0.043047 0.493543 0.178831
C29   C     C_R   0.591475 0.805415 0.814006 0.643637
C30   C     C_R   0.314767 0.624521 0.179316 0.567119
C31   C     C_R   0.304676 0.706872 0.817928 0.452022
C32   C     C_R   0.598616 0.747664 0.177317 0.577469
C33   C     C_R   0.375096 0.498076 0.731895 0.126126
C34   C     C_R   0.385459 0.712123 0.291293 0.053760
C35   C     C_R   0.370795 0.470679 0.680452 -0.239845
C36   C     C_R   0.393143 0.666667 0.340693 -0.233899
C37   C     C_R   0.663471 0.579685 0.669300 -0.342317
C38   C     C_R   0.588664 0.465244 0.315596 -0.367431
C39   C     C_R   0.662202 0.618462 0.720405 0.484184
C40   C     C_R   0.580068 0.506532 0.265366 0.508817
C41   C     C_R   0.501521 0.609277 0.749336 0.146387
C42   C     C_R   0.477385 0.629278 0.253339 0.235841
H1    H     H_    0.781327 0.598966 0.645739 0.159107
H2    H     H_    0.667087 0.371255 0.325485 0.152947
H3    H     H_    0.013828 0.382055 0.463109 0.193497
H4    H     H_    0.986164 0.617917 0.536902 0.191507
H5    H     H_    0.325035 0.731073 0.370134 0.186909
H6    H     H_    0.262893 0.403006 0.665643 0.163565
H7    H     H_    0.845692 0.896505 0.119232 0.196054
H8    H     H_    0.011836 0.671905 0.877403 0.209534
H9    H     H_    0.838213 0.945729 0.033376 0.150058
H10   H     H_    0.992345 0.691372 0.965875 0.152492
H11   H     H_    0.826957 0.978549 0.958392 0.142831
H12   H     H_    0.008628 0.633864 0.039182 0.145407
N1    N     N_R   0.467754 0.705133 0.794516 -0.354052
N2    N     N_R   0.463869 0.667411 0.202000 -0.350929
N3    N     N_2   0.950320 0.457960 0.486880 -0.155075
N4    N     N_2   0.049680 0.542040 0.513120 -0.156017
O1    O     O_R   0.389250 0.738570 0.503220 -0.555591
O2    O     O_R   0.610750 0.261430 0.496780 -0.554549
O3    O     O_R   0.678390 0.711630 0.494810 -0.646538
O4    O     O_R   0.321610 0.288370 0.505190 -0.643809
O5    O     O_R   0.355440 0.513440 0.575450 -0.617469
O6    O     O_R   0.644560 0.486560 0.424550 -0.612233
O7    O     O_R   0.644590 0.486500 0.567040 -0.615152
O8    O     O_R   0.355410 0.513500 0.432960 -0.622851
O9    O     O_2   0.710460 0.882503 0.783721 -0.446185
O10   O     O_2   0.188796 0.539236 0.204868 -0.486442
O11   O     O_2   0.742961 0.789108 0.201250 -0.549063
O12   O     O_2   0.161766 0.683165 0.791827 -0.533761
Zn1   Zn    Zn3+2 0.306940 0.517990 0.505620 0.976652
Zn2   Zn    Zn3+2 0.693060 0.482010 0.494380 0.980156
O13   O     O_3   0.816622 0.647311 0.743039 -0.685582
H13   H     H_    0.914835 0.644165 0.717519 0.351683
O14   O     O_3   0.669040 0.428835 0.227307 -0.716463
H14   H     H_    0.734842 0.346882 0.241916 0.343735
O15   O     O_3   0.869017 0.968462 0.861664 -0.720251
H15   H     H_    0.954549 0.016595 0.884110 0.322230
O16   O     O_3   0.996377 0.563644 0.132714 -0.664572
H16   H     H_    0.897666 0.547965 0.110894 0.334000
C43   C     C_3   0.285843 0.853488 0.280654 -0.418769
C44   C     C_3   0.089735 0.824505 0.292177 -0.298717
C45   C     C_3   0.991550 0.968361 0.281923 -0.778026
H17   H     H_    0.036969 0.067421 0.305557 0.243371
H18   H     H_    0.011518 0.000171 0.241947 0.285234
H19   H     H_    0.850526 0.944342 0.290819 0.261822
H20   H     H_    0.039670 0.726809 0.268790 0.293886
H21   H     H_    0.063043 0.793419 0.332034 0.216922
H22   H     H_    0.334555 0.951930 0.304095 0.204765
H23   H     H_    0.309101 0.890006 0.241234 0.205640
C46   C     C_3   0.264937 0.389616 0.766410 -0.356945
C47   C     C_3   0.310402 0.220071 0.757230 -0.440668
C48   C     C_3   0.202534 0.112223 0.792704 -0.717974
H24   H     H_    0.233014 0.138161 0.832009 0.239440
H25   H     H_    0.061950 0.124840 0.788364 0.305890
H26   H     H_    0.233058 0.990884 0.783559 0.280146
H27   H     H_    0.284857 0.183433 0.718351 0.240697
H28   H     H_    0.450429 0.207551 0.762832 0.252793
H29   H     H_    0.287499 0.416333 0.806140 0.211908
H30   H     H_    0.125337 0.401817 0.760171 0.246823
O17   O     O_3   0.708195 0.020969 0.529996 -0.765092
H31   H     H_    0.782027 0.937548 0.539903 0.343590
O18   O     O_3   0.292209 0.978990 0.469637 -0.781011
H32   H     H_    0.218469 0.062449 0.459707 0.340548

loop_
_geom_bond_atom_site_label_1
_geom_bond_atom_site_label_2
_ccdc_geom_bond_type
C48   H24   S    
C8    C26   A    
O13   H13   S    
C14   C18   A    
C34   C42   A    
O6    Zn2   S    
C21   H7    S    
C43   C44   S    
C47   H28   S    
C39   C41   A    
O15   H15   S    
H3    N3    S    
O17   H31   S    
C3    C18   A    
C19   C21   A    
C25   H11   S    
C1    O1    A    
C2    O2    A    
N4    Zn1   S    
O2    Zn2   S    
C44   H20   S    
C36   H5    S    
C11   C23   S    
C11   C37   A    
C41   N1    S    
C42   N2    S    
C29   O9    S    
C31   O12   S    
O8    Zn1   S    
C8    O16   S    
C34   C43   S    
C46   H30   S    
C12   C36   A    
C24   O8    A    
C22   H8    S    
C43   H22   S    
C40   C42   A    
C48   H25   S    
H4    N4    S    
C35   H6    S    
C26   H12   S    
C47   H27   S    
C5    C29   A    
C10   C21   A    
C13   C19   A    
C14   C20   A    
C4    C6    A    
C46   C47   S    
C5    C7    A    
C15   C26   A    
C6    C8    A    
C29   N1    A    
C30   N2    A    
C27   O17   S    
C37   H1    S    
O14   H14   S    
C38   H2    S    
C3    C9    A    
C10   C32   A    
C45   H17   S    
C43   H23   S    
O3    Zn2   S    
C16   C18   A    
C6    C30   A    
O5    Zn1   S    
C48   H26   S    
C7    O15   S    
C4    C17   A    
C4    C10   A    
O18   H32   S    
C16   C25   A    
C15   C17   A    
C45   H18   S    
C20   C22   A    
C3    C5    A    
C1    O3    A    
C32   O11   S    
O7    Zn2   S    
C12   C24   S    
C7    C25   A    
C40   O14   S    
C13   C17   A    
C33   C41   A    
C23   O7    A    
C11   C35   A    
C20   H10   S    
C46   H29   S    
C38   C40   A    
C28   O18   S    
N3    N4    D    
C44   H21   S    
C23   O5    A    
C47   C48   S    
C33   C35   A    
O4    Zn1   S    
C24   O6    A    
C34   C36   A    
C39   O13   S    
N3    Zn2   S    
C12   C38   A    
C9    C22   A    
C9    C31   A    
O16   H16   S    
C19   H9    S    
C45   H19   S    
C37   C39   A    
C44   C45   S    
C13   C16   A    
C27   C28   D    
C1    C27   S    
C14   C15   A    
C2    C28   S    
C31   N1    A    
C32   N2    A    
C30   O10   S    
C2    O4    A    
O1    Zn1   S    
C33   C46   S    
