data_str_m12_o9_o10_f0_bcu.sym.58
_audit_creation_date              2012-12-11T17:37:50-0500
_audit_creation_method            fapswitch 2.2
_symmetry_space_group_name_H-M    P1
_symmetry_Int_Tables_number       1
_space_group_crystal_system       triclinic
_cell_length_a                    12.978239
_cell_length_b                    13.051326
_cell_length_c                    15.276759
_cell_angle_alpha                 115.704521
_cell_angle_beta                  64.423385
_cell_angle_gamma                 96.376873
_cell_volume                      2093.83078546

loop_
_atom_site_label
_atom_site_type_symbol
_atom_type_description
_atom_site_fract_x
_atom_site_fract_y
_atom_site_fract_z
_atom_type_partial_charge
C1    C     C_R   0.016784 0.833848 0.035953 -0.142359
C2    C     C_R   0.319403 0.536557 0.780665 -0.139820
C3    C     C_R   0.245221 0.478627 0.106300 -0.174943
C4    C     C_R   0.701092 0.410536 0.213959 0.564502
C5    C     C_R   0.992080 0.300242 0.695225 -0.152183
C6    C     C_R   0.337422 0.538996 0.073799 0.169080
C7    C     C_R   0.944138 0.201324 0.691705 0.064862
C8    C     C_R   0.324314 0.470890 0.679332 0.049846
C9    C     C_R   0.071948 0.144752 0.985410 0.060984
C10   C     C_R   0.402670 0.859811 0.249312 -0.161086
C11   C     C_R   0.287638 0.879082 0.323892 -0.140983
C12   C     C_R   0.702917 0.450055 0.312836 -0.095583
C13   C     C_R   0.212875 0.957976 0.334807 0.116852
C14   C     C_R   0.254046 0.016593 0.269966 -0.188076
C15   C     C_R   0.367958 0.994921 0.193158 -0.160169
C16   C     C_R   0.739578 0.577710 0.946521 -0.076929
C17   C     C_R   0.443650 0.916664 0.182333 -0.012013
C18   C     C_R   0.065125 0.084835 0.509156 -0.218671
C19   C     C_R   0.955880 0.107937 0.594548 0.060816
C20   C     C_R   0.870153 0.033053 0.590217 0.019595
C21   C     C_R   0.897772 0.932948 0.497559 -0.239445
C22   C     C_R   0.007991 0.909479 0.413119 0.063220
C23   C     C_R   0.637962 0.560360 0.019631 0.182222
C24   C     C_R   0.093089 0.984383 0.418465 0.013660
C25   C     C_R   0.706506 0.974830 0.719378 -0.162047
C26   C     C_R   0.599321 0.999395 0.807396 -0.063500
C27   C     C_R   0.538048 0.105997 0.856992 -0.105872
C28   C     C_R   0.987595 0.709137 0.311744 -0.141168
C29   C     C_R   0.583417 0.187983 0.818160 -0.113610
C30   C     C_R   0.690369 0.163690 0.729926 -0.131764
C31   C     C_R   0.753563 0.057202 0.680365 0.105738
C32   C     C_R   0.930512 0.337247 0.410974 0.013416
C33   C     C_R   0.825359 0.341515 0.406053 -0.221468
C34   C     C_R   0.026573 0.812088 0.316594 0.063404
C35   C     C_R   0.736505 0.427113 0.489497 0.013607
C36   C     C_R   0.753997 0.509176 0.579736 -0.041346
C37   C     C_R   0.856195 0.498574 0.586653 -0.197981
C38   C     C_R   0.943243 0.413910 0.503396 -0.199658
C39   C     C_R   0.526385 0.426430 0.568871 -0.204480
C40   C     C_R   0.662146 0.481987 0.047020 -0.178728
C41   C     C_R   0.419710 0.459867 0.583361 0.083365
C42   C     C_R   0.407356 0.493320 0.511946 -0.000573
C43   C     C_R   0.503104 0.480398 0.420452 -0.149878
C44   C     C_R   0.610438 0.448463 0.405889 0.123368
C45   C     C_R   0.322574 0.577693 0.009626 -0.118956
C46   C     C_R   0.624695 0.429432 0.484292 0.073974
C47   C     C_R   0.258140 0.516711 0.456622 -0.160296
C48   C     C_R   0.164246 0.578374 0.474024 -0.109060
C49   C     C_R   0.111493 0.676392 0.569769 -0.114809
C50   C     C_R   0.153991 0.714277 0.647438 -0.123462
C51   C     C_R   0.249567 0.654441 0.629314 -0.100363
C52   C     C_R   0.069889 0.810648 0.216339 -0.108934
C53   C     C_R   0.301575 0.553871 0.534364 0.093300
C54   C     C_2   0.432944 0.559493 0.101513 -0.249224
C55   C     C_2   0.524929 0.599739 0.045994 -0.173863
C56   C     C_R   0.914511 0.196446 0.787756 -0.134561
C57   C     C_2   0.883154 0.963386 0.034006 -0.193419
C58   C     C_2   0.846925 0.044626 0.134504 -0.065153
C59   C     C_R   0.799028 0.505285 0.309655 -0.209765
C60   C     C_R   0.923753 0.749139 0.933068 -0.097329
C61   C     C_R   0.942365 0.854058 0.000283 0.148111
C62   C     C_2   0.564563 0.894629 0.101076 0.959853
C63   C     C_3   0.686871 0.238328 0.087662 -0.245838
C64   C     C_2   0.028575 0.255370 0.319119 0.939075
C65   C     C_2   0.670293 0.609438 0.666169 0.935158
C66   C     C_R   0.216227 0.447011 0.685950 -0.120449
C67   C     C_R   0.090463 0.250985 0.052917 -0.076863
C68   C     C_R   0.991164 0.167004 0.956815 -0.142908
H1    H     H_    0.053192 0.897663 0.085286 0.105493
H2    H     H_    0.257380 0.834237 0.374493 0.122770
H3    H     H_    0.197140 0.077651 0.277906 0.171117
H4    H     H_    0.397038 0.040510 0.143252 0.163000
H5    H     H_    0.131803 0.141770 0.515853 0.141558
H6    H     H_    0.832435 0.874620 0.489870 0.145253
H7    H     H_    0.753719 0.892501 0.683090 0.125390
H8    H     H_    0.564075 0.935974 0.837572 0.143646
H9    H     H_    0.455369 0.125036 0.925455 0.114206
H10   H     H_    0.535818 0.270503 0.856583 0.124760
H11   H     H_    0.724258 0.228146 0.700762 0.120581
H12   H     H_    0.868221 0.132967 0.813386 0.096906
H13   H     H_    0.021894 0.409634 0.510537 0.155563
H14   H     H_    0.747368 0.624693 0.901300 0.137583
H15   H     H_    0.813291 0.280390 0.336357 0.162382
H16   H     H_    0.870784 0.558747 0.655217 0.153938
H17   H     H_    0.533502 0.407321 0.628613 0.119082
H18   H     H_    0.495458 0.506030 0.364538 0.135886
H19   H     H_    0.297597 0.440532 0.382191 0.155719
H20   H     H_    0.131900 0.549696 0.413462 0.125905
H21   H     H_    0.038121 0.723322 0.583463 0.108484
H22   H     H_    0.113729 0.790844 0.721191 0.111368
H23   H     H_    0.191130 0.402931 0.620920 0.107908
H24   H     H_    0.956185 0.679987 0.374277 0.095465
H25   H     H_    0.283469 0.686984 0.688931 0.126537
H26   H     H_    0.435613 0.520226 0.150194 0.142178
H27   H     H_    0.521335 0.643185 0.000886 0.142257
H28   H     H_    0.858790 0.974344 0.978899 0.112674
H29   H     H_    0.862270 0.034202 0.194682 0.175396
H30   H     H_    0.603597 0.443865 0.096960 0.159350
H31   H     H_    0.112948 0.875738 0.192021 0.099693
H32   H     H_    0.830863 0.540270 0.370451 0.145278
H33   H     H_    0.878626 0.735667 0.884646 0.096494
H34   H     H_    0.148298 0.266221 0.090271 0.111089
H35   H     H_    0.367064 0.641105 0.983082 0.090970
H36   H     H_    0.681097 0.908689 0.967666 0.313575
H37   H     H_    0.751953 0.198526 0.095419 0.150670
H38   H     H_    0.726572 0.258301 0.017198 0.141768
H39   H     H_    0.625481 0.174186 0.072805 0.201994
H40   H     H_    0.084904 0.111945 0.180137 0.305522
H41   H     H_    0.603445 0.723878 0.822146 0.322001
H42   H     H_    0.957101 0.103982 0.904624 0.093065
H43   H     H_    0.388560 0.574675 0.801811 0.122156
H44   H     H_    0.223873 0.448704 0.167443 0.112465
H45   H     H_    0.016150 0.334251 0.636642 0.101006
H46   H     H_    0.459340 0.800138 0.243797 0.162648
N1    N     N_R   0.037320 0.720000 0.995830 -0.046376
N2    N     N_R   0.824900 0.517970 0.936430 -0.051936
N3    N     N_R   0.003190 0.648180 0.211390 -0.033008
N4    N     N_R   0.774330 0.457010 0.995830 -0.051608
N5    N     N_R   0.053760 0.709130 0.151980 -0.039869
N6    N     N_R   0.853840 0.498830 0.211390 -0.065166
N7    N     N_R   0.974250 0.667320 0.936430 -0.047189
N8    N     N_R   0.225670 0.542990 0.004170 -0.044952
N9    N     N_R   0.946240 0.290870 0.848020 -0.041653
N10   N     N_R   0.146160 0.501170 0.788610 -0.044000
N11   N     N_R   0.025750 0.332680 0.063570 -0.046668
N12   N     N_R   0.962680 0.280000 0.004170 -0.054355
N13   N     N_R   0.209230 0.553860 0.848010 -0.045386
N14   N     N_R   0.175100 0.482030 0.063570 -0.042898
N15   N     N_R   0.996810 0.351820 0.788610 -0.037102
N16   N     N_R   0.790770 0.446140 0.151990 -0.100071
Ni1   Ni    Ni4+2 0.130310 0.630310 0.000000 0.215213
Ni2   Ni    Ni4+2 0.869690 0.369690 0.000000 0.207797
Ni3   Ni    Ni4+2 0.985660 0.509480 0.863750 0.217683
Ni4   Ni    Ni4+2 0.014340 0.490520 0.136250 0.213365
O1    O     O_2   0.635553 0.843031 0.103603 -0.658012
O2    O     O_R   0.597565 0.932410 0.020768 -0.847591
O3    O     O_3   0.625799 0.335687 0.182739 -0.650210
O4    O     O_2   0.125684 0.270925 0.313030 -0.694892
O5    O     O_R   0.011109 0.161326 0.238360 -0.840976
O6    O     O_2   0.610332 0.653855 0.646111 -0.657335
O7    O     O_R   0.662933 0.655710 0.770405 -0.843978

loop_
_geom_bond_atom_site_label_1
_geom_bond_atom_site_label_2
_ccdc_geom_bond_type
N11   Ni4   S    
C25   C31   A    
C40   N4    A    
C8    C66   A    
C59   N6    A    
N1    N7    A    
C6    C45   A    
N9    Ni2   S    
C27   C29   A    
C14   H3    S    
C19   C20   A    
C3    C6    A    
C11   H2    S    
C39   C41   A    
C64   O4    D    
C15   H4    S    
C26   C27   A    
C37   C38   A    
N10   Ni3   S    
N6    N16   A    
C36   C37   A    
C28   N3    A    
C67   N11   A    
C42   C53   S    
C40   H30   S    
C30   C31   A    
C10   C17   A    
C23   C40   A    
C18   C19   A    
C41   C42   A    
C62   O2    S    
C45   H35   S    
C4    O3    S    
C65   O6    D    
C50   H22   S    
C29   H10   S    
C35   C36   A    
C57   H28   S    
C26   H8    S    
C48   H20   S    
C37   H16   S    
C18   C24   A    
C32   C38   A    
C4    C12   A    
N6    Ni4   S    
C10   H46   S    
C47   C53   A    
C2    N13   A    
C5    N15   A    
C28   C34   A    
C21   C22   A    
N9    N15   A    
C59   H32   S    
C63   O3    S    
C58   H29   S    
C7    C56   A    
C6    C54   S    
N3    Ni4   S    
C16   N2    A    
C44   C46   A    
C22   C34   S    
C2    H43   S    
C56   N9    A    
C8    C41   S    
C32   C64   S    
C55   H27   S    
C5    C7    A    
C36   C65   S    
N1    Ni1   S    
N2    Ni3   S    
C25   C26   A    
C21   H6    S    
C1    H1    S    
C13   C24   S    
C60   C61   A    
C25   H7    S    
C47   H19   S    
C62   O1    D    
N16   Ni2   S    
C43   C44   A    
C9    C67   A    
C29   C30   A    
N14   Ni4   S    
C17   C62   S    
C65   O7    S    
N5    Ni1   S    
C47   C48   A    
N12   Ni2   S    
C3    H44   S    
C16   H14   S    
C50   C51   A    
C28   H24   S    
C68   H42   S    
C63   H38   S    
C57   C61   S    
C33   H15   S    
C51   H25   S    
N10   N13   A    
N15   Ni3   S    
C30   H11   S    
C48   C49   A    
C16   C23   A    
C7    C19   S    
C39   C46   A    
C38   H13   S    
N11   N12   A    
C22   C24   A    
C63   H37   S    
C42   C43   A    
C39   H17   S    
C63   H39   S    
C60   H33   S    
C68   N12   A    
N8    Ni1   S    
C15   C17   A    
C54   C55   D    
H36   O2    S    
C5    H45   S    
C3    N14   A    
C43   H18   S    
C2    C8    A    
C49   H21   S    
C27   H9    S    
C1    C61   A    
H40   O5    S    
C4    N16   A    
C23   C55   S    
C66   H23   S    
C45   N8    A    
C18   H5    S    
C52   H31   S    
C34   C52   A    
C56   H12   S    
N7    Ni3   S    
C32   C33   A    
N3    N5    A    
C9    C68   A    
C12   C44   S    
C11   C13   A    
C57   C58   D    
C33   C35   A    
N2    N4    A    
C66   N10   A    
C12   C59   A    
N8    N14   A    
C60   N7    A    
N13   Ni1   S    
C54   H26   S    
N4    Ni2   S    
C10   C11   A    
C52   N5    A    
C20   C21   A    
C49   C50   A    
C14   C15   A    
H41   O7    S    
C1    N1    A    
C51   C53   A    
C13   C14   A    
C35   C46   S    
C64   O5    S    
C67   H34   S    
C20   C31   S    
