data_str_m3_o40_o40_f0_fof.sym.1
_audit_creation_date              2012-12-10T16:37:23-0500
_audit_creation_method            fapswitch 2.2
_symmetry_space_group_name_H-M    P1
_symmetry_Int_Tables_number       1
_space_group_crystal_system       triclinic
_cell_length_a                    16.930345
_cell_length_b                    17.028107
_cell_length_c                    16.773356
_cell_angle_alpha                 65.575158
_cell_angle_beta                  65.69339
_cell_angle_gamma                 65.678011
_cell_volume                      3838.63499154

loop_
_atom_site_label
_atom_site_type_symbol
_atom_type_description
_atom_site_fract_x
_atom_site_fract_y
_atom_site_fract_z
_atom_type_partial_charge
C1    C     C_R   0.402599 0.075894 0.648270 -0.218364
C2    C     C_R   0.457489 0.690245 0.934885 -0.214733
C3    C     C_R   0.924157 0.596219 0.351064 -0.211048
C4    C     C_R   0.075842 0.403781 0.648936 -0.211048
C5    C     C_R   0.979937 0.176116 0.430477 0.911844
C6    C     C_R   0.020062 0.823884 0.569523 0.911844
C7    C     C_R   0.179102 0.437626 0.962951 0.893470
C8    C     C_R   0.820897 0.562374 0.037049 0.893469
C9    C     C_R   0.438643 0.960855 0.179336 0.909575
C10   C     C_R   0.561357 0.039145 0.820664 0.909573
C11   C     C_R   0.569752 0.824418 0.018776 0.911986
C12   C     C_R   0.597401 0.924107 0.351730 -0.218363
C13   C     C_R   0.430248 0.175582 0.981223 0.911986
C14   C     C_R   0.038488 0.561721 0.820763 0.896796
C15   C     C_R   0.961512 0.438279 0.179237 0.896797
C16   C     C_R   0.823885 0.019967 0.569622 0.914771
C17   C     C_R   0.176115 0.980032 0.430378 0.914771
C18   C     C_R   0.448446 0.082959 0.696336 -0.187013
C19   C     C_R   0.551554 0.917042 0.303664 -0.187012
C20   C     C_R   0.953747 0.733565 0.498522 -0.189739
C21   C     C_R   0.046252 0.266435 0.501478 -0.189739
C22   C     C_R   0.697114 0.450398 0.080087 -0.182180
C23   C     C_R   0.939132 0.689785 0.454656 -0.214767
C24   C     C_R   0.302886 0.549602 0.919910 -0.182181
C25   C     C_R   0.266007 0.049862 0.497144 -0.188509
C26   C     C_R   0.733993 0.950138 0.502856 -0.188509
C27   C     C_R   0.497765 0.265390 0.052252 -0.180782
C28   C     C_R   0.502235 0.734612 0.947747 -0.180782
C29   C     C_R   0.916838 0.550325 0.303527 -0.181819
C30   C     C_R   0.083162 0.449675 0.696473 -0.181819
C31   C     C_R   0.545295 0.010928 0.547538 0.015291
C32   C     C_R   0.454704 0.989073 0.452461 0.015291
C33   C     C_R   0.011522 0.545529 0.546845 0.016375
C34   C     C_R   0.060868 0.310215 0.545344 -0.214767
C35   C     C_R   0.988477 0.454471 0.453155 0.016375
C36   C     C_R   0.547706 0.545949 0.009613 0.018453
C37   C     C_R   0.452295 0.454052 0.990384 0.018454
C38   C     C_R   0.595764 0.969361 0.476123 0.052425
C39   C     C_R   0.404236 0.030639 0.523877 0.052425
C40   C     C_R   0.039468 0.450156 0.573720 0.048016
C41   C     C_R   0.960531 0.549844 0.426280 0.048016
C42   C     C_R   0.475632 0.595668 0.969048 0.050378
C43   C     C_R   0.524368 0.404334 0.030948 0.050377
C44   C     C_R   0.550438 0.960112 0.426901 0.047720
C45   C     C_R   0.648921 0.404320 0.074303 -0.209930
C46   C     C_R   0.449561 0.039888 0.573098 0.047720
C47   C     C_R   0.426443 0.549600 0.961037 0.047455
C48   C     C_R   0.573557 0.450402 0.038959 0.047455
C49   C     C_R   0.029246 0.404594 0.525508 0.054892
C50   C     C_R   0.970753 0.595406 0.474492 0.054892
C51   C     C_R   0.543238 0.055005 0.671549 0.075972
C52   C     C_R   0.456762 0.944995 0.328451 0.075972
C53   C     C_R   0.000789 0.686311 0.564696 0.068939
C54   C     C_R   0.999211 0.313689 0.435304 0.068939
C55   C     C_R   0.672544 0.544869 0.051403 0.079573
C56   C     C_R   0.351081 0.595681 0.925692 -0.209928
C57   C     C_R   0.327457 0.455131 0.948595 0.079573
C58   C     C_R   0.313771 0.000771 0.433287 0.064902
C59   C     C_R   0.686229 0.999229 0.566712 0.064902
C60   C     C_R   0.433200 0.312787 0.003468 0.064456
C61   C     C_R   0.566800 0.687214 0.996529 0.064456
C62   C     C_R   0.944971 0.455974 0.328713 0.080075
C63   C     C_R   0.055029 0.544026 0.671287 0.080075
C64   C     C_R   0.592801 0.056524 0.721925 -0.136506
C65   C     C_R   0.407199 0.943476 0.278075 -0.136507
C66   C     C_R   0.024198 0.729737 0.605411 -0.118982
C67   C     C_R   0.309636 0.064398 0.541399 -0.216481
C68   C     C_R   0.975801 0.270263 0.394589 -0.118982
C69   C     C_R   0.723036 0.594514 0.051953 -0.132096
C70   C     C_R   0.276965 0.405486 0.948045 -0.132096
C71   C     C_R   0.270357 0.976180 0.393813 -0.122797
C72   C     C_R   0.729643 0.023820 0.606187 -0.122798
C73   C     C_R   0.393229 0.269303 0.979464 -0.116814
C74   C     C_R   0.606771 0.730697 0.020534 -0.116813
C75   C     C_R   0.944074 0.406636 0.278071 -0.137548
C76   C     C_R   0.055926 0.593364 0.721929 -0.137548
C77   C     C_R   0.682109 0.053316 0.682154 -0.295548
C78   C     C_R   0.690364 0.935603 0.458601 -0.216482
C79   C     C_R   0.317891 0.946684 0.317846 -0.295548
C80   C     C_R   0.052577 0.682333 0.682266 -0.298164
C81   C     C_R   0.947423 0.317667 0.317734 -0.298165
C82   C     C_R   0.683762 0.683633 0.047894 -0.304797
C83   C     C_R   0.316238 0.316367 0.952105 -0.304795
C84   C     C_R   0.591308 0.022776 0.594476 0.076364
C85   C     C_R   0.408692 0.977224 0.405523 0.076364
C86   C     C_R   0.023504 0.591714 0.593478 0.077173
C87   C     C_R   0.976495 0.408286 0.406522 0.077172
C88   C     C_R   0.594966 0.592433 0.020147 0.076209
C89   C     C_R   0.542511 0.309757 0.065114 -0.214735
C90   C     C_R   0.405035 0.407567 0.979850 0.076210
H1    H     H_    0.329849 0.097814 0.673468 0.134811
H2    H     H_    0.409867 0.732563 0.896061 0.140342
H3    H     H_    0.901885 0.668567 0.325458 0.134143
H4    H     H_    0.098115 0.331433 0.674543 0.134143
H5    H     H_    0.716970 0.065303 0.715832 0.197585
H6    H     H_    0.283030 0.934697 0.284168 0.197584
H7    H     H_    0.063815 0.717042 0.716488 0.194479
H8    H     H_    0.936185 0.282958 0.283513 0.194479
H9    H     H_    0.717669 0.718518 0.059002 0.193091
H10   H     H_    0.282331 0.281482 0.940997 0.193091
H11   H     H_    0.408591 0.113368 0.751391 0.163444
H12   H     H_    0.670151 0.902187 0.326531 0.134810
H13   H     H_    0.591409 0.886632 0.248609 0.163444
H14   H     H_    0.924221 0.805037 0.480846 0.160546
H15   H     H_    0.075779 0.194963 0.519154 0.160547
H16   H     H_    0.752002 0.410726 0.110569 0.162580
H17   H     H_    0.247998 0.589275 0.889429 0.162580
H18   H     H_    0.194403 0.080806 0.512202 0.158469
H19   H     H_    0.805596 0.919194 0.487797 0.158469
H20   H     H_    0.512441 0.193566 0.084915 0.179046
H21   H     H_    0.487558 0.806436 0.915084 0.179045
H22   H     H_    0.886101 0.589885 0.248436 0.158667
H23   H     H_    0.901345 0.732705 0.406094 0.130965
H24   H     H_    0.113899 0.410115 0.751564 0.158667
H25   H     H_    0.098655 0.267295 0.593906 0.130965
H26   H     H_    0.673998 0.331929 0.096888 0.138942
H27   H     H_    0.326005 0.668073 0.903102 0.138941
H28   H     H_    0.266689 0.103876 0.588142 0.131906
H29   H     H_    0.733310 0.896125 0.411857 0.131906
H30   H     H_    0.590129 0.267441 0.103940 0.140343
O1    O     O_R   0.982940 0.138950 0.510160 -0.645738
O2    O     O_R   0.982940 0.510160 0.138950 -0.626390
O3    O     O_R   0.861050 0.017060 0.489840 -0.644901
O4    O     O_R   0.138950 0.982940 0.510160 -0.644901
O5    O     O_R   0.867700 0.025880 0.612340 -0.625183
O6    O     O_R   0.132300 0.974120 0.387660 -0.625183
O7    O     O_R   0.025880 0.612340 0.867700 -0.626073
O8    O     O_R   0.974120 0.387660 0.132300 -0.626073
O9    O     O_R   0.612340 0.867700 0.025880 -0.635239
O10   O     O_R   0.387660 0.132300 0.974120 -0.635239
O11   O     O_R   0.387660 0.974120 0.132300 -0.620389
O12   O     O_R   0.017060 0.861050 0.489840 -0.645737
O13   O     O_R   0.612340 0.025880 0.867700 -0.620389
O14   O     O_R   0.132300 0.387660 0.974120 -0.627493
O15   O     O_R   0.867700 0.612340 0.025880 -0.627493
O16   O     O_R   0.974120 0.132300 0.387660 -0.625754
O17   O     O_R   0.025880 0.867700 0.612340 -0.625754
O18   O     O_R   0.138950 0.510160 0.982940 -0.627925
O19   O     O_R   0.861050 0.489840 0.017060 -0.627925
O20   O     O_R   0.510160 0.982940 0.138950 -0.643766
O21   O     O_R   0.489840 0.017060 0.861050 -0.643767
O22   O     O_R   0.489840 0.861050 0.017060 -0.639710
O23   O     O_R   0.510160 0.138950 0.982940 -0.639709
O24   O     O_R   0.017060 0.489840 0.861050 -0.626391
Zn1   Zn    Zn3+2 0.004880 0.004880 0.583590 0.937811
Zn2   Zn    Zn3+2 0.995120 0.995120 0.416410 0.937812
Zn3   Zn    Zn3+2 0.004880 0.583590 0.004880 0.942876
Zn4   Zn    Zn3+2 0.995120 0.416410 0.995120 0.942876
Zn5   Zn    Zn3+2 0.583590 0.004880 0.004880 0.934368
Zn6   Zn    Zn3+2 0.416410 0.995120 0.995120 0.934367

loop_
_geom_bond_atom_site_label_1
_geom_bond_atom_site_label_2
_ccdc_geom_bond_type
C5    O16   A    
C15   C75   S    
C65   C79   A    
C15   O2    A    
C80   H7    S    
C82   H9    S    
C29   H22   S    
C36   C42   A    
C16   C72   S    
C10   O13   A    
O24   Zn4   S    
C7    C70   S    
C71   C79   A    
O6    Zn2   S    
C36   C88   A    
C38   C44   A    
C1    C18   A    
C43   C89   A    
C37   C90   A    
C8    O19   A    
C68   C81   A    
O17   Zn1   S    
C52   C85   A    
C16   O3    A    
C35   C49   A    
C27   C60   A    
C54   C87   A    
C9    O20   A    
C17   O6    A    
C54   C68   A    
C81   H8    S    
C40   C49   A    
C5    O1    A    
C60   C73   A    
C64   C77   A    
C32   C39   A    
C55   C88   A    
C3    C29   A    
C69   C82   A    
C19   H13   S    
C19   C52   A    
C4    C40   A    
C27   H20   S    
C24   C57   A    
C31   C46   A    
C25   C67   A    
O10   Zn6   S    
C13   O10   A    
C89   H30   S    
C27   C89   A    
C53   C86   A    
C57   C70   A    
C37   C47   A    
C43   C48   A    
C59   C72   A    
C28   C61   A    
C1    H1    S    
C30   C63   A    
C8    O15   A    
C56   H27   S    
C35   C87   A    
C74   C82   A    
C5    C68   S    
C11   O9    A    
C67   H28   S    
O21   Zn6   S    
C9    C65   S    
C9    O11   A    
C28   H21   S    
C14   O24   A    
O19   Zn4   S    
C33   C40   A    
C57   C90   A    
C62   C87   A    
O13   Zn5   S    
C59   C84   A    
C7    O14   A    
C6    O12   A    
C8    C69   S    
O8    Zn4   S    
C23   C50   A    
C21   C34   A    
C38   C78   A    
C33   C50   A    
C22   H16   S    
C77   H5    S    
C14   O7    A    
C18   H11   S    
C14   C76   S    
C37   C43   A    
C33   C86   A    
C12   H12   S    
C72   C77   A    
C53   C66   A    
C61   C88   A    
C23   H23   S    
C17   O4    A    
C20   C23   A    
C6    C66   S    
O18   Zn3   S    
C32   C44   A    
C3    H3    S    
C24   H17   S    
C26   C78   A    
O2    Zn3   S    
C2    H2    S    
C70   C83   A    
C26   H19   S    
O16   Zn2   S    
C55   C69   A    
C39   C46   A    
C4    H4    S    
C16   O5    A    
C13   C73   S    
C17   C71   S    
O3    Zn2   S    
O15   Zn3   S    
C83   H10   S    
C63   C86   A    
O1    Zn1   S    
C62   C75   A    
C25   C58   A    
C58   C85   A    
C41   C50   A    
O14   Zn4   S    
C30   H24   S    
C45   C48   A    
C18   C51   A    
C29   C62   A    
C3    C41   A    
C34   C49   A    
C39   C67   A    
C75   C81   A    
C51   C64   A    
C76   C80   A    
C20   C53   A    
O11   Zn6   S    
C11   C74   S    
C7    O18   A    
C22   C55   A    
C20   H14   S    
C60   C90   A    
C61   C74   A    
C24   C56   A    
C66   C80   A    
O4    Zn1   S    
C10   C64   S    
C31   C38   A    
C15   O8    A    
O12   Zn2   S    
O22   Zn6   S    
C6    O17   A    
C78   H29   S    
C34   H25   S    
C79   H6    S    
C12   C44   A    
O5    Zn1   S    
C45   H26   S    
C21   C54   A    
C2    C42   A    
C32   C85   A    
C51   C84   A    
C12   C19   A    
C1    C46   A    
C73   C83   A    
C36   C48   A    
C42   C47   A    
C13   O23   A    
C35   C41   A    
C11   O22   A    
C4    C30   A    
C58   C71   A    
C31   C84   A    
O23   Zn5   S    
C22   C45   A    
C63   C76   A    
C26   C59   A    
C2    C28   A    
O9    Zn5   S    
O20   Zn5   S    
C10   O21   A    
C21   H15   S    
C52   C65   A    
C25   H18   S    
O7    Zn3   S    
C47   C56   A    
