data_str_m2_o24_o28_f0_pcu.sym.109
_audit_creation_date              2012-12-10T18:22:25-0500
_audit_creation_method            fapswitch 2.2
_symmetry_space_group_name_H-M    P1
_symmetry_Int_Tables_number       1
_space_group_crystal_system       triclinic
_cell_length_a                    23.537242
_cell_length_b                    10.612177
_cell_length_c                    9.428196
_cell_angle_alpha                 90.164084
_cell_angle_beta                  90.649878
_cell_angle_gamma                 89.94817
_cell_volume                      2354.8257527

loop_
_atom_site_label
_atom_site_type_symbol
_atom_type_description
_atom_site_fract_x
_atom_site_fract_y
_atom_site_fract_z
_atom_type_partial_charge
C1    C     C_R   0.500242 0.259714 0.499695 0.805698
C2    C     C_R   0.499781 0.740310 0.500298 0.809576
C3    C     C_R   0.238176 0.511063 0.611882 -0.130168
C4    C     C_R   0.759473 0.441661 0.618712 -0.129771
C5    C     C_R   0.297264 0.514912 0.617721 -0.221932
C6    C     C_R   0.700371 0.442573 0.615972 -0.196643
C7    C     C_R   0.328713 0.492526 0.495804 -0.061445
C8    C     C_R   0.670957 0.500481 0.503715 -0.061006
C9    C     C_R   0.300364 0.454578 0.371970 -0.281000
C10   C     C_R   0.701221 0.559907 0.395643 -0.293487
C11   C     C_R   0.241048 0.443656 0.367061 0.272293
C12   C     C_R   0.760722 0.563407 0.400191 0.300259
C13   C     C_R   0.208047 0.489793 0.482700 0.245721
C14   C     C_R   0.790033 0.501624 0.511575 0.293010
C15   C     C_3   0.545825 0.040513 0.566253 0.317323
C16   C     C_3   0.454257 0.959628 0.433712 0.316771
C17   C     C_3   0.546932 0.956973 0.432808 -0.214642
C18   C     C_3   0.453158 0.043125 0.567176 -0.213567
C19   C     C_3   0.500023 0.876838 0.501130 -0.080741
C20   C     C_3   0.500048 0.123233 0.498838 -0.078609
C21   C     C_3   0.500076 0.959358 0.636331 -0.228777
C22   C     C_3   0.500015 0.040751 0.363658 -0.229591
C23   C     C_R   0.391106 0.498468 0.499170 0.815383
C24   C     C_R   0.608770 0.500173 0.500823 0.815535
C25   C     C_3   0.495067 0.614222 0.050995 -0.146240
C26   C     C_3   0.504976 0.385784 0.948953 -0.143915
C27   C     C_3   0.453040 0.548144 0.947758 -0.091998
C28   C     C_3   0.546976 0.451829 0.052227 -0.098143
C29   C     C_3   0.541091 0.564539 0.952834 0.398260
C30   C     C_3   0.458945 0.435400 0.047052 0.408989
C31   C     C_R   0.880510 0.557004 0.619187 0.603966
C32   C     C_R   0.112621 0.472600 0.363868 0.660578
C33   C     C_R   0.878176 0.426833 0.413075 0.683703
C34   C     C_R   0.119204 0.578294 0.579515 0.633832
C35   C     C_R   0.937680 0.414028 0.417083 -0.128203
C36   C     C_R   0.060260 0.566198 0.601365 -0.137156
C37   C     C_R   0.968843 0.490617 0.512220 -0.098323
C38   C     C_R   0.028314 0.495627 0.501520 -0.083315
C39   C     C_R   0.940444 0.565251 0.614554 -0.147554
C40   C     C_R   0.055516 0.438296 0.384564 -0.158474
C41   C     C_R   0.966702 0.328089 0.328425 0.351043
C42   C     C_R   0.032425 0.625894 0.716035 0.324627
C43   C     C_R   0.024758 0.351273 0.295998 0.221467
C44   C     C_R   0.972912 0.642074 0.709494 0.327779
Cu1   Cu    Cu3+1 0.500010 0.499990 0.643150 0.941870
Cu2   Cu    Cu3+1 0.499990 0.500010 0.356850 0.941367
H1    H     H_    0.413729 0.587716 0.899289 0.129030
H2    H     H_    0.586261 0.412174 0.100740 0.138103
H3    H     H_    0.491830 0.710036 0.097751 0.130621
H4    H     H_    0.508250 0.289992 0.902159 0.130230
H5    H     H_    0.216440 0.523589 0.711159 0.200185
H6    H     H_    0.781711 0.393542 0.703940 0.182371
H7    H     H_    0.318216 0.536148 0.717846 0.156441
H8    H     H_    0.677623 0.395769 0.700047 0.169377
H9    H     H_    0.324514 0.423859 0.281153 0.187618
H10   H     H_    0.678605 0.606593 0.309944 0.146178
H11   H     H_    0.585349 0.919366 0.380059 0.140230
H12   H     H_    0.414753 0.080741 0.619963 0.144182
H13   H     H_    0.501168 0.924427 0.747232 0.144255
H14   H     H_    0.498923 0.075707 0.252765 0.144970
N1    N     N_R   0.851051 0.495744 0.514174 -0.479484
N2    N     N_R   0.145916 0.508209 0.477132 -0.467803
N3    N     N_3   0.500040 0.499970 0.858290 -0.190809
N4    N     N_3   0.499960 0.500030 0.141710 -0.190798
O1    O     O_R   0.500030 0.316850 0.620870 -0.592746
O2    O     O_R   0.499970 0.683150 0.379130 -0.592027
O3    O     O_R   0.500000 0.316860 0.379090 -0.593306
O4    O     O_R   0.500000 0.683140 0.620910 -0.591798
O5    O     O_R   0.417890 0.499960 0.620920 -0.586254
O6    O     O_R   0.582110 0.500040 0.379080 -0.583196
O7    O     O_R   0.417870 0.499970 0.379140 -0.563608
O8    O     O_R   0.582130 0.500030 0.620860 -0.561863
O9    O     O_2   0.851541 0.607010 0.728130 -0.453137
O10   O     O_2   0.129468 0.501338 0.232621 -0.433586
O11   O     O_2   0.847539 0.374007 0.306802 -0.448250
O12   O     O_2   0.147977 0.670489 0.647551 -0.478218
S1    S     S_3+6 0.933347 0.179718 0.289501 0.108788
O13   O     O_2   0.904864 0.185712 0.146131 -0.197060
O14   O     O_2   0.975716 0.073784 0.291134 -0.197810
O15   O     O_3   0.884189 0.147517 0.412533 -0.504923
H15   H     H_    0.865991 0.068224 0.380053 0.376032
S2    S     S_3+6 0.069595 0.654788 0.879187 0.140807
O16   O     O_2   0.095160 0.784592 0.877463 -0.186449
O17   O     O_2   0.030084 0.644383 0.002718 -0.182299
O18   O     O_3   0.121712 0.547487 0.899811 -0.489358
H16   H     H_    0.150640 0.588851 0.961153 0.390194
N5    N     N_2   0.586811 0.638311 0.894283 -0.402611
H17   H     H_    0.572483 0.709877 0.829500 0.259086
C45   C     C_3   0.629173 0.679973 0.996098 -0.735387
H18   H     H_    0.662574 0.734222 0.940804 0.246205
H19   H     H_    0.649664 0.597629 0.048062 0.238221
H20   H     H_    0.609504 0.741471 0.077616 0.216380
N6    N     N_2   0.413244 0.361293 0.105074 -0.424014
H21   H     H_    0.427457 0.291482 0.172378 0.260448
C46   C     C_3   0.372028 0.316116 0.002197 -0.762811
H22   H     H_    0.338054 0.263584 0.057449 0.234239
H23   H     H_    0.392653 0.251992 0.924834 0.231085
H24   H     H_    0.352060 0.396470 0.945197 0.240792
S3    S     S_3+6 0.058735 0.255670 0.162912 0.135350
O19   O     O_2   0.015618 0.210752 0.055612 -0.134640
O20   O     O_2   0.104057 0.322132 0.081781 -0.183946
O21   O     O_3   0.088167 0.129004 0.241652 -0.454779
H25   H     H_    0.094485 0.153987 0.341860 0.326762
S4    S     S_3+6 0.942061 0.773484 0.799914 0.128297
O22   O     O_2   0.986125 0.871118 0.835980 -0.169668
O23   O     O_2   0.897682 0.834306 0.706649 -0.262060
O24   O     O_3   0.911834 0.723399 0.950426 -0.442983
H26   H     H_    0.894574 0.799720 0.992708 0.379209
N7    N     N_2   0.217393 0.369049 0.256078 -0.375834
H27   H     H_    0.234317 0.388527 0.158029 0.270866
C47   C     C_3   0.218062 0.235460 0.285952 -0.601975
H28   H     H_    0.194372 0.215718 0.384674 0.226782
H29   H     H_    0.262494 0.201200 0.298014 0.194410
H30   H     H_    0.197708 0.183439 0.196712 0.285013
N8    N     N_2   0.790897 0.626796 0.291562 -0.406353
H31   H     H_    0.769505 0.629598 0.195474 0.266742
C48   C     C_3   0.812764 0.749161 0.332351 -0.600764
H32   H     H_    0.841573 0.741478 0.425863 0.256017
H33   H     H_    0.837344 0.789412 0.243469 0.244557
H34   H     H_    0.777171 0.814114 0.357502 0.212896
N9    N     N_2   0.595625 0.089901 0.638554 -0.435480
H35   H     H_    0.585999 0.156806 0.714063 0.249842
C49   C     C_3   0.634900 0.995389 0.690242 -0.667038
H36   H     H_    0.673041 0.042207 0.736371 0.242756
H37   H     H_    0.648796 0.933386 0.602061 0.237131
H38   H     H_    0.614666 0.937557 0.773728 0.212469
N10   N     N_2   0.404406 0.910700 0.361237 -0.422905
H39   H     H_    0.413988 0.844096 0.285360 0.254690
C50   C     C_3   0.365223 0.005647 0.310042 -0.686804
H40   H     H_    0.326992 0.959289 0.263792 0.245414
H41   H     H_    0.385485 0.063684 0.226783 0.212394
H42   H     H_    0.351444 0.067433 0.398521 0.232824

loop_
_geom_bond_atom_site_label_1
_geom_bond_atom_site_label_2
_ccdc_geom_bond_type
C38   C40   A    
N5    H17   S    
C29   N3    S    
N6    H21   S    
C8    C24   S    
C30   N4    S    
C11   N7    S    
C18   C21   S    
C23   O5    A    
C36   C42   A    
C46   H22   S    
C42   S2    S    
C26   H4    S    
S4    O23   D    
C44   S4    S    
C46   H24   S    
C24   O6    A    
C49   H36   S    
Cu1   Cu2   S    
C29   N5    S    
C4    H6    S    
C5    H7    S    
C28   C29   S    
C35   C37   A    
C43   S3    S    
Cu2   O2    S    
C30   N6    S    
C2    O4    A    
C48   H33   S    
C41   S1    S    
C33   C35   A    
C49   H37   S    
N8    H31   S    
C34   N2    A    
C7    C9    A    
C31   N1    A    
C17   C19   S    
C33   O11   S    
C40   C43   A    
C13   N2    S    
C47   H28   S    
N8    C48   S    
C1    O1    A    
O24   H26   S    
C9    H9    S    
C45   H19   S    
C10   H10   S    
C18   C20   S    
C3    C13   A    
S1    O13   D    
C50   H42   S    
N6    C46   S    
C27   C30   S    
C41   C43   A    
C42   C44   A    
C6    H8    S    
S4    O22   D    
C18   H12   S    
S1    O14   D    
C25   C29   S    
C15   C20   S    
N9    C49   S    
Cu1   O5    S    
C23   O7    A    
C4    C6    A    
C48   H34   S    
C5    C7    A    
C3    H5    S    
C49   H38   S    
C6    C8    A    
C3    C5    A    
O18   H16   S    
C14   N1    S    
Cu1   N3    S    
Cu2   N4    S    
C25   N4    S    
C26   N3    S    
N10   C50   S    
C37   C38   A    
S3    O19   D    
Cu1   O4    S    
N9    H35   S    
C47   H29   S    
C16   C18   S    
C45   H20   S    
C9    C11   A    
Cu2   O7    S    
C10   C12   A    
C28   N4    S    
C1    C20   S    
C8    C10   A    
S3    O20   D    
C12   C14   A    
C26   C30   S    
S2    O17   D    
N5    C45   S    
Cu1   O1    S    
N10   H39   S    
C24   O8    A    
C50   H40   S    
S1    O15   S    
C27   H1    S    
C15   C17   S    
C28   H2    S    
C32   O10   S    
C16   C22   S    
C15   N9    S    
C19   C21   S    
C2    C19   S    
C20   C22   S    
O15   H15   S    
C2    O2    A    
C46   H23   S    
C21   H13   S    
C39   C44   A    
C25   C27   S    
S2    O18   S    
C26   C28   S    
C17   C22   S    
C12   N8    S    
N7    C47   S    
C32   N2    A    
Cu2   O3    S    
C37   C39   A    
N7    H27   S    
C22   H14   S    
C11   C13   A    
C16   C19   S    
C7    C23   S    
C36   C38   A    
C1    O3    A    
C31   C39   A    
C47   H30   S    
C34   C36   A    
C32   C40   A    
C4    C14   A    
O21   H25   S    
C35   C41   A    
C16   N10   S    
C25   H3    S    
Cu2   O6    S    
C31   O9    S    
C15   C21   S    
S3    O21   S    
C33   N1    A    
S2    O16   D    
C17   H11   S    
Cu1   O8    S    
C27   N3    S    
C45   H18   S    
C48   H32   S    
S4    O24   S    
C34   O12   S    
C50   H41   S    
