data_str_m4_o22_o22_f0_acs.sym.53
_audit_creation_date              2012-12-11T15:07:02-0500
_audit_creation_method            fapswitch 2.2
_symmetry_space_group_name_H-M    P1
_symmetry_Int_Tables_number       1
_space_group_crystal_system       triclinic
_cell_length_a                    19.652164
_cell_length_b                    11.410235
_cell_length_c                    18.705176
_cell_angle_alpha                 89.507677
_cell_angle_beta                  91.185453
_cell_angle_gamma                 90.001782
_cell_volume                      4193.31770024

loop_
_atom_site_label
_atom_site_type_symbol
_atom_type_description
_atom_site_fract_x
_atom_site_fract_y
_atom_site_fract_z
_atom_type_partial_charge
C1    C     C_R   0.760994 0.523861 0.639196 0.543665
C2    C     C_3   0.253008 0.056509 0.562810 0.064469
C3    C     C_R   0.729299 0.999552 0.143314 0.534771
C4    C     C_R   0.774093 0.128432 0.856580 0.612008
C5    C     C_R   0.216435 0.155708 0.135110 0.538899
C6    C     C_R   0.274093 0.628432 0.856580 0.612008
C7    C     C_R   0.716435 0.655706 0.135110 0.538903
C8    C     C_R   0.968226 0.353338 0.854269 0.567641
C9    C     C_R   0.028825 0.352729 0.147737 0.531671
C10   C     C_R   0.468226 0.853338 0.854269 0.567641
C11   C     C_R   0.528825 0.852730 0.147737 0.531671
C12   C     C_3   0.692069 0.145629 0.461135 -0.240702
C13   C     C_3   0.247784 0.559547 0.435807 0.062382
C14   C     C_3   0.314792 0.127119 0.534231 -0.233320
C15   C     C_3   0.192069 0.645629 0.461135 -0.240702
C16   C     C_3   0.814792 0.627119 0.534231 -0.233320
C17   C     C_3   0.693654 0.150200 0.543076 -0.234565
C18   C     C_3   0.313257 0.130181 0.452206 -0.240757
C19   C     C_3   0.193654 0.650200 0.543076 -0.234565
C20   C     C_3   0.813257 0.630181 0.452206 -0.240756
C21   C     C_3   0.745056 0.944690 0.480891 -0.230262
C22   C     C_3   0.239783 0.940393 0.520634 -0.220364
C23   C     C_3   0.245056 0.444690 0.480891 -0.230262
C24   C     C_3   0.753008 0.556509 0.562810 0.064469
C25   C     C_3   0.739783 0.440393 0.520634 -0.220364
C26   C     C_3   0.760034 0.092633 0.573585 0.061954
C27   C     C_3   0.242444 0.087872 0.424526 0.061595
C28   C     C_3   0.260034 0.592633 0.573585 0.061954
C29   C     C_3   0.742444 0.587872 0.424526 0.061595
C30   C     C_3   0.752485 0.961776 0.562054 -0.255722
C31   C     C_3   0.237851 0.957419 0.439360 -0.254381
C32   C     C_3   0.252485 0.461776 0.562054 -0.255722
C33   C     C_R   0.239443 0.525276 0.359977 0.542442
C34   C     C_3   0.737851 0.457420 0.439360 -0.254381
C35   C     C_3   0.824257 0.130325 0.531282 -0.218494
C36   C     C_3   0.186376 0.150244 0.466719 -0.221943
C37   C     C_3   0.324257 0.630325 0.531282 -0.218494
C38   C     C_3   0.686376 0.650244 0.466719 -0.221943
C39   C     C_3   0.994157 0.205907 0.457531 -0.240591
C40   C     C_3   0.992719 0.206326 0.540223 -0.232230
C41   C     C_3   0.494157 0.705907 0.457531 -0.240591
C42   C     C_3   0.492719 0.706326 0.540223 -0.232230
C43   C     C_3   0.068339 0.384256 0.475773 -0.228050
C44   C     C_R   0.260994 0.023862 0.639196 0.543665
C45   C     C_3   0.935875 0.410151 0.523746 -0.218316
C46   C     C_3   0.568339 0.884257 0.475773 -0.228050
C47   C     C_3   0.435875 0.910151 0.523746 -0.218316
C48   C     C_3   0.945755 0.404218 0.443033 -0.250295
C49   C     C_3   0.056655 0.389194 0.556440 -0.255175
C50   C     C_3   0.445755 0.904218 0.443033 -0.250295
C51   C     C_3   0.556655 0.889194 0.556440 -0.255175
C52   C     C_3   0.008987 0.331899 0.430237 0.061661
C53   C     C_3   0.987702 0.334083 0.568494 0.061391
C54   C     C_3   0.508987 0.831899 0.430237 0.061661
C55   C     C_R   0.739443 0.025276 0.359977 0.542442
C56   C     C_3   0.487702 0.834083 0.568494 0.061391
C57   C     C_3   0.812784 0.007191 0.045347 -0.196357
C58   C     C_3   0.187535 0.997680 0.956216 -0.193956
C59   C     C_3   0.312784 0.507191 0.045348 -0.196358
C60   C     C_3   0.687536 0.497679 0.956216 -0.193956
C61   C     C_R   0.773990 0.122064 0.649179 0.551838
C62   C     C_R   0.227566 0.118157 0.349014 0.542859
C63   C     C_R   0.273990 0.622064 0.649179 0.551838
C64   C     C_R   0.727566 0.618158 0.349014 0.542859
C65   C     C_3   0.824409 0.035831 0.968178 0.067766
C66   C     C_3   0.815983 0.117196 0.450330 -0.253382
C67   C     C_3   0.177623 0.027157 0.034093 0.081344
C68   C     C_3   0.324409 0.535831 0.968178 0.067766
C69   C     C_3   0.677624 0.527155 0.034094 0.081344
C70   C     C_3   0.684507 0.981459 0.013376 -0.252759
C71   C     C_3   0.312878 0.998813 0.987731 -0.227933
C72   C     C_3   0.184507 0.481461 0.013376 -0.252758
C73   C     C_3   0.812878 0.498812 0.987731 -0.227933
C74   C     C_3   0.730806 0.167222 0.054246 -0.235552
C75   C     C_3   0.260375 0.172958 0.931441 -0.211470
C76   C     C_3   0.230807 0.667223 0.054246 -0.235554
C77   C     C_3   0.191262 0.133321 0.548185 -0.260065
C78   C     C_3   0.760374 0.672958 0.931442 -0.211470
C79   C     C_3   0.738644 0.036800 0.066217 -0.044014
C80   C     C_3   0.258929 0.039730 0.931098 -0.011132
C81   C     C_3   0.238644 0.536801 0.066218 -0.044013
C82   C     C_3   0.758929 0.539729 0.931098 -0.011132
C83   C     C_3   0.758857 0.085336 0.930041 0.071235
C84   C     C_3   0.233612 0.114799 0.061111 0.075040
C85   C     C_3   0.258857 0.585336 0.930041 0.071235
C86   C     C_3   0.733613 0.614798 0.061112 0.075041
C87   C     C_3   0.706970 0.987306 0.933477 0.062699
C88   C     C_3   0.315983 0.617196 0.450330 -0.253381
C89   C     C_3   0.304754 0.059150 0.060529 0.120270
C90   C     C_3   0.206970 0.487307 0.933477 0.062699
C91   C     C_3   0.804755 0.559149 0.060529 0.120268
C92   C     C_3   0.732251 0.191927 0.972724 -0.260212
C93   C     C_3   0.233750 0.213788 0.003571 -0.278949
C94   C     C_3   0.232252 0.691928 0.972724 -0.260211
C95   C     C_3   0.733750 0.713788 0.003571 -0.278948
C96   C     C_3   0.003732 0.475913 0.041005 -0.227727
C97   C     C_3   0.997523 0.478054 0.960829 -0.221244
C98   C     C_3   0.503732 0.975913 0.041004 -0.227727
C99   C     C_3   0.691262 0.633321 0.548185 -0.260066
C100  C     C_3   0.497524 0.978054 0.960829 -0.221244
C101  C     C_3   0.056084 0.266612 0.031934 -0.229898
C102  C     C_3   0.929958 0.286755 0.971964 -0.234490
C103  C     C_3   0.556084 0.766611 0.031934 -0.229899
C104  C     C_3   0.429957 0.786755 0.971964 -0.234491
C105  C     C_3   0.935371 0.297765 0.055010 -0.269670
C106  C     C_3   0.053240 0.283640 0.949890 -0.267886
C107  C     C_3   0.435371 0.797766 0.055010 -0.269670
C108  C     C_3   0.553240 0.783640 0.949890 -0.267886
C109  C     C_R   0.967611 0.342638 0.644447 0.543041
C110  C     C_3   0.747784 0.059547 0.435807 0.062382
C111  C     C_R   0.030475 0.341744 0.354461 0.531074
C112  C     C_R   0.467611 0.842638 0.644447 0.543041
C113  C     C_R   0.530474 0.841744 0.354461 0.531074
C114  C     C_3   0.006057 0.348941 0.071345 0.051577
C115  C     C_3   0.987530 0.351825 0.931738 0.056351
C116  C     C_3   0.506057 0.848941 0.071345 0.051577
C117  C     C_3   0.487530 0.851825 0.931738 0.056351
C118  C     C_R   0.771087 0.496541 0.856774 0.520983
C119  C     C_R   0.229299 0.499553 0.143314 0.534771
C120  C     C_R   0.271087 0.996541 0.856774 0.520983
Cl1   Cl    Cl    0.867692 0.915584 0.926654 -0.612314
Cl2   Cl    Cl    0.169695 0.899837 0.087996 -0.671593
Cl3   Cl    Cl    0.367692 0.415584 0.926653 -0.612316
Cl4   Cl    Cl    0.669697 0.399836 0.087997 -0.671595
Cl5   Cl    Cl    0.642516 0.009906 0.865197 -0.684306
Cl6   Cl    Cl    0.369840 0.168821 0.074806 -0.644410
Cl7   Cl    Cl    0.142516 0.509907 0.865197 -0.684306
Cl8   Cl    Cl    0.869840 0.668821 0.074806 -0.644410
Cr1   Cr    Cr6+3 0.885690 0.492860 0.745310 1.044088
Cr2   Cr    Cr6+3 0.111880 0.178590 0.246990 1.038273
Cr3   Cr    Cr6+3 0.388120 0.678590 0.753010 1.048418
Cr4   Cr    Cr6+3 0.611880 0.678590 0.246990 1.038272
Cr5   Cr    Cr6+3 0.114310 0.492860 0.254690 1.037285
Cr6   Cr    Cr6+3 0.385690 0.992860 0.745310 1.044088
Cr7   Cr    Cr6+3 0.614310 0.992860 0.254690 1.037286
Cr8   Cr    Cr6+3 0.729880 0.332270 0.748190 1.041346
Cr9   Cr    Cr6+3 0.270120 0.332270 0.251810 1.048635
Cr10  Cr    Cr6+3 0.229880 0.832270 0.748190 1.041346
Cr11  Cr    Cr6+3 0.770120 0.832270 0.251810 1.048635
Cr12  Cr    Cr6+3 0.888120 0.178590 0.753010 1.048418
H1    H     H_    0.640305 0.123556 0.441954 0.132794
H2    H     H_    0.187825 0.911675 0.534328 0.128791
H3    H     H_    0.879104 0.305556 0.949142 0.084450
H4    H     H_    0.598326 0.830259 0.931591 0.183070
H5    H     H_    0.394668 0.853800 0.076203 0.119305
H6    H     H_    0.098326 0.330259 0.931591 0.183069
H7    H     H_    0.894668 0.353800 0.076203 0.119305
H8    H     H_    0.929743 0.210404 0.080902 0.123279
H9    H     H_    0.053439 0.196890 0.923141 0.126876
H10   H     H_    0.429743 0.710404 0.080902 0.123278
H11   H     H_    0.553439 0.696890 0.923141 0.126876
H12   H     H_    0.941899 0.194819 0.959936 0.158950
H13   H     H_    0.283702 0.381717 0.463575 0.129583
H14   H     H_    0.039710 0.175012 0.042788 0.146639
H15   H     H_    0.441899 0.694819 0.959936 0.158950
H16   H     H_    0.539710 0.675012 0.042788 0.146639
H17   H     H_    0.648782 0.102906 0.563812 0.115543
H18   H     H_    0.352833 0.072697 0.431111 0.113051
H19   H     H_    0.148782 0.602906 0.563812 0.115543
H20   H     H_    0.852833 0.572697 0.431111 0.113051
H21   H     H_    0.694909 0.913250 0.470741 0.106613
H22   H     H_    0.275437 0.870592 0.536556 0.106444
H23   H     H_    0.194909 0.413250 0.470741 0.106613
H24   H     H_    0.687825 0.411675 0.534328 0.128791
H25   H     H_    0.775437 0.370592 0.536556 0.106444
H26   H     H_    0.707496 0.927212 0.590403 0.112327
H27   H     H_    0.280391 0.909774 0.414361 0.104562
H28   H     H_    0.207496 0.427212 0.590403 0.112327
H29   H     H_    0.780391 0.409774 0.414361 0.104562
H30   H     H_    0.857152 0.060369 0.429936 0.132437
H31   H     H_    0.144624 0.090126 0.568084 0.124804
H32   H     H_    0.357152 0.560369 0.429936 0.132437
H33   H     H_    0.644624 0.590126 0.568084 0.124804
H34   H     H_    0.819032 0.203830 0.422998 0.103581
H35   H     H_    0.797707 0.913399 0.583465 0.129147
H36   H     H_    0.196246 0.218843 0.575666 0.107533
H37   H     H_    0.319032 0.703830 0.422998 0.103580
H38   H     H_    0.696246 0.718843 0.575666 0.107533
H39   H     H_    0.841256 0.218846 0.545421 0.108752
H40   H     H_    0.195166 0.240458 0.453112 0.108158
H41   H     H_    0.341256 0.718846 0.545421 0.108752
H42   H     H_    0.695166 0.740458 0.453112 0.108158
H43   H     H_    0.189268 0.922615 0.416500 0.135268
H44   H     H_    0.297707 0.413399 0.583465 0.129147
H45   H     H_    0.689268 0.422615 0.416500 0.135268
H46   H     H_    0.030805 0.140593 0.439005 0.126746
H47   H     H_    0.953310 0.150244 0.560867 0.131880
H48   H     H_    0.530805 0.640593 0.439005 0.126746
H49   H     H_    0.363113 0.095119 0.555182 0.136279
H50   H     H_    0.453310 0.650244 0.560867 0.131880
H51   H     H_    0.944871 0.176878 0.435200 0.114966
H52   H     H_    0.039945 0.164964 0.561647 0.112183
H53   H     H_    0.444871 0.676878 0.435200 0.114966
H54   H     H_    0.539945 0.664964 0.561647 0.112183
H55   H     H_    0.607945 0.822592 0.468437 0.107576
H56   H     H_    0.383082 0.891571 0.537430 0.106876
H57   H     H_    0.107945 0.322592 0.468437 0.107576
H58   H     H_    0.883082 0.391571 0.537430 0.106876
H59   H     H_    0.597160 0.841264 0.587003 0.109188
H60   H     H_    0.140305 0.623555 0.441954 0.132794
H61   H     H_    0.400465 0.865262 0.415824 0.101951
H62   H     H_    0.097160 0.341263 0.587003 0.109188
H63   H     H_    0.900466 0.365262 0.415824 0.101951
H64   H     H_    0.952874 0.494161 0.421067 0.136796
H65   H     H_    0.057817 0.481491 0.574921 0.132092
H66   H     H_    0.452874 0.994161 0.421067 0.136796
H67   H     H_    0.557817 0.981491 0.574921 0.132092
H68   H     H_    0.947365 0.502046 0.537651 0.131671
H69   H     H_    0.082234 0.472133 0.456680 0.137850
H70   H     H_    0.447365 0.002046 0.537651 0.131671
H71   H     H_    0.863113 0.595119 0.555182 0.136279
H72   H     H_    0.582234 0.972133 0.456680 0.137850
H73   H     H_    0.827634 0.916114 0.058235 0.229159
H74   H     H_    0.179740 0.903515 0.947298 0.175097
H75   H     H_    0.327634 0.416114 0.058235 0.229158
H76   H     H_    0.679740 0.403514 0.947298 0.175096
H77   H     H_    0.701847 0.233270 0.438571 0.115471
H78   H     H_    0.312940 0.218291 0.554298 0.110466
H79   H     H_    0.201847 0.733271 0.438571 0.115471
H80   H     H_    0.812940 0.718291 0.554298 0.110466
H81   H     H_    0.849002 0.059767 0.078674 0.125993
H82   H     H_    0.864424 0.066900 0.547290 0.132727
H83   H     H_    0.147011 0.042806 0.923705 0.130366
H84   H     H_    0.349003 0.559766 0.078674 0.125993
H85   H     H_    0.647011 0.542805 0.923706 0.130366
H86   H     H_    0.858916 0.106541 0.968396 0.130694
H87   H     H_    0.127259 0.067947 0.037379 0.146087
H88   H     H_    0.358916 0.606540 0.968396 0.130695
H89   H     H_    0.627259 0.567946 0.037380 0.146087
H90   H     H_    0.671301 0.897614 0.033319 0.076146
H91   H     H_    0.306876 0.907251 0.000433 0.090343
H92   H     H_    0.171300 0.397615 0.033320 0.076146
H93   H     H_    0.135692 0.121536 0.448272 0.137402
H94   H     H_    0.806877 0.407251 0.000433 0.090343
H95   H     H_    0.730612 0.903774 0.918736 0.186208
H96   H     H_    0.309984 0.993768 0.104827 0.162548
H97   H     H_    0.230612 0.403775 0.918736 0.186207
H98   H     H_    0.809986 0.493767 0.104827 0.162547
H99   H     H_    0.679925 0.188223 0.074505 0.228769
H100  H     H_    0.313291 0.203459 0.924056 0.242770
H101  H     H_    0.179927 0.688225 0.074506 0.228771
H102  H     H_    0.813291 0.703459 0.924056 0.242770
H103  H     H_    0.770698 0.218114 0.083549 0.164479
H104  H     H_    0.364424 0.566900 0.547290 0.132727
H105  H     H_    0.228639 0.209032 0.886301 0.145298
H106  H     H_    0.270699 0.718115 0.083548 0.164475
H107  H     H_    0.728638 0.709031 0.886301 0.145297
H108  H     H_    0.764242 0.266008 0.960407 0.092469
H109  H     H_    0.182053 0.237058 0.989117 0.073846
H110  H     H_    0.264242 0.766009 0.960407 0.092469
H111  H     H_    0.682053 0.737056 0.989117 0.073847
H112  H     H_    0.679672 0.212875 0.953542 0.196390
H113  H     H_    0.262380 0.289159 0.022130 0.185657
H114  H     H_    0.179672 0.712875 0.953543 0.196391
H115  H     H_    0.635691 0.621536 0.448272 0.137402
H116  H     H_    0.762380 0.789158 0.022130 0.185657
H117  H     H_    0.637806 0.032533 0.014957 0.152329
H118  H     H_    0.363064 0.012511 0.966983 0.151202
H119  H     H_    0.137806 0.532535 0.014957 0.152330
H120  H     H_    0.863064 0.512510 0.966983 0.151202
H121  H     H_    0.686869 0.239283 0.561706 0.137524
H122  H     H_    0.326698 0.219048 0.433437 0.136832
H123  H     H_    0.186869 0.739283 0.561706 0.137524
H124  H     H_    0.826698 0.719048 0.433437 0.136831
H125  H     H_    0.045333 0.533513 0.059038 0.157380
H126  H     H_    0.783702 0.881717 0.463575 0.129583
H127  H     H_    0.959877 0.543519 0.942463 0.171607
H128  H     H_    0.545334 0.033513 0.059037 0.157379
H129  H     H_    0.459877 0.043519 0.942463 0.171606
H130  H     H_    0.959191 0.518090 0.063212 0.209530
H131  H     H_    0.043695 0.517233 0.940923 0.205789
H132  H     H_    0.459191 0.018090 0.063212 0.209530
H133  H     H_    0.543696 0.017233 0.940923 0.205789
H134  H     H_    0.606232 0.769337 0.057256 0.098865
H135  H     H_    0.379104 0.805557 0.949142 0.084451
H136  H     H_    0.106232 0.269337 0.057256 0.098864
O1    O     O_R   0.957210 0.449410 0.665480 -0.521171
O2    O     O_R   0.167480 0.095300 0.164000 -0.452671
O3    O     O_R   0.332520 0.595300 0.836000 -0.465265
O4    O     O_R   0.667480 0.595300 0.164000 -0.452673
O5    O     O_R   0.946380 0.253940 0.826940 -0.508913
O6    O     O_R   0.053620 0.253940 0.173060 -0.517849
O7    O     O_R   0.446380 0.753940 0.826940 -0.508913
O8    O     O_R   0.553620 0.753940 0.173060 -0.517849
O9    O     O_3   0.834560 0.334570 0.748840 -0.320567
O10   O     O_3   0.165440 0.334570 0.251160 -0.317963
O11   O     O_3   0.334560 0.834570 0.748840 -0.320567
O12   O     O_R   0.042790 0.449410 0.334520 -0.529169
O13   O     O_3   0.665440 0.834570 0.251160 -0.317962
O14   O     O_R   0.820730 0.541240 0.668250 -0.511471
O15   O     O_R   0.179270 0.541240 0.331750 -0.508939
O16   O     O_R   0.320730 0.041240 0.668250 -0.511471
O17   O     O_R   0.679270 0.041240 0.331750 -0.508939
O18   O     O_R   0.714240 0.455060 0.663710 -0.526943
O19   O     O_R   0.285760 0.455060 0.336290 -0.528624
O20   O     O_R   0.214240 0.955060 0.663710 -0.526943
O21   O     O_R   0.785760 0.955060 0.336290 -0.528624
O22   O     O_R   0.736780 0.204870 0.675910 -0.504745
O23   O     O_R   0.457210 0.949410 0.665480 -0.521171
O24   O     O_R   0.263220 0.204870 0.324090 -0.511859
O25   O     O_R   0.236780 0.704870 0.675910 -0.504745
O26   O     O_R   0.763220 0.704870 0.324090 -0.511859
O27   O     O_R   0.833070 0.087590 0.673490 -0.523127
O28   O     O_R   0.166930 0.087590 0.326510 -0.518536
O29   O     O_R   0.333070 0.587590 0.673490 -0.523127
O30   O     O_R   0.666930 0.587590 0.326510 -0.518536
O31   O     O_R   0.946890 0.246800 0.676300 -0.514083
O32   O     O_R   0.053110 0.246800 0.323700 -0.513104
O33   O     O_R   0.446890 0.746800 0.676300 -0.514083
O34   O     O_R   0.542790 0.949410 0.334520 -0.529169
O35   O     O_R   0.553110 0.746800 0.323700 -0.513104
O36   O     O_R   0.956650 0.457120 0.827980 -0.494402
O37   O     O_R   0.043350 0.457120 0.172020 -0.512411
O38   O     O_R   0.456650 0.957120 0.827980 -0.494402
O39   O     O_R   0.543350 0.957120 0.172020 -0.512411
O40   O     O_R   0.820220 0.548390 0.818890 -0.489490
O41   O     O_R   0.179780 0.548390 0.181110 -0.482233
O42   O     O_R   0.320220 0.048390 0.818890 -0.489490
O43   O     O_R   0.679780 0.048390 0.181110 -0.482233
O44   O     O_R   0.713680 0.462770 0.826210 -0.518769
O45   O     O_R   0.736260 0.212010 0.826560 -0.482934
O46   O     O_R   0.286320 0.462770 0.173790 -0.510590
O47   O     O_R   0.213680 0.962770 0.826210 -0.518769
O48   O     O_R   0.786320 0.962770 0.173790 -0.510590
O49   O     O_R   0.263740 0.212010 0.173440 -0.455806
O50   O     O_R   0.236260 0.712010 0.826560 -0.482934
O51   O     O_R   0.763740 0.712010 0.173440 -0.455808
O52   O     O_R   0.832520 0.095300 0.836000 -0.465265

loop_
_geom_bond_atom_site_label_1
_geom_bond_atom_site_label_2
_ccdc_geom_bond_type
C73   C82   S    
Cr11  O13   S    
C3    C79   S    
C21   C110  S    
C88   H37   S    
C40   H47   S    
C57   H81   S    
C71   H118  S    
C48   H63   S    
C6    C85   S    
C1    O18   A    
C9    C114  S    
C89   H96   S    
C18   H122  S    
C94   H114  S    
C59   H75   S    
C50   H61   S    
Cr8   O9    S    
C25   H24   S    
C87   H95   S    
C74   C92   S    
Cr11  O26   S    
C41   H53   S    
C76   C94   S    
C14   H49   S    
C93   H109  S    
C2    C22   S    
C3    O43   A    
Cr12  O9    S    
C97   C115  S    
C64   O30   A    
Cr6   O38   S    
C25   C34   S    
C29   C64   S    
C37   H104  S    
C96   C114  S    
C75   H100  S    
C11   O8    A    
Cr1   O36   S    
C100  H129  S    
C112  O23   A    
C27   C31   S    
C28   C32   S    
C35   C66   S    
C118  O44   A    
C66   H30   S    
C119  O41   A    
C13   C33   S    
C108  H11   S    
C39   H51   S    
C78   C82   S    
C40   H52   S    
C77   H31   S    
C119  O46   A    
C37   H41   S    
C43   H57   S    
C66   C110  S    
Cr7   O13   S    
C73   C91   S    
C73   H94   S    
C33   O19   A    
Cr8   O18   S    
C58   H74   S    
Cr7   O39   S    
C31   H27   S    
C74   C79   S    
C23   H13   S    
C82   C118  S    
C108  H4    S    
C75   C93   S    
C104  C117  S    
Cr1   O40   S    
C53   C109  S    
C5    O49   A    
C70   C79   S    
C103  H134  S    
C85   C90   S    
C68   H88   S    
C81   C119  S    
C61   O27   A    
C106  C115  S    
C36   C77   S    
Cr10  O25   S    
Cr1   O9    S    
C76   H101  S    
C36   H93   S    
C19   H19   S    
C20   H124  S    
C49   C53   S    
C46   C51   S    
C103  C116  S    
C84   C93   S    
C2    C14   S    
C86   C95   S    
Cr5   O41   S    
C28   C63   S    
C58   C67   S    
C48   C52   S    
Cr11  O48   S    
Cr5   O10   S    
C20   H20   S    
C71   H91   S    
Cr4   O13   S    
C66   H34   S    
C100  C117  S    
C104  C107  S    
C112  O33   A    
Cr2   O10   S    
C12   C110  S    
C92   H108  S    
Cr3   O33   S    
C113  O35   A    
Cr5   O15   S    
C51   H67   S    
C43   C52   S    
C7    C86   S    
C4    O52   A    
C12   H1    S    
C13   C23   S    
C6    O50   A    
C97   H127  S    
C70   H117  S    
C2    C44   S    
C29   C38   S    
C1    O14   A    
C111  O12   A    
C17   H17   S    
C45   C53   S    
C68   C85   S    
C107  H10   S    
C8    O36   A    
C43   H69   S    
C70   C87   S    
C94   H110  S    
C68   Cl3   S    
C47   C50   S    
C9    O37   A    
C92   H112  S    
C35   H39   S    
Cr4   O4    S    
Cr11  O51   S    
C99   H38   S    
C59   H84   S    
C39   C40   S    
C5    C84   S    
C105  H8    S    
Cr10  O11   S    
C27   C62   S    
C69   H89   S    
C72   C90   S    
C103  H16   S    
C67   H87   S    
Cr5   O12   S    
Cr7   O34   S    
Cr12  O52   S    
Cr8   O45   S    
C19   C28   S    
C34   H29   S    
C21   H126  S    
C50   H66   S    
C57   H73   S    
Cr1   O14   S    
C26   C30   S    
C77   H36   S    
C7    O51   A    
C4    O45   A    
C15   H79   S    
C101  C106  S    
C118  O40   A    
C72   H92   S    
Cr2   O28   S    
C108  C117  S    
C16   H71   S    
C14   H78   S    
C5    O2    A    
Cr4   O30   S    
C12   H77   S    
C109  O1    A    
C45   H68   S    
C48   H64   S    
C38   H42   S    
C62   O28   A    
C60   H76   S    
C10   C117  S    
C15   H60   S    
Cr7   O43   S    
Cr9   O10   S    
Cr8   O44   S    
Cr10  O50   S    
C9    O6    A    
C16   H80   S    
Cr4   O35   S    
C107  C116  S    
C55   O17   A    
C72   H119  S    
C102  H3    S    
C95   H116  S    
C102  H12   S    
C47   C56   S    
C83   C87   S    
C41   C42   S    
C37   C88   S    
C36   H40   S    
Cr5   O37   S    
C15   C19   S    
C50   C54   S    
C26   C61   S    
Cr6   O16   S    
C86   C91   S    
C22   H22   S    
C93   H113  S    
C102  C105  S    
C57   C79   S    
C102  C115  S    
C42   C56   S    
C39   H46   S    
C55   O21   A    
C12   C17   S    
C90   Cl7   S    
C101  H136  S    
C65   Cl1   S    
Cr3   O3    S    
C72   C81   S    
C58   C80   S    
C38   H115  S    
Cr3   O29   S    
Cr10  O47   S    
C101  C114  S    
C6    O3    A    
Cr3   O7    S    
Cr9   O49   S    
C89   Cl6   S    
C91   Cl8   S    
C64   O26   A    
C47   H56   S    
C35   H82   S    
C95   H111  S    
C97   H131  S    
C69   Cl4   S    
C25   H25   S    
C29   C34   S    
C41   H48   S    
C10   O7    A    
C34   H45   S    
C18   H18   S    
C99   H33   S    
Cr9   O19   S    
C78   C95   S    
C46   C54   S    
Cr6   O11   S    
C11   C116  S    
C74   H103  S    
Cr4   O8    S    
C49   H65   S    
Cr7   O17   S    
C98   C100  S    
C7    O4    A    
C30   H35   S    
C45   C48   S    
C96   H125  S    
C109  O31   A    
C90   H97   S    
C59   C81   S    
C57   C65   S    
C38   C99   S    
C106  H6    S    
Cr11  O21   S    
C27   C36   S    
C21   C30   S    
C113  O34   A    
C98   H132  S    
C23   C32   S    
C2    C77   S    
C4    C83   S    
C91   H98   S    
C65   H86   S    
Cr6   O23   S    
C17   H121  S    
C19   H123  S    
C80   C120  S    
C88   H32   S    
C24   C99   S    
C62   O24   A    
C14   C18   S    
C63   O29   A    
Cr12  O5    S    
Cr6   O42   S    
C73   H120  S    
C46   H55   S    
C83   C92   S    
C78   H102  S    
C17   C26   S    
C60   C69   S    
C51   C56   S    
C107  H5    S    
C58   H83   S    
C46   H72   S    
C65   C83   S    
C120  O47   A    
C96   H130  S    
C105  H7    S    
C54   C113  S    
C60   H85   S    
C74   H99   S    
C42   H54   S    
C42   H50   S    
C8    C115  S    
C60   C82   S    
C28   C37   S    
Cr1   O1    S    
C103  C108  S    
C120  O42   A    
C75   C80   S    
C75   H105  S    
C16   C20   S    
C39   C52   S    
C67   C84   S    
C104  H15   S    
C106  H9    S    
C71   C80   S    
C33   O15   A    
Cr8   O22   S    
C23   H23   S    
C20   C29   S    
C111  O32   A    
C21   H21   S    
C22   C31   S    
C105  C114  S    
C24   C25   S    
C30   H26   S    
Cr10  O20   S    
C98   H128  S    
Cr9   O46   S    
C43   C49   S    
C52   C111  S    
C45   H58   S    
Cr2   O2    S    
C70   H90   S    
C59   C68   S    
C85   C94   S    
C98   C116  S    
C3    O48   A    
C71   C89   S    
C96   C97   S    
C78   H107  S    
C104  H135  S    
C51   H59   S    
C1    C24   S    
Cr12  O27   S    
C63   O25   A    
C13   C15   S    
C55   C110  S    
C84   C89   S    
C67   Cl2   S    
C87   Cl5   S    
C49   H62   S    
C61   O22   A    
C44   O16   A    
C31   H43   S    
C44   O20   A    
C32   H44   S    
C76   H106  S    
C18   C27   S    
C101  H14   S    
C76   C81   S    
C10   O38   A    
C100  H133  S    
C32   H28   S    
Cr2   O6    S    
Cr3   O11   S    
C8    O5    A    
Cr2   O32   S    
C22   H2    S    
C11   O39   A    
C13   C88   S    
C26   C35   S    
C41   C54   S    
Cr12  O31   S    
C16   C24   S    
C40   C53   S    
C47   H70   S    
Cr9   O24   S    
C56   C112  S    
C69   C86   S    
