data_str_m9_o5_o16_f0_sra.sym.56
_audit_creation_date              2012-12-11T17:14:07-0500
_audit_creation_method            fapswitch 2.2
_symmetry_space_group_name_H-M    P1
_symmetry_Int_Tables_number       1
_space_group_crystal_system       triclinic
_cell_length_a                    18.214791
_cell_length_b                    7.095874
_cell_length_c                    13.016861
_cell_angle_alpha                 89.997229
_cell_angle_beta                  72.49035
_cell_angle_gamma                 90.000337
_cell_volume                      1604.47437857

loop_
_atom_site_label
_atom_site_type_symbol
_atom_type_description
_atom_site_fract_x
_atom_site_fract_y
_atom_site_fract_z
_atom_type_partial_charge
O1    O     O_R   0.453880 0.506200 0.150010 -0.538593
O2    O     O_R   0.546120 0.006200 0.849990 -0.538594
O3    O     O_R   0.604080 0.177770 0.007280 -0.537824
O4    O     O_R   0.395920 0.677770 0.992720 -0.537824
C1    C     C_R   0.635961 0.344487 0.001845 0.728936
C2    C     C_R   0.364039 0.844487 0.998156 0.728933
O5    O     O_R   0.458010 0.176640 0.159130 -0.542018
O6    O     O_R   0.541990 0.676640 0.840870 -0.542015
O7    O     O_R   0.399010 0.004010 0.002930 -0.535214
O8    O     O_R   0.600990 0.504010 0.997070 -0.535214
C3    C     C_R   0.443331 0.345209 0.201430 0.691347
C4    C     C_R   0.556669 0.845219 0.798570 0.691346
O9    O     O_3   0.480810 0.338440 0.948570 -0.375803
O10   O     O_3   0.519190 0.838440 0.051430 -0.375801
V1    V     V_3+5 0.503560 0.064490 0.009540 1.447662
V2    V     V_3+5 0.496440 0.564490 0.990460 1.447665
C5    C     C_R   0.577717 0.865385 0.504028 -0.156550
C6    C     C_R   0.422285 0.365005 0.495978 -0.156552
H1    H     H_    0.482220 0.859895 0.648482 0.108182
H2    H     H_    0.517781 0.359460 0.351524 0.108180
H3    H     H_    0.651218 0.873124 0.298266 0.124329
H4    H     H_    0.348784 0.372734 0.701740 0.124333
H5    H     H_    0.540474 0.870135 0.452915 0.124225
H6    H     H_    0.459528 0.369580 0.547093 0.124226
C7    C     C_R   0.591083 0.853622 0.682248 -0.032422
C8    C     C_R   0.408918 0.353574 0.317753 -0.032422
C9    C     C_R   0.950618 0.853572 0.384443 0.347700
C10   C     C_R   0.049382 0.353733 0.615553 0.347700
C11   C     C_R   0.918750 0.847858 0.495257 -0.076225
C12   C     C_R   0.081250 0.348050 0.504740 -0.076222
C13   C     C_R   0.839557 0.849229 0.541661 -0.172103
C14   C     C_R   0.160444 0.349348 0.458337 -0.172103
C15   C     C_R   0.788625 0.856016 0.478125 0.064857
C16   C     C_R   0.211376 0.356043 0.521875 0.064857
C17   C     C_R   0.820585 0.861042 0.362998 -0.031314
C18   C     C_R   0.179416 0.361023 0.637002 -0.031314
C19   C     C_R   0.706865 0.857757 0.526200 0.092301
C20   C     C_R   0.293136 0.357721 0.473801 0.092302
C21   C     C_R   0.658198 0.864179 0.459319 0.123515
C22   C     C_R   0.341804 0.363943 0.540685 0.123516
C23   C     C_R   0.689505 0.868668 0.348151 -0.232693
C24   C     C_R   0.310496 0.368394 0.651853 -0.232697
C25   C     C_R   0.768734 0.866857 0.299276 -0.062790
C26   C     C_R   0.231267 0.366727 0.700726 -0.062790
C27   C     C_R   0.671185 0.852967 0.638976 -0.195816
C28   C     C_R   0.328816 0.353060 0.361024 -0.195819
C29   C     C_R   0.544362 0.859736 0.615013 -0.182274
C30   C     C_R   0.455639 0.359431 0.384992 -0.182276
C31   C     C_R   0.902808 0.860271 0.317483 -0.173202
C32   C     C_R   0.097193 0.360315 0.682516 -0.173204
H7    H     H_    0.703318 0.847869 0.696096 0.106203
H8    H     H_    0.296682 0.348171 0.303902 0.106205
H9    H     H_    0.820470 0.844729 0.628228 0.148059
H10   H     H_    0.179531 0.344843 0.371771 0.148056
H11   H     H_    0.955831 0.842569 0.546519 0.180890
H12   H     H_    0.044169 0.342836 0.453477 0.180883
C33   C     C_1   0.216299 0.858811 0.000282 -0.114712
C34   C     C_1   0.783701 0.358810 0.999718 -0.114714
C35   C     C_1   0.283605 0.852550 0.999053 -0.162532
C36   C     C_1   0.716395 0.352551 0.000947 -0.162533
O11   O     O_R   0.899030 0.205490 0.002790 -0.528408
O12   O     O_R   0.100970 0.705490 0.997210 -0.528400
O13   O     O_R   0.042000 0.536370 0.840840 -0.539261
O14   O     O_R   0.958000 0.036370 0.159160 -0.539269
C37   C     C_R   0.059176 0.368466 0.798788 0.783011
C38   C     C_R   0.940824 0.868456 0.201212 0.783011
O15   O     O_R   0.895930 0.535070 0.992690 -0.529238
O16   O     O_R   0.104070 0.035070 0.007310 -0.529245
O17   O     O_R   0.953870 0.707520 0.150040 -0.538825
O18   O     O_R   0.046130 0.207520 0.849960 -0.538834
C39   C     C_R   0.864150 0.366778 0.998684 0.759641
C40   C     C_R   0.135850 0.866779 0.001316 0.759638
O19   O     O_3   0.019200 0.374340 0.051340 -0.370650
O20   O     O_3   0.980800 0.874340 0.948660 -0.370653
V3    V     V_3+5 0.996440 0.648350 0.990470 1.556776
V4    V     V_3+5 0.003560 0.148350 0.009530 1.556749
Cl1   Cl    Cl    0.051952 0.852136 0.331673 -0.688574
Cl2   Cl    Cl    0.948047 0.352392 0.668321 -0.688580
C41   C     C_1   0.791689 0.869703 0.182985 0.247635
N1    N     N_1   0.808359 0.871802 0.089925 -0.318192
C42   C     C_1   0.208311 0.369632 0.817016 0.247633
N2    N     N_1   0.191640 0.371784 0.910076 -0.318191

loop_
_geom_bond_atom_site_label_1
_geom_bond_atom_site_label_2
_ccdc_geom_bond_type
C12   C14   A    
O13   C37   A    
C9    C11   A    
C23   C25   A    
O1    C3    A    
O2    C4    A    
C2    O7    A    
C42   N2    T    
C18   C32   A    
C21   C23   A    
O5    C3    A    
C5    H5    S    
O20   V4    S    
C6    H6    S    
H1    C29   S    
C34   C39   S    
C33   C35   T    
C38   O17   A    
C27   H7    S    
C34   C36   T    
C37   O18   A    
C28   H8    S    
C5    C21   A    
C6    C22   A    
C10   C32   A    
C17   C31   A    
C13   C15   A    
C17   C25   A    
C7    C29   A    
O15   C39   A    
C8    C30   A    
O11   C39   A    
C22   C24   A    
O6    V2    S    
O19   V3    S    
C24   C26   A    
C14   H10   S    
O11   V4    S    
O20   V3    S    
O4    C2    A    
C26   C42   S    
C31   C38   S    
C11   H11   S    
C3    C8    S    
O3    C1    A    
C12   H12   S    
C15   C19   A    
O16   C40   A    
O14   C38   A    
O4    V2    S    
O6    C4    A    
O14   V4    S    
O12   C40   A    
O1    V2    S    
C13   H9    S    
O2    V1    S    
H2    C30   S    
H3    C23   S    
O18   V4    S    
O19   V4    S    
O12   V3    S    
C18   C26   A    
O15   V3    S    
C19   C27   A    
C7    C27   A    
C10   Cl2   S    
C1    C36   S    
C16   C20   A    
C2    C35   S    
C5    C29   A    
C9    Cl1   S    
C6    C30   A    
O16   V4    S    
C4    C7    S    
C10   C12   A    
O7    V1    S    
C1    O8    A    
C11   C13   A    
O8    V2    S    
C20   C22   A    
H4    C24   S    
O13   V3    S    
O5    V1    S    
C15   C17   A    
O17   V3    S    
C16   C18   A    
C33   C40   S    
C32   C37   S    
C20   C28   A    
C8    C28   A    
C41   N1    T    
C19   C21   A    
O9    V2    S    
O10   V1    S    
O3    V1    S    
C25   C41   S    
C9    C31   A    
C14   C16   A    
