data_str_m4_o22_o22_f0_acs.sym.49
_audit_creation_date              2012-12-11T15:07:01-0500
_audit_creation_method            fapswitch 2.2
_symmetry_space_group_name_H-M    P1
_symmetry_Int_Tables_number       1
_space_group_crystal_system       triclinic
_cell_length_a                    19.805817
_cell_length_b                    11.380396
_cell_length_c                    18.700916
_cell_angle_alpha                 90.287289
_cell_angle_beta                  90.648297
_cell_angle_gamma                 90.04654
_cell_volume                      4214.82542279

loop_
_atom_site_label
_atom_site_type_symbol
_atom_type_description
_atom_site_fract_x
_atom_site_fract_y
_atom_site_fract_z
_atom_type_partial_charge
C1    C     C_R   0.760722 0.525702 0.640395 0.536188
C2    C     C_3   0.251825 0.062450 0.565308 0.066419
C3    C     C_R   0.738693 0.031836 0.150601 0.533770
C4    C     C_R   0.774374 0.132668 0.858626 0.532691
C5    C     C_R   0.225591 0.132975 0.141281 0.533745
C6    C     C_R   0.274691 0.633845 0.858962 0.533300
C7    C     C_R   0.725304 0.633381 0.141004 0.533455
C8    C     C_R   0.969744 0.353400 0.853072 0.530251
C9    C     C_R   0.032219 0.353081 0.145670 0.534017
C10   C     C_R   0.467926 0.853381 0.854090 0.533230
C11   C     C_R   0.531739 0.853002 0.145971 0.534191
C12   C     C_3   0.689262 0.137444 0.462239 -0.234037
C13   C     C_3   0.249255 0.566434 0.433614 0.066652
C14   C     C_3   0.311950 0.133694 0.537226 -0.236668
C15   C     C_3   0.189263 0.637442 0.462238 -0.234007
C16   C     C_3   0.811950 0.633695 0.537226 -0.236641
C17   C     C_3   0.700664 0.161526 0.541572 -0.229255
C18   C     C_3   0.298314 0.164406 0.459326 -0.235893
C19   C     C_3   0.200662 0.661522 0.541572 -0.229268
C20   C     C_3   0.798308 0.664420 0.459329 -0.235944
C21   C     C_3   0.757861 0.951281 0.476265 -0.215895
C22   C     C_3   0.243351 0.948109 0.520695 -0.220439
C23   C     C_3   0.257864 0.451276 0.476266 -0.215851
C24   C     C_3   0.751826 0.562448 0.565308 0.066571
C25   C     C_3   0.743356 0.448109 0.520693 -0.220396
C26   C     C_3   0.925918 0.494603 0.400533 -0.415488
C27   C     C_3   0.078161 0.489560 0.606632 -0.406718
C28   C     C_3   0.425907 0.994583 0.400517 -0.415550
C29   C     C_3   0.578156 0.989567 0.606622 -0.406739
C30   C     C_3   0.763746 0.097339 0.571599 0.064156
C31   C     C_3   0.236385 0.097898 0.428091 0.064138
C32   C     C_3   0.263745 0.597337 0.571599 0.064072
C33   C     C_3   0.736384 0.597902 0.428091 0.064031
C34   C     C_3   0.759299 0.966016 0.557147 -0.257074
C35   C     C_3   0.242755 0.966359 0.439968 -0.254305
C36   C     C_3   0.259299 0.466014 0.557147 -0.257083
C37   C     C_R   0.240005 0.528577 0.358546 0.533964
C38   C     C_3   0.742764 0.466365 0.439966 -0.254319
C39   C     C_3   0.826229 0.140420 0.528479 -0.224732
C40   C     C_3   0.173651 0.137490 0.472113 -0.229034
C41   C     C_3   0.326228 0.640420 0.528479 -0.224727
C42   C     C_3   0.673647 0.637482 0.472114 -0.229068
C43   C     C_3   0.005786 0.205542 0.459208 -0.255083
C44   C     C_3   0.996136 0.204686 0.541116 -0.255610
C45   C     C_3   0.505785 0.705539 0.459206 -0.255066
C46   C     C_3   0.496134 0.704687 0.541114 -0.255626
C47   C     C_3   0.065134 0.407672 0.477308 -0.192408
C48   C     C_R   0.260721 0.025704 0.640396 0.536731
C49   C     C_3   0.937887 0.406874 0.525579 -0.191617
C50   C     C_3   0.565129 0.907673 0.477303 -0.192356
C51   C     C_3   0.437882 0.906874 0.525574 -0.191667
C52   C     C_3   0.942177 0.385500 0.444503 -0.142501
C53   C     C_3   0.061095 0.383711 0.558427 -0.139152
C54   C     C_3   0.442171 0.885492 0.444497 -0.142430
C55   C     C_3   0.561090 0.883714 0.558422 -0.139179
C56   C     C_3   0.012132 0.333803 0.431719 0.070918
C57   C     C_3   0.990561 0.332403 0.570060 0.071713
C58   C     C_3   0.512127 0.833800 0.431715 0.071019
C59   C     C_R   0.740005 0.028579 0.358546 0.534339
C60   C     C_3   0.490557 0.832405 0.570057 0.071538
C61   C     C_3   0.812085 0.010541 0.044204 -0.225523
C62   C     C_3   0.186592 0.016291 0.954119 -0.224853
C63   C     C_3   0.313743 0.516153 0.045664 -0.224513
C64   C     C_3   0.680683 0.529747 0.951511 -0.229017
C65   C     C_R   0.775689 0.124423 0.648009 0.536755
C66   C     C_R   0.224026 0.125585 0.352185 0.539852
C67   C     C_R   0.275689 0.624422 0.648009 0.536988
C68   C     C_R   0.724025 0.625589 0.352186 0.540160
C69   C     C_3   0.815203 0.018021 0.964076 -0.234572
C70   C     C_3   0.812526 0.140523 0.446926 -0.265599
C71   C     C_3   0.180623 0.031780 0.033357 -0.228758
C72   C     C_3   0.319654 0.531903 0.966404 -0.226847
C73   C     C_3   0.677585 0.537470 0.031730 -0.226957
C74   C     C_3   0.682171 0.033204 0.029605 -0.213746
C75   C     C_3   0.316246 0.029642 0.970129 -0.215679
C76   C     C_3   0.184252 0.529533 0.029253 -0.216160
C77   C     C_3   0.806875 0.512191 0.969194 -0.220738
C78   C     C_3   0.754285 0.199095 0.062824 -0.258418
C79   C     C_3   0.247168 0.202665 0.938876 -0.260732
C80   C     C_3   0.253814 0.702551 0.062270 -0.260671
C81   C     C_3   0.188351 0.136545 0.553405 -0.264515
C82   C     C_3   0.755107 0.703343 0.939390 -0.255126
C83   C     C_3   0.746457 0.067792 0.074085 0.063537
C84   C     C_3   0.253166 0.070437 0.925585 0.062218
C85   C     C_3   0.247249 0.570115 0.074499 0.062251
C86   C     C_3   0.750753 0.572106 0.924591 0.060340
C87   C     C_3   0.759998 0.102909 0.935453 0.058953
C88   C     C_3   0.240096 0.104998 0.064375 0.061618
C89   C     C_3   0.260394 0.605765 0.935852 0.061517
C90   C     C_3   0.739048 0.605594 0.063781 0.062003
C91   C     C_3   0.692001 0.043998 0.947775 -0.249885
C92   C     C_3   0.312526 0.640519 0.446926 -0.265615
C93   C     C_3   0.303476 0.030714 0.051970 -0.260077
C94   C     C_3   0.197097 0.531488 0.947439 -0.258996
C95   C     C_3   0.799961 0.526666 0.051357 -0.259270
C96   C     C_3   0.761444 0.217220 0.981156 -0.228300
C97   C     C_3   0.250818 0.221533 0.021256 -0.216693
C98   C     C_3   0.249605 0.722008 0.980074 -0.218278
C99   C     C_3   0.754404 0.720971 0.021647 -0.215507
C100  C     C_3   0.008916 0.478472 0.038995 -0.226756
C101  C     C_3   0.003967 0.479055 0.958171 -0.233488
C102  C     C_3   0.504334 0.977794 0.040443 -0.226941
C103  C     C_3   0.688349 0.636538 0.553406 -0.264526
C104  C     C_3   0.495340 0.978073 0.960233 -0.228167
C105  C     C_3   0.062370 0.270621 0.026973 -0.210926
C106  C     C_3   0.933427 0.295632 0.971951 -0.219413
C107  C     C_3   0.563327 0.776099 0.026549 -0.213609
C108  C     C_3   0.435761 0.776487 0.972824 -0.212659
C109  C     C_3   0.942608 0.298118 0.054129 -0.264151
C110  C     C_3   0.055349 0.281700 0.945021 -0.256988
C111  C     C_3   0.441733 0.793322 0.054808 -0.264510
C112  C     C_3   0.556953 0.792775 0.944684 -0.263103
C113  C     C_R   0.968206 0.341714 0.645113 0.536033
C114  C     C_3   0.749254 0.066439 0.433614 0.066553
C115  C     C_R   0.033063 0.342357 0.355876 0.540214
C116  C     C_R   0.468204 0.841715 0.645111 0.536560
C117  C     C_R   0.533061 0.842356 0.355874 0.539943
C118  C     C_3   0.011958 0.350732 0.068713 0.064955
C119  C     C_3   0.991611 0.352241 0.929691 0.062236
C120  C     C_3   0.510551 0.850465 0.069313 0.064111
C121  C     C_3   0.488721 0.850998 0.930698 0.063973
C122  C     C_R   0.759988 0.535623 0.847962 0.530200
C123  C     C_R   0.239079 0.533160 0.150997 0.532519
C124  C     C_R   0.260927 0.033659 0.848926 0.532998
Cr1   Cr    Cr6+3 0.885690 0.492860 0.745310 0.987384
Cr2   Cr    Cr6+3 0.111880 0.178590 0.246990 0.991876
Cr3   Cr    Cr6+3 0.388120 0.678590 0.753010 0.991114
Cr4   Cr    Cr6+3 0.611880 0.678590 0.246990 0.991669
Cr5   Cr    Cr6+3 0.114310 0.492860 0.254690 0.988306
Cr6   Cr    Cr6+3 0.385690 0.992860 0.745310 0.987637
Cr7   Cr    Cr6+3 0.614310 0.992860 0.254690 0.988270
Cr8   Cr    Cr6+3 0.729880 0.332270 0.748190 0.989349
Cr9   Cr    Cr6+3 0.270120 0.332270 0.251810 0.989660
Cr10  Cr    Cr6+3 0.229880 0.832270 0.748190 0.989432
Cr11  Cr    Cr6+3 0.770120 0.832270 0.251810 0.989766
Cr12  Cr    Cr6+3 0.888120 0.178590 0.753010 0.991044
H1    H     H_    0.642129 0.090086 0.454452 0.136890
H2    H     H_    0.191603 0.917372 0.533387 0.130644
H3    H     H_    0.539103 0.022822 0.935407 0.115976
H4    H     H_    0.614990 0.786368 0.046313 0.110653
H5    H     H_    0.384684 0.787020 0.952596 0.111095
H6    H     H_    0.114206 0.282950 0.045160 0.110273
H7    H     H_    0.891764 0.350121 0.957705 0.108871
H8    H     H_    0.598887 0.846603 0.924159 0.107122
H9    H     H_    0.400404 0.849439 0.074932 0.108455
H10   H     H_    0.099664 0.327546 0.922664 0.103170
H11   H     H_    0.902592 0.351387 0.079773 0.105097
H12   H     H_    0.939007 0.207836 0.076195 0.110705
H13   H     H_    0.309078 0.419003 0.461964 0.133758
H14   H     H_    0.051847 0.193171 0.919829 0.115229
H15   H     H_    0.438181 0.707220 0.082276 0.108960
H16   H     H_    0.558386 0.706861 0.916612 0.109379
H17   H     H_    0.925112 0.204212 0.953871 0.133924
H18   H     H_    0.048786 0.178979 0.040325 0.123493
H19   H     H_    0.448507 0.683651 0.961781 0.122000
H20   H     H_    0.549578 0.683715 0.036912 0.121547
H21   H     H_    0.653904 0.162022 0.571945 0.112839
H22   H     H_    0.343627 0.176197 0.426522 0.116635
H23   H     H_    0.153901 0.662007 0.571942 0.112829
H24   H     H_    0.691607 0.417370 0.533380 0.130663
H25   H     H_    0.843617 0.676238 0.426520 0.116678
H26   H     H_    0.718114 0.889339 0.460858 0.104218
H27   H     H_    0.282332 0.884271 0.534993 0.103638
H28   H     H_    0.218121 0.389325 0.460858 0.104248
H29   H     H_    0.782337 0.384273 0.534991 0.103649
H30   H     H_    0.717053 0.920706 0.581962 0.101459
H31   H     H_    0.286027 0.925396 0.413728 0.100966
H32   H     H_    0.217052 0.420704 0.581960 0.101502
H33   H     H_    0.786043 0.425419 0.413728 0.101046
H34   H     H_    0.856153 0.102953 0.417974 0.121234
H35   H     H_    0.804524 0.920721 0.579660 0.118286
H36   H     H_    0.144899 0.098796 0.582408 0.123133
H37   H     H_    0.356153 0.602949 0.417975 0.121159
H38   H     H_    0.644898 0.598786 0.582409 0.123130
H39   H     H_    0.804062 0.230763 0.427201 0.103101
H40   H     H_    0.197325 0.226452 0.574051 0.102302
H41   H     H_    0.304061 0.730758 0.427200 0.103040
H42   H     H_    0.697321 0.726446 0.574051 0.102244
H43   H     H_    0.844176 0.225845 0.547712 0.110434
H44   H     H_    0.155479 0.223657 0.454717 0.110020
H45   H     H_    0.344174 0.725845 0.547711 0.110416
H46   H     H_    0.198402 0.920084 0.415959 0.119763
H47   H     H_    0.655473 0.723648 0.454719 0.110020
H48   H     H_    0.874443 0.512919 0.410427 0.123757
H49   H     H_    0.957740 0.571813 0.414618 0.143505
H50   H     H_    0.925629 0.476694 0.342176 0.165870
H51   H     H_    0.131576 0.502674 0.607300 0.115371
H52   H     H_    0.050200 0.570250 0.591255 0.141423
H53   H     H_    0.072146 0.470348 0.664176 0.164791
H54   H     H_    0.374424 0.012877 0.410382 0.123753
H55   H     H_    0.457717 0.071807 0.414607 0.143515
H56   H     H_    0.425636 0.976668 0.342160 0.165621
H57   H     H_    0.304523 0.420719 0.579663 0.118321
H58   H     H_    0.631572 0.002680 0.607281 0.115322
H59   H     H_    0.550194 0.070256 0.591242 0.141397
H60   H     H_    0.572145 0.970360 0.664166 0.165050
H61   H     H_    0.698417 0.420079 0.415953 0.119803
H62   H     H_    0.047823 0.152626 0.442734 0.133850
H63   H     H_    0.953544 0.152542 0.556647 0.133605
H64   H     H_    0.547824 0.652627 0.442734 0.133862
H65   H     H_    0.358397 0.084003 0.541166 0.135395
H66   H     H_    0.453543 0.652541 0.556646 0.133579
H67   H     H_    0.962844 0.159671 0.432892 0.104948
H68   H     H_    0.038678 0.157547 0.566924 0.104432
H69   H     H_    0.462845 0.659663 0.432890 0.104889
H70   H     H_    0.538676 0.657551 0.566923 0.104450
H71   H     H_    0.615847 0.894881 0.457672 0.097479
H72   H     H_    0.386584 0.893857 0.544351 0.098186
H73   H     H_    0.115852 0.394884 0.457677 0.097469
H74   H     H_    0.886589 0.393855 0.544355 0.098224
H75   H     H_    0.599842 0.817842 0.572596 0.124459
H76   H     H_    0.142129 0.590089 0.454448 0.136902
H77   H     H_    0.402798 0.821210 0.428573 0.124246
H78   H     H_    0.099845 0.317837 0.572601 0.124447
H79   H     H_    0.902802 0.321225 0.428573 0.124285
H80   H     H_    0.950621 0.500369 0.535877 0.140513
H81   H     H_    0.052765 0.501368 0.469024 0.135379
H82   H     H_    0.450617 0.000369 0.535868 0.140490
H83   H     H_    0.552759 0.001369 0.469015 0.135393
H84   H     H_    0.818247 0.919061 0.059524 0.138499
H85   H     H_    0.182206 0.922618 0.941763 0.138314
H86   H     H_    0.318092 0.422681 0.057503 0.137051
H87   H     H_    0.858396 0.584000 0.541157 0.135413
H88   H     H_    0.668432 0.437771 0.936826 0.138628
H89   H     H_    0.683455 0.221098 0.432521 0.106288
H90   H     H_    0.319837 0.214715 0.569781 0.109749
H91   H     H_    0.183459 0.721097 0.432522 0.106243
H92   H     H_    0.819841 0.714710 0.569786 0.109710
H93   H     H_    0.857052 0.055292 0.068066 0.116588
H94   H     H_    0.142344 0.057465 0.926944 0.117627
H95   H     H_    0.358063 0.557103 0.073101 0.116898
H96   H     H_    0.640367 0.583189 0.926655 0.114719
H97   H     H_    0.867169 0.044938 0.950647 0.133306
H98   H     H_    0.865966 0.073922 0.537320 0.127044
H99   H     H_    0.131833 0.071889 0.044213 0.133269
H100  H     H_    0.368634 0.571198 0.955606 0.132405
H101  H     H_    0.629408 0.575303 0.046390 0.134149
H102  H     H_    0.808285 0.930093 0.939652 0.118221
H103  H     H_    0.178765 0.944161 0.059411 0.117417
H104  H     H_    0.321072 0.444322 0.939782 0.117805
H105  H     H_    0.676164 0.447160 0.054351 0.116074
H106  H     H_    0.663204 0.947286 0.044276 0.108206
H107  H     H_    0.336483 0.947007 0.950993 0.110537
H108  H     H_    0.163246 0.446554 0.047240 0.109826
H109  H     H_    0.134326 0.070037 0.462587 0.127710
H110  H     H_    0.800243 0.421890 0.955000 0.108849
H111  H     H_    0.691323 0.956295 0.921880 0.100976
H112  H     H_    0.296215 0.940339 0.072092 0.108785
H113  H     H_    0.203530 0.441219 0.926188 0.109233
H114  H     H_    0.792906 0.440247 0.077400 0.106325
H115  H     H_    0.709895 0.248079 0.083315 0.113781
H116  H     H_    0.288851 0.250450 0.912304 0.110322
H117  H     H_    0.212575 0.750709 0.089589 0.110659
H118  H     H_    0.802648 0.738193 0.916647 0.115106
H119  H     H_    0.799381 0.232609 0.092464 0.103176
H120  H     H_    0.365965 0.573922 0.537321 0.127039
H121  H     H_    0.199162 0.236438 0.916339 0.106206
H122  H     H_    0.302290 0.735940 0.084530 0.108106
H123  H     H_    0.712077 0.750026 0.913716 0.104150
H124  H     H_    0.811245 0.249281 0.974073 0.109822
H125  H     H_    0.218353 0.292384 0.038664 0.107801
H126  H     H_    0.281559 0.793494 0.963226 0.107155
H127  H     H_    0.721210 0.792992 0.036664 0.108250
H128  H     H_    0.722583 0.278949 0.961705 0.125671
H129  H     H_    0.303001 0.249934 0.033582 0.118857
H130  H     H_    0.197351 0.750536 0.968426 0.117114
H131  H     H_    0.634325 0.570023 0.462586 0.127703
H132  H     H_    0.806400 0.746165 0.037226 0.119773
H133  H     H_    0.642811 0.097464 0.044139 0.119865
H134  H     H_    0.356121 0.095481 0.960406 0.118264
H135  H     H_    0.145096 0.596470 0.039182 0.118346
H136  H     H_    0.856704 0.544526 0.952431 0.127250
H137  H     H_    0.712815 0.250393 0.548224 0.131472
H138  H     H_    0.282083 0.250926 0.459992 0.128513
H139  H     H_    0.212809 0.750391 0.548226 0.131459
H140  H     H_    0.782064 0.750931 0.460010 0.128499
H141  H     H_    0.650676 0.097236 0.923605 0.116575
H142  H     H_    0.809073 0.919002 0.461960 0.133757
H143  H     H_    0.347460 0.069218 0.081122 0.110233
H144  H     H_    0.153966 0.571828 0.918376 0.109771
H145  H     H_    0.846521 0.566421 0.074815 0.110955
H146  H     H_    0.051623 0.531998 0.056280 0.135417
H147  H     H_    0.963746 0.541442 0.942670 0.133811
H148  H     H_    0.547984 0.031624 0.054716 0.134363
H149  H     H_    0.451790 0.032343 0.946199 0.133448
H150  H     H_    0.964345 0.524812 0.061339 0.114910
H151  H     H_    0.050642 0.515079 0.935108 0.113906
H152  H     H_    0.460925 0.023230 0.065610 0.114954
O1    O     O_R   0.957210 0.449410 0.665480 -0.537245
O2    O     O_R   0.167480 0.095300 0.164000 -0.533255
O3    O     O_R   0.332520 0.595300 0.836000 -0.533322
O4    O     O_R   0.667480 0.595300 0.164000 -0.533062
O5    O     O_R   0.946380 0.253940 0.826940 -0.513368
O6    O     O_R   0.053620 0.253940 0.173060 -0.512518
O7    O     O_R   0.446380 0.753940 0.826940 -0.513639
O8    O     O_R   0.553620 0.753940 0.173060 -0.512684
O9    O     O_3   0.834560 0.334570 0.748840 -0.275288
O10   O     O_3   0.165440 0.334570 0.251160 -0.277860
O11   O     O_3   0.334560 0.834570 0.748840 -0.277560
O12   O     O_R   0.042790 0.449410 0.334520 -0.533545
O13   O     O_3   0.665440 0.834570 0.251160 -0.278091
O14   O     O_R   0.820730 0.541240 0.668250 -0.515355
O15   O     O_R   0.179270 0.541240 0.331750 -0.515815
O16   O     O_R   0.320730 0.041240 0.668250 -0.515141
O17   O     O_R   0.679270 0.041240 0.331750 -0.515624
O18   O     O_R   0.714240 0.455060 0.663710 -0.533751
O19   O     O_R   0.285760 0.455060 0.336290 -0.533559
O20   O     O_R   0.214240 0.955060 0.663710 -0.533437
O21   O     O_R   0.785760 0.955060 0.336290 -0.533357
O22   O     O_R   0.736780 0.204870 0.675910 -0.516127
O23   O     O_R   0.457210 0.949410 0.665480 -0.536992
O24   O     O_R   0.263220 0.204870 0.324090 -0.515113
O25   O     O_R   0.236780 0.704870 0.675910 -0.515985
O26   O     O_R   0.763220 0.704870 0.324090 -0.514882
O27   O     O_R   0.833070 0.087590 0.673490 -0.529080
O28   O     O_R   0.166930 0.087590 0.326510 -0.530551
O29   O     O_R   0.333070 0.587590 0.673490 -0.528926
O30   O     O_R   0.666930 0.587590 0.326510 -0.530376
O31   O     O_R   0.946890 0.246800 0.676300 -0.516741
O32   O     O_R   0.053110 0.246800 0.323700 -0.516615
O33   O     O_R   0.446890 0.746800 0.676300 -0.516397
O34   O     O_R   0.542790 0.949410 0.334520 -0.533706
O35   O     O_R   0.553110 0.746800 0.323700 -0.516866
O36   O     O_R   0.956650 0.457120 0.827980 -0.533848
O37   O     O_R   0.043350 0.457120 0.172020 -0.533784
O38   O     O_R   0.456650 0.957120 0.827980 -0.534027
O39   O     O_R   0.543350 0.957120 0.172020 -0.533774
O40   O     O_R   0.820220 0.548390 0.818890 -0.509685
O41   O     O_R   0.179780 0.548390 0.181110 -0.510405
O42   O     O_R   0.320220 0.048390 0.818890 -0.509547
O43   O     O_R   0.679780 0.048390 0.181110 -0.510544
O44   O     O_R   0.713680 0.462770 0.826210 -0.533591
O45   O     O_R   0.736260 0.212010 0.826560 -0.510595
O46   O     O_R   0.286320 0.462770 0.173790 -0.533590
O47   O     O_R   0.213680 0.962770 0.826210 -0.533526
O48   O     O_R   0.786320 0.962770 0.173790 -0.534227
O49   O     O_R   0.263740 0.212010 0.173440 -0.510711
O50   O     O_R   0.236260 0.712010 0.826560 -0.510917
O51   O     O_R   0.763740 0.712010 0.173440 -0.511134
O52   O     O_R   0.832520 0.095300 0.836000 -0.533443

loop_
_geom_bond_atom_site_label_1
_geom_bond_atom_site_label_2
_ccdc_geom_bond_type
C105  C110  S    
C53   H78   S    
C87   C91   S    
C107  C112  S    
C74   C83   S    
Cr2   O28   S    
C90   C95   S    
C4    C87   S    
C45   H64   S    
C47   H81   S    
C41   H120  S    
C10   O38   A    
C26   H49   S    
C8    O5    A    
C116  O33   A    
Cr12  O31   S    
C113  O1    A    
C14   H65   S    
C28   H56   S    
C36   H32   S    
C62   H85   S    
C89   C94   S    
Cr9   O19   S    
C122  O40   A    
C40   H44   S    
C5    C88   S    
C123  O46   A    
C78   C96   S    
C2    C22   S    
C88   C97   S    
C97   H125  S    
C47   C53   S    
C23   H13   S    
C99   H127  S    
C63   C85   S    
C17   C30   S    
C63   H86   S    
C19   C32   S    
C109  C118  S    
C51   H82   S    
C81   H40   S    
Cr8   O45   S    
C59   O21   A    
C28   C54   S    
C29   C55   S    
C52   H79   S    
C72   H100  S    
Cr1   O40   S    
C15   H91   S    
C43   C44   S    
C20   H140  S    
Cr7   O43   S    
C7    O4    A    
C44   C57   S    
C16   C20   S    
C106  H17   S    
C77   H136  S    
C27   H51   S    
C20   C33   S    
C97   H129  S    
C3    C83   S    
C105  C118  S    
C107  C120  S    
C75   C93   S    
C38   H33   S    
Cr3   O7    S    
Cr4   O8    S    
C16   H92   S    
C46   C60   S    
C79   C97   S    
C110  H14   S    
C17   H137  S    
C27   C53   S    
C33   C38   S    
C108  C111  S    
C68   O30   A    
C19   H23   S    
Cr4   O13   S    
C108  H19   S    
C85   C123  S    
C103  H38   S    
Cr7   O34   S    
C2    C14   S    
C93   H143  S    
Cr11  O21   S    
C94   H144  S    
C71   C88   S    
C74   H106  S    
C23   C36   S    
C2    C81   S    
C18   C31   S    
C76   C85   S    
Cr1   O1    S    
C34   H35   S    
Cr2   O6    S    
C5    O49   A    
C79   H116  S    
C42   C103  S    
C40   H109  S    
C33   C42   S    
C32   C36   S    
C73   C90   S    
C8    O36   A    
C79   C84   S    
C75   C84   S    
C76   H135  S    
C100  H150  S    
C50   H83   S    
C107  H4    S    
C49   C57   S    
C13   C23   S    
C102  H152  S    
C69   H97   S    
Cr10  O20   S    
C95   H145  S    
C49   H74   S    
Cr11  O51   S    
C64   C73   S    
C71   H99   S    
C17   H21   S    
Cr9   O24   S    
Cr10  O11   S    
C76   C94   S    
C4    O45   A    
C96   H128  S    
Cr2   O2    S    
C9    C118  S    
C109  H11   S    
C11   C120  S    
C95   H114  S    
C12   C114  S    
Cr12  O27   S    
C99   H132  S    
C30   C34   S    
C79   H121  S    
C122  O44   A    
C105  H6    S    
C66   O24   A    
C57   C113  S    
C117  O34   A    
C29   H59   S    
C7    C90   S    
C124  O42   A    
C58   C117  S    
C15   H76   S    
C6    O50   A    
C25   C38   S    
C98   H126  S    
C32   C67   S    
Cr4   O30   S    
C47   H73   S    
C37   O19   A    
C1    O14   A    
C60   C116  S    
C28   H55   S    
C90   C99   S    
C59   O17   A    
Cr12  O9    S    
C63   H95   S    
C23   H28   S    
C46   H70   S    
C62   C84   S    
C21   H26   S    
Cr1   O36   S    
Cr6   O16   S    
Cr7   O13   S    
Cr8   O18   S    
C110  C119  S    
Cr7   O39   S    
C65   O27   A    
C75   H134  S    
C66   O28   A    
Cr9   O49   S    
C89   C98   S    
C24   C103  S    
C112  C121  S    
Cr12  O52   S    
C26   H50   S    
C98   H130  S    
C100  C101  S    
C30   C39   S    
Cr3   O33   S    
C30   C65   S    
C92   H41   S    
Cr9   O10   S    
Cr3   O11   S    
C116  O23   A    
Cr4   O4    S    
C1    C24   S    
C44   H68   S    
C51   C60   S    
C42   H131  S    
C110  H10   S    
C33   C68   S    
C47   C56   S    
C18   H138  S    
C106  C109  S    
C67   O29   A    
C106  C119  S    
C31   C66   S    
C82   C99   S    
C108  C121  S    
C5    O2    A    
C106  H7    S    
C45   C46   S    
C15   C19   S    
C14   H90   S    
C115  O32   A    
C31   C40   S    
C64   H88   S    
C77   H110  S    
C91   H141  S    
Cr9   O46   S    
Cr6   O38   S    
C78   C83   S    
C12   C17   S    
C86   C122  S    
C61   H93   S    
C112  H16   S    
C69   H102  S    
C69   C87   S    
Cr7   O17   S    
C124  O47   A    
C55   C60   S    
C78   H115  S    
C41   H45   S    
C64   C86   S    
C108  H5    S    
C91   H111  S    
C45   C58   S    
C80   H117  S    
C101  H147  S    
C50   C58   S    
C102  H148  S    
C61   C83   S    
C64   H96   S    
C53   C57   S    
C21   C34   S    
C25   H29   S    
C82   C86   S    
C115  O12   A    
C71   H103  S    
C74   C91   S    
C80   C85   S    
C18   H22   S    
Cr1   O9    S    
C39   H43   S    
Cr6   O42   S    
C96   H124  S    
C49   C52   S    
C25   H24   S    
Cr10  O25   S    
C117  O35   A    
C13   C92   S    
C42   H47   S    
C31   C35   S    
C80   H122  S    
C78   H119  S    
C29   H60   S    
C102  C120  S    
C6    O3    A    
Cr5   O15   S    
C45   H69   S    
C80   C98   S    
C82   H123  S    
Cr5   O37   S    
C28   H54   S    
C39   H98   S    
C3    O43   A    
C22   H2    S    
C104  H3    S    
Cr6   O11   S    
C2    C48   S    
C103  H42   S    
C70   H34   S    
C21   H142  S    
Cr2   O32   S    
Cr3   O29   S    
C59   C114  S    
C56   C115  S    
C43   H62   S    
C27   H52   S    
Cr4   O35   S    
Cr12  O5    S    
C20   H25   S    
C46   H66   S    
C73   H105  S    
C63   C72   S    
C82   H118  S    
C16   H87   S    
Cr8   O22   S    
C34   H30   S    
C54   H77   S    
C37   O15   A    
C22   H27   S    
C14   C18   S    
C4    O52   A    
C61   H84   S    
C10   C121  S    
Cr5   O41   S    
C70   C114  S    
C35   H46   S    
C22   C35   S    
C49   H80   S    
C101  H151  S    
Cr10  O47   S    
C76   H108  S    
C65   O22   A    
C111  H9    S    
Cr8   O44   S    
C123  O41   A    
C29   H58   S    
Cr5   O10   S    
C81   H36   S    
C36   H57   S    
C19   H139  S    
C67   O25   A    
Cr11  O48   S    
C62   C71   S    
C35   H31   S    
C72   H104  S    
Cr10  O50   S    
C70   H39   S    
C13   C37   S    
C107  H20   S    
C104  H149  S    
C50   H71   S    
C105  H18   S    
C16   C24   S    
Cr11  O13   S    
C9    O6    A    
C74   H133  S    
Cr6   O23   S    
C11   O8    A    
Cr8   O9    S    
C101  C119  S    
C48   O20   A    
C24   C25   S    
C51   H72   S    
Cr3   O3    S    
C104  C121  S    
C62   H94   S    
C77   C95   S    
C111  C120  S    
C7    O51   A    
C73   H101  S    
C93   H112  S    
C26   C52   S    
Cr11  O26   S    
C32   C41   S    
C87   C96   S    
C38   H61   S    
C68   O26   A    
C102  C104  S    
Cr1   O14   S    
C9    O37   A    
C77   C86   S    
C13   C15   S    
C43   H67   S    
C11   O39   A    
C109  H12   S    
C94   H113  S    
C54   C58   S    
C61   C69   S    
C88   C93   S    
C40   C81   S    
C21   C114  S    
C48   O16   A    
C111  H15   S    
Cr2   O10   S    
C92   H37   S    
C84   C124  S    
C6    C89   S    
C1    O18   A    
Cr5   O12   S    
C50   C55   S    
C51   C54   S    
C112  H8    S    
C72   C89   S    
C12   H89   S    
C113  O31   A    
C3    O48   A    
C39   C70   S    
C75   H107  S    
C55   H75   S    
C43   C56   S    
C41   C92   S    
C100  C118  S    
C8    C119  S    
C44   H63   S    
C100  H146  S    
C12   H1    S    
C27   H53   S    
C52   C56   S    
C10   O7    A    
C26   H48   S    
