data_str_m3_o41_o41_f0_fof.sym.143
_audit_creation_date              2012-12-10T16:39:30-0500
_audit_creation_method            fapswitch 2.2
_symmetry_space_group_name_H-M    P1
_symmetry_Int_Tables_number       1
_space_group_crystal_system       triclinic
_cell_length_a                    16.856641
_cell_length_b                    16.808281
_cell_length_c                    16.620103
_cell_angle_alpha                 65.368804
_cell_angle_beta                  66.113752
_cell_angle_gamma                 66.726364
_cell_volume                      3765.94982295

loop_
_atom_site_label
_atom_site_type_symbol
_atom_type_description
_atom_site_fract_x
_atom_site_fract_y
_atom_site_fract_z
_atom_type_partial_charge
C1    C     C_R   0.316436 0.999113 0.430202 0.009530
C2    C     C_R   0.686284 0.995324 0.571324 -0.005089
C3    C     C_R   0.055965 0.424835 0.286705 0.007412
C4    C     C_R   0.079367 0.536516 0.667555 0.021294
C5    C     C_R   0.430782 0.307441 0.017089 0.012934
C6    C     C_R   0.538529 0.670826 0.067971 0.001902
C7    C     C_R   0.542168 0.056864 0.671038 0.034368
C8    C     C_R   0.460019 0.938641 0.329274 0.013886
C9    C     C_R   0.668479 0.537433 0.071243 0.017147
C10   C     C_R   0.317628 0.451595 0.978990 0.010409
C11   C     C_R   0.081177 0.670726 0.531369 0.010349
C12   C     C_R   0.045709 0.294088 0.426492 0.030244
C13   C     C_R   0.456754 0.986526 0.451324 -0.037179
C14   C     C_R   0.546630 0.007407 0.549538 -0.039455
C15   C     C_R   0.065221 0.431467 0.427314 -0.040506
C16   C     C_R   0.078003 0.528995 0.524021 -0.041490
C17   C     C_R   0.437010 0.442786 0.033733 -0.037040
C18   C     C_R   0.527320 0.530898 0.067352 -0.040138
C19   C     C_R   0.008010 0.161877 0.423855 0.940548
C20   C     C_R   0.043960 0.821011 0.559668 0.947749
C21   C     C_R   0.179457 0.437169 0.965512 0.891065
C22   C     C_R   0.821167 0.563461 0.033163 0.969060
C23   C     C_R   0.439874 0.957260 0.179787 0.922156
C24   C     C_R   0.560599 0.041740 0.820068 0.939195
C25   C     C_R   0.564506 0.821480 0.031508 0.956567
C26   C     C_R   0.432089 0.176952 0.977563 0.928172
C27   C     C_R   0.042523 0.560907 0.820365 0.933508
C28   C     C_R   0.010796 0.424473 0.158378 0.974233
C29   C     C_R   0.822886 0.022815 0.568976 0.995103
C30   C     C_R   0.177739 0.975562 0.431573 0.873785
C31   C     C_R   0.411230 0.973961 0.404208 0.065787
C32   C     C_R   0.591595 0.020409 0.596782 0.075458
C33   C     C_R   0.055737 0.383378 0.380079 0.071189
C34   C     C_R   0.080210 0.578694 0.574054 0.068959
C35   C     C_R   0.395497 0.400702 0.009303 0.062587
C36   C     C_R   0.577940 0.579337 0.069800 0.073708
C37   C     C_R   0.273080 0.968570 0.394506 -0.174708
C38   C     C_R   0.728510 0.027373 0.606950 -0.169523
C39   C     C_R   0.039740 0.377557 0.242650 -0.160163
C40   C     C_R   0.074446 0.589098 0.719081 -0.207260
C41   C     C_R   0.395310 0.270309 0.978862 -0.184861
C42   C     C_R   0.596714 0.724831 0.045415 -0.157922
C43   C     C_R   0.590171 0.064579 0.719531 -0.216339
C44   C     C_R   0.410907 0.932681 0.280426 -0.162911
C45   C     C_R   0.724432 0.595418 0.045988 -0.200216
C46   C     C_R   0.276164 0.406521 0.956422 -0.133607
C47   C     C_R   0.075049 0.721202 0.586514 -0.168500
C48   C     C_R   0.033834 0.247838 0.377729 -0.201814
C49   C     C_R   0.447254 0.085681 0.693622 -0.226349
C50   C     C_R   0.555229 0.909520 0.306510 -0.228742
C51   C     C_R   0.092534 0.707150 0.434517 -0.239618
C52   C     C_R   0.052789 0.253108 0.518284 -0.242122
C53   C     C_R   0.698953 0.440929 0.092364 -0.231592
C54   C     C_R   0.284040 0.545411 0.972926 -0.239155
C55   C     C_R   0.269283 0.049657 0.493831 -0.228761
C56   C     C_R   0.734231 0.943832 0.508082 -0.230766
C57   C     C_R   0.502015 0.256671 0.059794 -0.229823
C58   C     C_R   0.444057 0.706116 0.079411 -0.227092
C59   C     C_R   0.076266 0.510281 0.239636 -0.221715
C60   C     C_R   0.086298 0.442273 0.705645 -0.223904
C61   C     C_R   0.322934 0.928062 0.324226 0.116496
C62   C     C_R   0.677914 0.069224 0.676195 0.117071
C63   C     C_R   0.045789 0.285065 0.282832 0.112789
C64   C     C_R   0.087793 0.675565 0.673988 0.116681
C65   C     C_R   0.323603 0.323447 0.940917 0.103859
C66   C     C_R   0.689652 0.689362 0.018066 0.107154
C67   C     C_R   0.690270 0.932772 0.459108 0.112002
C68   C     C_R   0.313441 0.059336 0.543130 0.109359
C69   C     C_R   0.076060 0.395692 0.659746 0.113295
C70   C     C_R   0.083110 0.558863 0.286819 0.108211
C71   C     C_R   0.399273 0.664541 0.060512 0.115889
C72   C     C_R   0.549007 0.300019 0.074269 0.100421
C73   C     C_R   0.600720 0.916471 0.357190 0.111674
C74   C     C_R   0.402334 0.077095 0.643890 0.112199
C75   C     C_R   0.319460 0.584157 0.005953 0.109425
C76   C     C_R   0.647361 0.391931 0.092372 0.109580
C77   C     C_R   0.057270 0.301642 0.566141 0.113329
C78   C     C_R   0.091482 0.657637 0.384490 0.112063
C79   C     C_R   0.739142 0.890300 0.389522 -0.206292
C80   C     C_R   0.264406 0.098893 0.614485 -0.200428
C81   C     C_R   0.068779 0.306477 0.704791 -0.207062
C82   C     C_R   0.097017 0.645986 0.240770 -0.195175
C83   C     C_R   0.315294 0.711533 0.042992 -0.195949
C84   C     C_R   0.628653 0.251492 0.101191 -0.203497
C85   C     C_R   0.694875 0.883198 0.338299 -0.213999
C86   C     C_R   0.308159 0.107869 0.664604 -0.204073
C87   C     C_R   0.277548 0.673020 0.012017 -0.220885
C88   C     C_R   0.678381 0.297324 0.108284 -0.203954
C89   C     C_R   0.056662 0.260901 0.659189 -0.223858
C90   C     C_R   0.100754 0.695056 0.289178 -0.213873
C91   C     C_R   0.551214 0.956703 0.428784 0.025897
C92   C     C_R   0.452214 0.036987 0.572146 0.024495
C93   C     C_R   0.064096 0.391022 0.520611 0.033947
C94   C     C_R   0.081113 0.569166 0.430204 0.029717
C95   C     C_R   0.398800 0.534016 0.032077 0.032176
C96   C     C_R   0.564008 0.438849 0.073123 0.029259
C97   C     C_R   0.596095 0.966235 0.478675 0.028977
C98   C     C_R   0.407518 0.027116 0.522514 0.028300
C99   C     C_R   0.441517 0.576264 0.053868 0.027217
C100  C     C_R   0.516717 0.393765 0.060361 0.030694
C101  C     C_R   0.071956 0.438942 0.568253 0.027501
C102  C     C_R   0.075924 0.520017 0.381544 0.026585
O1    O     O_R   0.982940 0.138950 0.510160 -0.637229
O2    O     O_R   0.017060 0.861050 0.489840 -0.656472
O3    O     O_R   0.138950 0.510160 0.982940 -0.686855
O4    O     O_R   0.861050 0.489840 0.017060 -0.633120
O5    O     O_R   0.510160 0.982940 0.138950 -0.645039
O6    O     O_R   0.489840 0.017060 0.861050 -0.624109
O7    O     O_R   0.489840 0.861050 0.017060 -0.645371
O8    O     O_R   0.510160 0.138950 0.982940 -0.650250
O9    O     O_R   0.017060 0.489840 0.861050 -0.634832
O10   O     O_R   0.982940 0.510160 0.138950 -0.640141
O11   O     O_R   0.861050 0.017060 0.489840 -0.636188
O12   O     O_R   0.138950 0.982940 0.510160 -0.660789
O13   O     O_R   0.867700 0.025880 0.612340 -0.605362
O14   O     O_R   0.132300 0.974120 0.387660 -0.647607
O15   O     O_R   0.025880 0.612340 0.867700 -0.625328
O16   O     O_R   0.974120 0.387660 0.132300 -0.617284
O17   O     O_R   0.612340 0.867700 0.025880 -0.621193
O18   O     O_R   0.387660 0.132300 0.974120 -0.623425
O19   O     O_R   0.387660 0.974120 0.132300 -0.619835
O20   O     O_R   0.612340 0.025880 0.867700 -0.617031
O21   O     O_R   0.132300 0.387660 0.974120 -0.635591
O22   O     O_R   0.867700 0.612340 0.025880 -0.607734
O23   O     O_R   0.974120 0.132300 0.387660 -0.602120
O24   O     O_R   0.025880 0.867700 0.612340 -0.615150
Zn1   Zn    Zn3+2 0.004880 0.004880 0.583590 0.887055
Zn2   Zn    Zn3+2 0.995120 0.995120 0.416410 0.886954
Zn3   Zn    Zn3+2 0.004880 0.583590 0.004880 0.874825
Zn4   Zn    Zn3+2 0.995120 0.416410 0.995120 0.894011
Zn5   Zn    Zn3+2 0.583590 0.004880 0.004880 0.889859
Zn6   Zn    Zn3+2 0.416410 0.995120 0.995120 0.899660
N1    N     N_2   0.292843 0.867548 0.309794 -0.295001
H1    H     H_    0.267308 0.820716 0.369787 0.218887
C103  C     C_3   0.242771 0.903903 0.242806 -0.660289
H2    H     H_    0.178268 0.884855 0.275064 0.199791
H3    H     H_    0.282497 0.874020 0.185300 0.218588
H4    H     H_    0.226630 0.979364 0.215112 0.247468
N2    N     N_2   0.707635 0.130835 0.689429 -0.287374
H5    H     H_    0.659832 0.191930 0.692901 0.213546
C104  C     C_3   0.758827 0.095826 0.755143 -0.639743
H6    H     H_    0.779542 0.020204 0.779803 0.236248
H7    H     H_    0.820133 0.120580 0.721731 0.232780
H8    H     H_    0.718372 0.121662 0.815499 0.214020
N3    N     N_2   0.088620 0.226853 0.225177 -0.308608
H9    H     H_    0.142640 0.174030 0.242999 0.206773
C105  C     C_3   0.034007 0.201004 0.196520 -0.650086
H10   H     H_    0.052531 0.223690 0.119902 0.217587
H11   H     H_    0.047672 0.125754 0.220422 0.202728
H12   H     H_    0.960724 0.231024 0.224643 0.259903
N4    N     N_2   0.136581 0.705376 0.704520 -0.293863
H13   H     H_    0.191134 0.655291 0.724331 0.214017
C106  C     C_3   0.087897 0.764024 0.763197 -0.646455
H14   H     H_    0.104521 0.730462 0.830044 0.201264
H15   H     H_    0.013676 0.780952 0.777700 0.244235
H16   H     H_    0.109366 0.827690 0.729079 0.229825
N5    N     N_2   0.310776 0.303339 0.871811 -0.301765
H17   H     H_    0.369363 0.286288 0.821446 0.208448
C107  C     C_3   0.248936 0.249849 0.899727 -0.660122
H18   H     H_    0.284088 0.189082 0.875147 0.205506
H19   H     H_    0.193705 0.290939 0.867063 0.217745
H20   H     H_    0.220103 0.226644 0.976095 0.252779
N6    N     N_2   0.743256 0.744639 0.939628 -0.289465
H21   H     H_    0.780026 0.717913 0.885332 0.217009
C108  C     C_3   0.789573 0.792643 0.953567 -0.637546
H22   H     H_    0.863523 0.769622 0.922514 0.214244
H23   H     H_    0.775572 0.781951 0.028182 0.239225
H24   H     H_    0.767974 0.866407 0.917318 0.229276
H25   H     H_    0.268339 0.138319 0.719782 0.136628
H26   H     H_    0.734291 0.851379 0.284137 0.140311
H27   H     H_    0.110077 0.762651 0.252155 0.128122
H28   H     H_    0.047550 0.193277 0.696652 0.124241
H29   H     H_    0.741541 0.258979 0.124966 0.137402
H30   H     H_    0.215159 0.712201 0.993907 0.124446
H31   H     H_    0.192011 0.119995 0.633143 0.137663
H32   H     H_    0.811864 0.864091 0.373477 0.144039
H33   H     H_    0.654472 0.178668 0.113036 0.139479
H34   H     H_    0.281699 0.779979 0.047662 0.127226
H35   H     H_    0.103319 0.676943 0.167579 0.134134
H36   H     H_    0.070274 0.272752 0.775954 0.127227
H37   H     H_    0.408236 0.118585 0.746974 0.149271
H38   H     H_    0.593920 0.877492 0.252434 0.156396
H39   H     H_    0.106167 0.772435 0.395734 0.165472
H40   H     H_    0.060424 0.181842 0.554128 0.162581
H41   H     H_    0.762479 0.402684 0.107589 0.175742
H42   H     H_    0.233155 0.591689 0.938723 0.173960
H43   H     H_    0.198289 0.082983 0.505755 0.158016
H44   H     H_    0.805714 0.911347 0.495925 0.175546
H45   H     H_    0.523182 0.183509 0.082908 0.188911
H46   H     H_    0.404386 0.767703 0.097436 0.170722
H47   H     H_    0.090008 0.539103 0.165459 0.174068
H48   H     H_    0.102043 0.402475 0.770162 0.165345

loop_
_geom_bond_atom_site_label_1
_geom_bond_atom_site_label_2
_ccdc_geom_bond_type
C68   C80   A    
C103  H4    S    
C83   C87   A    
C9    C45   A    
C108  H22   S    
C86   H25   S    
C18   C96   A    
C6    C58   A    
C11   C47   A    
C105  H10   S    
C12   C48   A    
C55   C68   A    
C75   C95   A    
C103  H2    S    
C23   O19   A    
O11   Zn2   S    
C30   O14   A    
C78   C90   A    
C20   O24   A    
C77   C89   A    
O24   Zn1   S    
O22   Zn3   S    
N6    C108  S    
C26   O18   A    
C28   O10   A    
C51   H39   S    
C104  H7    S    
C72   C100  A    
C95   C99   A    
C58   C71   A    
C3    C33   A    
C96   C100  A    
C1    C31   A    
O13   Zn1   S    
C2    C32   A    
C74   C92   A    
C13   C98   A    
C53   H41   S    
C80   C86   A    
N3    C105  S    
C19   O1    A    
N5    H17   S    
C106  H14   S    
C4    C40   A    
C29   C38   S    
C10   C46   A    
C9    C36   A    
O17   Zn5   S    
N4    H13   S    
C107  H19   S    
C10   C35   A    
C24   O6    A    
C7    C43   A    
O10   Zn3   S    
C106  H15   S    
O1    Zn1   S    
C76   C88   A    
C54   H42   S    
C1    C37   A    
C81   C89   A    
C17   C100  A    
C29   O13   A    
C27   O9    A    
N5    C107  S    
C13   C91   A    
C50   H38   S    
C81   H36   S    
C10   C54   A    
C23   O5    A    
C25   O17   A    
C12   C52   A    
C59   H47   S    
N3    H9    S    
C71   C83   A    
C27   O15   A    
C4    C34   A    
C64   N4    S    
C61   N1    S    
N2    C104  S    
C20   C47   S    
C56   H44   S    
C105  H12   S    
C67   C79   A    
C73   C91   A    
C46   C65   A    
C65   N5    S    
C104  H8    S    
C93   C101  A    
C47   C64   A    
O4    Zn4   S    
C19   C48   S    
C48   C63   A    
O3    Zn3   S    
C28   C39   S    
C22   O4    A    
C71   C99   A    
C19   O23   A    
C91   C97   A    
C88   H29   S    
C54   C75   A    
C30   C37   S    
C84   C88   A    
C21   O21   A    
C92   C98   A    
C57   H45   S    
O16   Zn4   S    
C25   O7    A    
O23   Zn2   S    
C2    C38   A    
O9    Zn4   S    
C107  H18   S    
O2    Zn2   S    
C27   C40   S    
C60   H48   S    
C90   H27   S    
C16   C34   A    
C4    C60   A    
O7    Zn6   S    
C24   O20   A    
C107  H20   S    
O8    Zn5   S    
C26   C41   S    
C74   C86   A    
C106  H16   S    
C7    C49   A    
C72   C84   A    
C69   C81   A    
C49   H37   S    
C26   O8    A    
O5    Zn5   S    
C14   C92   A    
C108  H24   S    
C55   H43   S    
O21   Zn4   S    
O14   Zn2   S    
N1    H1    S    
C62   N2    S    
C50   C73   A    
C53   C76   A    
C9    C53   A    
C18   C99   A    
O19   Zn6   S    
C52   C77   A    
C8    C50   A    
O20   Zn5   S    
C79   C85   A    
O15   Zn3   S    
C14   C97   A    
N1    C103  S    
C21   C46   S    
C30   O12   A    
C75   C87   A    
C103  H3    S    
C87   H30   S    
C5    C41   A    
C82   H35   S    
C7    C32   A    
C83   H34   S    
C105  H11   S    
O18   Zn6   S    
C8    C31   A    
C79   H32   S    
C13   C31   A    
C11   C34   A    
C17   C95   A    
C52   H40   S    
C89   H28   S    
C14   C32   A    
C15   C33   A    
C40   C64   A    
C25   C42   S    
C15   C93   A    
C37   C61   A    
N2    H5    S    
C70   C102  A    
C22   O22   A    
C20   O2    A    
C69   C101  A    
C44   C61   A    
C56   C67   A    
C39   C63   A    
C16   C94   A    
C85   H26   S    
C82   C90   A    
C5    C57   A    
C1    C55   A    
C51   C78   A    
C73   C85   A    
C2    C56   A    
C104  H6    S    
C76   C96   A    
O12   Zn1   S    
C80   H31   S    
C60   C69   A    
C78   C94   A    
C5    C35   A    
C77   C93   A    
C6    C36   A    
C66   N6    S    
N4    C106  S    
C57   C72   A    
C41   C65   A    
C8    C44   A    
C70   C82   A    
C15   C102  A    
C68   C98   A    
O6    Zn6   S    
N6    H21   S    
C11   C51   A    
C67   C97   A    
C59   C70   A    
C3    C39   A    
C84   H33   S    
C16   C101  A    
C22   C45   S    
C58   H46   S    
C94   C102  A    
C108  H23   S    
C6    C42   A    
C29   O11   A    
C45   C66   A    
C42   C66   A    
C24   C43   S    
C49   C74   A    
C28   O16   A    
C17   C35   A    
C38   C62   A    
C12   C33   A    
C18   C36   A    
C63   N3    S    
C21   O3    A    
C43   C62   A    
C23   C44   S    
C3    C59   A    
