data_str_m2_o10_o14_f0_pcu.sym.169
_audit_creation_date              2012-12-10T16:43:25-0500
_audit_creation_method            fapswitch 2.2
_symmetry_space_group_name_H-M    P1
_symmetry_Int_Tables_number       1
_space_group_crystal_system       triclinic
_cell_length_a                    10.737209
_cell_length_b                    8.681316
_cell_length_c                    7.459003
_cell_angle_alpha                 102.926091
_cell_angle_beta                  94.313962
_cell_angle_gamma                 92.473252
_cell_volume                      674.450157189

loop_
_atom_site_label
_atom_site_type_symbol
_atom_type_description
_atom_site_fract_x
_atom_site_fract_y
_atom_site_fract_z
_atom_type_partial_charge
C1    C     C_R   0.496019 0.199760 0.453300 0.885951
C2    C     C_R   0.076557 0.646286 0.612249 0.044352
C3    C     C_R   0.129620 0.512939 0.506895 -0.073468
C4    C     C_R   0.054594 0.388188 0.393783 -0.191814
C5    C     C_R   0.926168 0.390281 0.388703 -0.199485
C6    C     C_R   0.871362 0.517035 0.497118 -0.077902
C7    C     C_2   0.493913 0.031809 0.427083 -0.372209
C8    C     C_2   0.505191 0.968124 0.572987 -0.360580
C9    C     C_R   0.262881 0.503553 0.502597 0.783710
C10   C     C_R   0.503684 0.800225 0.546714 0.854320
C11   C     C_R   0.737379 0.505764 0.498756 0.780464
C12   C     C_R   0.150871 0.779316 0.716588 -0.178351
C13   C     C_R   0.096099 0.911291 0.816482 0.217642
C14   C     C_R   0.965556 0.912341 0.811295 -0.168481
C15   C     C_R   0.890776 0.782996 0.707493 -0.216033
C16   C     C_R   0.944981 0.648274 0.607319 0.093908
Cu1   Cu    Cu3+1 0.513920 0.517380 0.684380 0.950114
Cu2   Cu    Cu3+1 0.486080 0.482620 0.315620 0.953966
H1    H     H_    0.597784 0.622286 0.051321 0.226738
H2    H     H_    0.251771 0.783969 0.719537 0.157235
H3    H     H_    0.402195 0.377724 0.948686 0.236257
N1    N     N_2   0.465100 0.456430 0.038520 -0.213968
N2    N     N_2   0.534900 0.543570 0.961480 -0.217369
O1    O     O_R   0.509050 0.286130 0.619770 -0.577056
O2    O     O_R   0.485540 0.256780 0.308360 -0.587099
O3    O     O_R   0.331410 0.514680 0.655740 -0.589542
O4    O     O_R   0.307900 0.485330 0.344330 -0.574375
O5    O     O_R   0.514460 0.743220 0.691640 -0.599124
O6    O     O_R   0.490950 0.713870 0.380230 -0.580848
O7    O     O_R   0.692100 0.514670 0.655670 -0.578628
O8    O     O_R   0.668590 0.485320 0.344260 -0.585279
H4    H     H_    0.095959 0.287471 0.311162 0.138214
N3    N     N_3   0.174716 0.044691 0.918917 -0.598040
H5    H     H_    0.224544 0.008717 0.026800 0.216704
H6    H     H_    0.120221 0.135797 0.979790 0.210828
H7    H     H_    0.921340 0.014125 0.886105 0.134185
H8    H     H_    0.790455 0.791301 0.703810 0.149912
H9    H     H_    0.869216 0.290548 0.303732 0.145418
H10   H     H_    0.483245 0.960239 0.286478 0.177281
H11   H     H_    0.515719 0.039668 0.713598 0.182455

loop_
_geom_bond_atom_site_label_1
_geom_bond_atom_site_label_2
_ccdc_geom_bond_type
H1    N2    S    
C13   N3    S    
C3    C9    S    
C2    C16   A    
C2    C12   A    
C12   H2    S    
Cu2   N1    S    
Cu1   Cu2   S    
C11   O8    A    
C7    C8    D    
Cu2   O6    S    
Cu1   N2    S    
C13   C14   A    
C1    O2    A    
Cu1   O7    S    
C10   O6    A    
C4    H4    S    
Cu2   O2    S    
Cu1   O3    S    
H3    N1    S    
N3    H6    S    
C9    O3    A    
N3    H5    S    
C2    C3    A    
N1    N2    D    
C14   H7    S    
C5    C6    A    
Cu1   O1    S    
C6    C16   A    
C3    C4    A    
C5    H9    S    
C12   C13   A    
C9    O4    A    
C1    O1    A    
C8    C10   S    
C10   O5    A    
C6    C11   S    
C7    H10   S    
C14   C15   A    
C15   H8    S    
Cu2   O8    S    
C8    H11   S    
C1    C7    S    
Cu1   O5    S    
Cu2   O4    S    
C15   C16   A    
C11   O7    A    
C4    C5    A    
