data_str_m4_o14_o24_f0_acs.sym.42
_audit_creation_date              2013-03-05T15:42:41-0500
_audit_creation_method            fapswitch 2.2
_symmetry_space_group_name_H-M    P1
_symmetry_Int_Tables_number       1
_space_group_crystal_system       triclinic
_cell_length_a                    19.138194
_cell_length_b                    11.100686
_cell_length_c                    18.674469
_cell_angle_alpha                 89.929186
_cell_angle_beta                  90.873386
_cell_angle_gamma                 89.979194
_cell_volume                      3966.87220906

loop_
_atom_site_label
_atom_site_type_symbol
_atom_site_description
_atom_site_fract_x
_atom_site_fract_y
_atom_site_fract_z
_atom_type_partial_charge
O1    O     O_R   0.788190 0.043000 0.172520 -0.525257
O2    O     O_R   0.211810 0.043000 0.827480 -0.522454
O3    O     O_R   0.288190 0.543000 0.172520 -0.525233
O4    O     O_R   0.711810 0.543000 0.827480 -0.522428
O5    O     O_R   0.766240 0.292300 0.176860 -0.497679
O6    O     O_R   0.233760 0.292300 0.823140 -0.499498
O7    O     O_R   0.266240 0.792300 0.176860 -0.497672
O8    O     O_R   0.733760 0.792300 0.823140 -0.499536
C1    C     C_R   0.729360 0.373849 0.145226 0.543216
C2    C     C_R   0.269676 0.375310 0.853876 0.547265
C3    C     C_R   0.229408 0.873937 0.145268 0.543232
C4    C     C_R   0.769672 0.875286 0.853880 0.547394
O9    O     O_R   0.670310 0.409160 0.168720 -0.531513
O10   O     O_R   0.329690 0.409160 0.831280 -0.529586
O11   O     O_R   0.170310 0.909160 0.168720 -0.531589
O12   O     O_R   0.829690 0.909160 0.831280 -0.529606
O13   O     O_R   0.556160 0.251900 0.173380 -0.509234
O14   O     O_R   0.443840 0.251900 0.826620 -0.508672
O15   O     O_R   0.056160 0.751900 0.173380 -0.509153
O16   O     O_R   0.943840 0.751900 0.826620 -0.508739
C5    C     C_R   0.533464 0.155216 0.143996 0.558075
C6    C     C_R   0.467498 0.155500 0.855348 0.557259
C7    C     C_R   0.033487 0.655194 0.143987 0.558202
C8    C     C_R   0.967418 0.655488 0.855388 0.557406
O17   O     O_R   0.545410 0.050140 0.168240 -0.505212
O18   O     O_R   0.454590 0.050140 0.831760 -0.500050
O19   O     O_R   0.045410 0.550140 0.168240 -0.505388
O20   O     O_R   0.954590 0.550140 0.831760 -0.500057
O21   O     O_R   0.681530 0.958350 0.176970 -0.513459
O22   O     O_R   0.318470 0.958350 0.823030 -0.515985
O23   O     O_R   0.181530 0.458350 0.176970 -0.513513
O24   O     O_R   0.818470 0.458350 0.823030 -0.516075
C9    C     C_R   0.742510 0.968057 0.149574 0.530779
C10   C     C_R   0.257301 0.966317 0.849759 0.532102
C11   C     C_R   0.242509 0.468052 0.149574 0.530906
C12   C     C_R   0.757286 0.466272 0.849736 0.532098
O25   O     O_R   0.788610 0.044480 0.334450 -0.515186
O26   O     O_R   0.211390 0.044480 0.665550 -0.515855
O27   O     O_R   0.288610 0.544480 0.334450 -0.515213
O28   O     O_R   0.711390 0.544480 0.665550 -0.515838
O29   O     O_R   0.766630 0.293670 0.326970 -0.460828
O30   O     O_R   0.233370 0.293670 0.673030 -0.461487
O31   O     O_R   0.266630 0.793670 0.326970 -0.460900
O32   O     O_R   0.733370 0.793670 0.673030 -0.461461
C13   C     C_R   0.731488 0.379909 0.354179 0.582349
C14   C     C_R   0.268480 0.380037 0.645891 0.581682
C15   C     C_R   0.231505 0.879951 0.354164 0.582252
C16   C     C_R   0.768485 0.880023 0.645883 0.581702
O33   O     O_R   0.670730 0.410640 0.330640 -0.533677
O34   O     O_R   0.329270 0.410640 0.669360 -0.534307
O35   O     O_R   0.170730 0.910640 0.330640 -0.533631
O36   O     O_R   0.829270 0.910640 0.669360 -0.534312
O37   O     O_R   0.556550 0.253260 0.323480 -0.515751
O38   O     O_R   0.443450 0.253260 0.676520 -0.516345
O39   O     O_R   0.056550 0.753260 0.323480 -0.515729
O40   O     O_R   0.943450 0.753260 0.676520 -0.516304
C17   C     C_R   0.531696 0.158307 0.352887 0.587352
C18   C     C_R   0.468307 0.158348 0.647106 0.586553
C19   C     C_R   0.031702 0.658306 0.352892 0.587347
C20   C     C_R   0.968313 0.658349 0.647110 0.586604
O41   O     O_R   0.545830 0.051610 0.330160 -0.470779
O42   O     O_R   0.454170 0.051610 0.669840 -0.471320
O43   O     O_R   0.045830 0.551610 0.330160 -0.470817
O44   O     O_R   0.954170 0.551610 0.669840 -0.471299
O45   O     O_R   0.681920 0.959720 0.327070 -0.512889
O46   O     O_R   0.318080 0.959720 0.672930 -0.513160
O47   O     O_R   0.181920 0.459720 0.327070 -0.512906
O48   O     O_R   0.818080 0.459720 0.672930 -0.513157
C21   C     C_R   0.743247 0.966586 0.354744 0.537613
C22   C     C_R   0.256767 0.966635 0.645268 0.537388
C23   C     C_R   0.243244 0.466603 0.354752 0.537616
C24   C     C_R   0.756760 0.466600 0.645286 0.537379
Cr1   Cr    Cr6+3 0.772820 0.169820 0.252640 1.065773
Cr2   Cr    Cr6+3 0.227180 0.169820 0.747360 1.064885
Cr3   Cr    Cr6+3 0.272820 0.669820 0.252640 1.065737
Cr4   Cr    Cr6+3 0.727180 0.669820 0.747360 1.064850
Cr5   Cr    Cr6+3 0.615040 0.323610 0.249150 1.015971
Cr6   Cr    Cr6+3 0.384960 0.323610 0.750850 1.016214
Cr7   Cr    Cr6+3 0.115040 0.823610 0.249150 1.016039
Cr8   Cr    Cr6+3 0.884960 0.823610 0.750850 1.016247
Cr9   Cr    Cr6+3 0.616720 0.011130 0.250660 1.049244
Cr10  Cr    Cr6+3 0.383280 0.011130 0.749340 1.049648
Cr11  Cr    Cr6+3 0.116720 0.511130 0.250660 1.049161
Cr12  Cr    Cr6+3 0.883280 0.511130 0.749340 1.049641
O49   O     O_3   0.668190 0.168190 0.250820 -0.269982
O50   O     O_3   0.331810 0.168190 0.749180 -0.268990
O51   O     O_3   0.168190 0.668190 0.250820 -0.269928
O52   O     O_3   0.831810 0.668190 0.749180 -0.269011
C25   C     C_3   0.509820 0.275275 0.974056 -0.120762
C26   C     C_3   0.456178 0.239303 0.031744 -0.131385
C27   C     C_3   0.008688 0.775547 0.974282 -0.120547
C28   C     C_3   0.955426 0.737788 0.031916 -0.131672
C29   C     C_3   0.566444 0.197796 0.012276 -0.120287
C30   C     C_3   0.434927 0.127722 0.986898 -0.104455
C31   C     C_3   0.066027 0.699459 0.012334 -0.120706
C32   C     C_3   0.935210 0.625905 0.986878 -0.104533
H1    H     H_    0.621167 0.224235 0.024655 0.128113
H2    H     H_    0.380479 0.098386 0.974961 0.129148
H3    H     H_    0.120484 0.727242 0.024775 0.128347
H4    H     H_    0.881054 0.595144 0.974902 0.129591
H5    H     H_    0.518038 0.366947 0.951857 0.107857
H6    H     H_    0.419759 0.300648 0.059590 0.119126
H7    H     H_    0.016042 0.867537 0.952248 0.108329
H8    H     H_    0.918440 0.797918 0.059871 0.119443
C33   C     C_3   0.512270 0.161952 0.068555 0.046575
C34   C     C_3   0.489145 0.163380 0.930478 0.054044
C35   C     C_3   0.012238 0.661852 0.068566 0.046606
C36   C     C_3   0.989047 0.663355 0.930508 0.054027
C37   C     C_3   0.491510 0.050659 0.024594 -0.098775
C38   C     C_3   0.545138 0.086432 0.967534 -0.116595
C39   C     C_3   0.992503 0.550239 0.024410 -0.098436
C40   C     C_3   0.045751 0.587796 0.967395 -0.117170
H9    H     H_    0.484633 0.959064 0.046909 0.147448
H10   H     H_    0.581717 0.025579 0.939647 0.129669
H11   H     H_    0.986461 0.458301 0.046488 0.147700
H12   H     H_    0.082890 0.528148 0.939400 0.129387
H13   H     H_    0.846235 0.029270 0.063157 0.155468
H14   H     H_    0.142718 0.989229 0.928779 0.143109
H15   H     H_    0.346401 0.528806 0.063250 0.155188
H16   H     H_    0.642453 0.488266 0.928555 0.142595
C41   C     C_R   0.752089 0.907846 0.927695 -0.005349
C42   C     C_R   0.243674 0.901491 0.069807 -0.003698
C43   C     C_R   0.252128 0.407920 0.927694 -0.005519
C44   C     C_R   0.743489 0.401171 0.069704 -0.003587
C45   C     C_R   0.698397 0.849143 0.966767 0.015641
C46   C     C_R   0.302324 0.854924 0.033085 0.017206
C47   C     C_R   0.198338 0.349456 0.966723 0.015558
C48   C     C_R   0.802244 0.354947 0.033024 0.016862
C49   C     C_R   0.703006 0.847204 0.042685 0.026520
C50   C     C_R   0.299662 0.849321 0.957204 0.022861
C51   C     C_R   0.202924 0.347401 0.042640 0.026661
C52   C     C_R   0.799614 0.349241 0.957150 0.022555
C53   C     C_R   0.805215 0.976415 0.037993 -0.157819
C54   C     C_R   0.187247 0.949712 0.956502 -0.153927
C55   C     C_R   0.305314 0.476168 0.038043 -0.157758
C56   C     C_R   0.687017 0.448970 0.956334 -0.153762
C57   C     C_R   0.803815 0.972189 0.964889 -0.152304
C58   C     C_R   0.186570 0.946156 0.029797 -0.157438
C59   C     C_R   0.303948 0.471977 0.964935 -0.152200
C60   C     C_R   0.686248 0.445258 0.029637 -0.156970
C61   C     C_R   0.640928 0.790765 0.933357 -0.087560
C62   C     C_R   0.362834 0.811425 0.068876 -0.097705
C63   C     C_R   0.140814 0.291360 0.933259 -0.087421
C64   C     C_R   0.862824 0.311837 0.068849 -0.097533
C65   C     C_R   0.095792 0.219810 0.972678 -0.133256
C66   C     C_R   0.913494 0.248273 0.031811 -0.148937
C67   C     C_R   0.595952 0.719212 0.972842 -0.133178
C68   C     C_R   0.413454 0.747823 0.031780 -0.149083
C69   C     C_R   0.604825 0.708484 0.046466 -0.133001
C70   C     C_R   0.406235 0.730381 0.958381 -0.133565
C71   C     C_R   0.104627 0.208939 0.046300 -0.133662
C72   C     C_R   0.906268 0.230570 0.958432 -0.133648
C73   C     C_R   0.657711 0.771830 0.081359 -0.076235
C74   C     C_R   0.350402 0.781522 0.921103 -0.078884
C75   C     C_R   0.157543 0.272108 0.081255 -0.076414
C76   C     C_R   0.850422 0.281542 0.921099 -0.079077
C77   C     C_R   0.753355 0.919979 0.077748 -0.005019
C78   C     C_R   0.245613 0.910421 0.919654 -0.004830
C79   C     C_R   0.253351 0.419945 0.077753 -0.004813
C80   C     C_R   0.745529 0.410137 0.919556 -0.004799
H17   H     H_    0.628548 0.801156 0.877155 0.157920
H18   H     H_    0.372558 0.826768 0.125206 0.160065
H19   H     H_    0.128483 0.301870 0.877053 0.157990
H20   H     H_    0.872513 0.327325 0.125171 0.160132
H21   H     H_    0.846305 0.015608 0.937573 0.150520
H22   H     H_    0.138714 0.974157 0.054743 0.149440
H23   H     H_    0.346534 0.515181 0.937660 0.150622
H24   H     H_    0.638292 0.472886 0.054543 0.149343
H25   H     H_    0.055523 0.169238 0.945403 0.098626
H26   H     H_    0.957525 0.210566 0.060686 0.111449
H27   H     H_    0.555647 0.668599 0.945633 0.098473
H28   H     H_    0.457481 0.709969 0.060607 0.111452
H29   H     H_    0.071098 0.149977 0.076515 0.099543
H30   H     H_    0.942870 0.175335 0.929976 0.100084
H31   H     H_    0.571308 0.649576 0.076737 0.099630
H32   H     H_    0.442854 0.675244 0.929870 0.100159
H33   H     H_    0.664348 0.757552 0.138354 0.132173
H34   H     H_    0.345631 0.762640 0.864427 0.131599
H35   H     H_    0.164162 0.257686 0.138239 0.132214
H36   H     H_    0.845672 0.262560 0.864431 0.131597
H37   H     H_    0.512449 0.363128 0.434724 0.145064
H38   H     H_    0.487444 0.363142 0.564964 0.145141
H39   H     H_    0.012498 0.863124 0.434738 0.145097
H40   H     H_    0.987505 0.863150 0.564979 0.145083
C81   C     C_R   0.499655 0.169766 0.575385 0.030821
C82   C     C_R   0.500351 0.169723 0.424592 0.030619
C83   C     C_R   0.999683 0.669767 0.575400 0.030847
C84   C     C_R   0.000378 0.669720 0.424607 0.030610
C85   C     C_R   0.510578 0.064120 0.536239 -0.009695
C86   C     C_R   0.489470 0.064117 0.463887 -0.010000
C87   C     C_R   0.010610 0.564120 0.536257 -0.009695
C88   C     C_R   0.989503 0.564114 0.463905 -0.010008
C89   C     C_R   0.503946 0.279125 0.462566 -0.151529
C90   C     C_R   0.496000 0.279143 0.537246 -0.151588
C91   C     C_R   0.003988 0.779123 0.462581 -0.151536
C92   C     C_R   0.996046 0.779146 0.537262 -0.151592
C93   C     C_R   0.534047 0.956018 0.567738 0.234356
C94   C     C_R   0.466006 0.956063 0.432539 0.234175
C95   C     C_R   0.034072 0.456016 0.567763 0.234342
C96   C     C_R   0.966030 0.456059 0.432564 0.234174
C97   C     C_R   0.018611 0.349204 0.532736 -0.193656
C98   C     C_R   0.981460 0.349244 0.467760 -0.193755
C99   C     C_R   0.518586 0.849210 0.532709 -0.193679
C100  C     C_R   0.481438 0.849247 0.467732 -0.193747
H41   H     H_    0.034652 0.267092 0.557595 0.140854
H42   H     H_    0.965374 0.267188 0.443028 0.140855
H43   H     H_    0.534637 0.767104 0.557563 0.140812
H44   H     H_    0.465364 0.767187 0.442991 0.140866
H45   H     H_    0.651795 0.827843 0.430602 0.140647
H46   H     H_    0.348321 0.828052 0.569535 0.140675
H47   H     H_    0.151779 0.327942 0.430623 0.140700
H48   H     H_    0.848308 0.327973 0.569566 0.140650
C101  C     C_R   0.749323 0.918622 0.573431 0.036148
C102  C     C_R   0.250635 0.918491 0.426580 0.035959
C103  C     C_R   0.249299 0.418693 0.573457 0.036175
C104  C     C_R   0.750568 0.418329 0.426640 0.035860
C105  C     C_R   0.799400 0.982923 0.535480 0.031458
C106  C     C_R   0.200535 0.982834 0.464447 0.031477
C107  C     C_R   0.299362 0.483044 0.535515 0.031458
C108  C     C_R   0.700428 0.482554 0.464530 0.031484
C109  C     C_R   0.811317 0.949247 0.464935 0.035553
C110  C     C_R   0.188684 0.949271 0.535077 0.035572
C111  C     C_R   0.311287 0.449386 0.464968 0.035560
C112  C     C_R   0.688606 0.448961 0.535160 0.035578
C113  C     C_R   0.697200 0.859370 0.460054 -0.158229
C114  C     C_R   0.302862 0.859475 0.540051 -0.158158
C115  C     C_R   0.197182 0.359465 0.460077 -0.158247
C116  C     C_R   0.802826 0.359326 0.540096 -0.158135
C117  C     C_R   0.698126 0.854187 0.534564 -0.118389
C118  C     C_R   0.301875 0.854110 0.465540 -0.118463
C119  C     C_R   0.198109 0.354258 0.534585 -0.118398
C120  C     C_R   0.801826 0.353968 0.465584 -0.118474
C121  C     C_R   0.842033 0.070911 0.567058 -0.077296
C122  C     C_R   0.157871 0.070880 0.432767 -0.077266
C123  C     C_R   0.342001 0.571006 0.567112 -0.077304
C124  C     C_R   0.657774 0.570656 0.432897 -0.077303
C125  C     C_R   0.902156 0.106116 0.533068 -0.155148
C126  C     C_R   0.097785 0.106239 0.466784 -0.155037
C127  C     C_R   0.402153 0.606157 0.533154 -0.155103
C128  C     C_R   0.597748 0.606121 0.466984 -0.155123
C129  C     C_R   0.920759 0.052443 0.468376 -0.139415
C130  C     C_R   0.079212 0.052526 0.531546 -0.139537
C131  C     C_R   0.420762 0.552485 0.468466 -0.139491
C132  C     C_R   0.579189 0.552399 0.531749 -0.139347
C133  C     C_R   0.876010 0.973155 0.434633 -0.067838
C134  C     C_R   0.124002 0.973211 0.565380 -0.067989
C135  C     C_R   0.375992 0.473277 0.434686 -0.067872
C136  C     C_R   0.623950 0.472938 0.565511 -0.067958
C137  C     C_R   0.754375 0.909275 0.424387 -0.002152
C138  C     C_R   0.245669 0.909381 0.575671 -0.002018
C139  C     C_R   0.254359 0.409367 0.424414 -0.002164
C140  C     C_R   0.745632 0.409198 0.575733 -0.002007
H49   H     H_    0.829724 0.110354 0.618405 0.135290
H50   H     H_    0.170153 0.110338 0.381363 0.135570
H51   H     H_    0.329689 0.610425 0.618465 0.135276
H52   H     H_    0.670046 0.610161 0.381504 0.135612
H53   H     H_    0.659842 0.799659 0.561397 0.178794
H54   H     H_    0.340174 0.799571 0.438778 0.178826
H55   H     H_    0.159837 0.299697 0.561411 0.178783
H56   H     H_    0.840148 0.299496 0.438808 0.178870
H57   H     H_    0.934026 0.172442 0.559079 0.106693
H58   H     H_    0.065901 0.172675 0.440741 0.107009
H59   H     H_    0.434040 0.672423 0.559192 0.106727
H60   H     H_    0.565903 0.672666 0.440993 0.106938
H61   H     H_    0.967870 0.073583 0.441419 0.111063
H62   H     H_    0.032096 0.073642 0.558491 0.110750
H63   H     H_    0.467892 0.573567 0.441539 0.111081
H64   H     H_    0.532116 0.573638 0.558757 0.110759
H65   H     H_    0.889837 0.936870 0.382863 0.134380
H66   H     H_    0.110207 0.936938 0.617214 0.134138
H67   H     H_    0.389831 0.436988 0.382922 0.134386
H68   H     H_    0.610191 0.436683 0.617361 0.134089
N1    N     N_R   0.574994 0.954313 0.633239 0.080939
O53   O     O_R   0.614007 0.045946 0.650881 -0.372233
O54   O     O_R   0.576006 0.859006 0.673931 -0.364737
N2    N     N_R   0.425056 0.954422 0.367042 0.080998
O55   O     O_R   0.385994 0.046065 0.349306 -0.371486
O56   O     O_R   0.424083 0.859156 0.326456 -0.364656
N3    N     N_R   0.075006 0.454313 0.633273 0.080933
O57   O     O_R   0.114008 0.545952 0.650927 -0.372233
O58   O     O_R   0.076006 0.359011 0.673969 -0.364721
N4    N     N_R   0.925060 0.454418 0.367080 0.081017
O59   O     O_R   0.885994 0.546065 0.349356 -0.371449
O60   O     O_R   0.924031 0.359111 0.326522 -0.364660

loop_
_geom_bond_atom_site_label_1
_geom_bond_atom_site_label_2
_geom_bond_distance
_ccdc_geom_bond_type
O4    C12   1.281874 A    
C53   C57   1.365908 A    
O25   C21   1.286378 A    
C82   C89   1.408261 A    
C56   C60   1.369774 A    
H13   C53   1.082191 S    
Cr7   O51   2.002455 S    
C55   C59   1.365972 A    
N4    O59   1.301757 A    
C129  C133  1.375004 A    
C131  H63   1.065318 S    
O39   C19   1.282863 A    
C31   H3    1.108292 S    
O21   C9    1.285891 A    
C128  C132  1.398577 A    
C69   C73   1.387454 A    
O44   Cr12  2.075299 S    
C3    O11   1.280281 A    
C72   C76   1.387231 A    
C25   C34   1.534513 S    
H38   C90   1.080669 S    
C71   C75   1.387404 A    
C21   C137  1.459771 S    
C29   C38   1.544383 S    
O2    C10   1.281885 A    
C32   C36   1.541051 S    
C64   H20   1.079226 S    
O17   Cr9   2.086363 S    
C23   C139  1.459706 S    
O31   Cr3   1.959726 S    
C55   C79   1.396490 A    
O16   Cr8   1.963045 S    
C87   C88   1.404316 A    
C105  C121  1.398137 A    
C119  H55   1.079368 S    
O13   C5    1.279134 A    
O28   Cr4   2.086322 S    
O12   Cr8   2.080367 S    
C82   C86   1.399583 A    
O15   C7    1.279260 A    
C62   H18   1.079212 S    
C107  C123  1.398154 A    
O46   Cr10  1.966481 S    
O14   Cr6   1.963045 S    
C7    C35   1.461787 S    
C47   C63   1.413845 A    
C59   H23   1.079822 S    
C48   C64   1.412769 A    
C94   C100  1.384561 A    
C129  H61   1.065401 S    
C101  C117  1.406610 A    
C115  C139  1.403408 A    
C85   C93   1.406268 A    
C16   C101  1.460148 S    
C25   H5    1.110506 S    
Cr12  O52   2.002166 S    
C26   C33   1.528932 S    
C27   H7    1.110263 S    
C134  H66   1.084299 S    
C17   O41   1.288658 A    
C30   C37   1.540973 S    
C19   O43   1.288654 A    
C20   O44   1.288357 A    
Cr8   O52   2.003158 S    
C76   H36   1.081739 S    
O46   C22   1.277115 A    
O19   Cr11  2.086363 S    
C88   C96   1.406132 A    
C47   C51   1.419233 A    
C61   C67   1.390651 A    
C91   C92   1.405177 A    
C45   C49   1.419267 A    
C16   O36   1.283025 A    
C96   C98   1.384574 A    
C14   C103  1.460109 S    
C46   C50   1.418622 A    
C127  C131  1.398525 A    
O31   C15   1.279939 A    
O32   C16   1.279515 A    
C115  C119  1.392366 A    
O47   Cr11  1.965196 S    
C39   C40   1.542152 S    
O5    C1    1.285354 A    
O24   C12   1.282741 A    
C68   C70   1.389330 A    
C122  C126  1.379338 A    
C15   C102  1.460253 S    
C43   C59   1.397690 A    
C28   C32   1.546805 S    
C41   C57   1.397616 A    
O32   Cr4   1.957378 S    
C26   H6    1.109721 S    
C1    O9    1.280047 A    
O11   Cr7   2.079023 S    
C4    C41   1.469455 S    
C45   C61   1.414036 A    
O27   Cr3   2.083654 S    
O3    Cr3   2.079743 S    
C122  H50   1.083743 S    
H14   C54   1.082789 S    
N3    O58   1.301799 A    
Cr5   O49   2.002455 S    
H46   C114  1.080006 S    
C127  H59   1.068689 S    
C128  H60   1.068852 S    
C118  H54   1.079413 S    
C32   C39   1.540615 S    
C73   H33   1.081459 S    
O22   C10   1.282677 A    
C125  H57   1.068741 S    
C4    O12   1.285910 A    
C102  C106  1.396780 A    
C27   C28   1.551058 S    
C28   H8    1.109459 S    
C111  C135  1.394557 A    
C114  C118  1.392647 A    
C24   C140  1.460194 S    
C41   C45   1.426579 A    
C43   C47   1.426313 A    
O3    C11   1.276752 A    
O8    C4    1.280728 A    
C50   C74   1.408760 A    
C51   C79   1.411532 A    
Cr1   O49   2.002290 S    
C110  C138  1.390605 A    
Cr3   O51   2.002290 S    
C54   C78   1.391142 A    
C89   C90   1.405174 A    
C120  H56   1.079419 S    
C3    C42   1.471277 S    
C29   H1    1.108794 S    
C40   H12   1.108497 S    
O26   Cr2   2.086322 S    
C5    O17   1.270088 A    
O27   C23   1.286333 A    
O28   C24   1.286394 A    
O14   C6    1.276238 A    
C35   C39   1.533313 S    
C8    O20   1.273072 A    
C81   C85   1.400017 A    
N4    O60   1.301877 A    
O40   Cr8   1.959352 S    
C125  C129  1.398561 A    
C84   C88   1.399604 A    
C123  H51   1.083750 S    
O41   Cr9   2.075882 S    
C49   C73   1.411108 A    
C32   H4    1.110961 S    
C52   C76   1.408623 A    
O33   Cr5   2.083277 S    
C53   C77   1.396588 A    
C130  H62   1.065468 S    
O5    Cr1   1.963859 S    
O35   Cr7   2.083277 S    
C112  C140  1.390542 A    
O29   Cr1   1.959726 S    
C56   C80   1.391165 A    
O40   C20   1.283397 A    
N2    O55   1.301745 A    
C97   H41   1.065365 S    
O38   Cr6   1.959352 S    
Cr9   O49   2.002795 S    
C2    O10   1.285736 A    
C18   O42   1.288351 A    
Cr11  O51   2.002795 S    
O26   C22   1.286335 A    
C83   C92   1.408054 A    
O20   Cr12  2.087360 S    
C81   C90   1.408054 A    
C57   H21   1.079853 S    
C61   H17   1.078456 S    
C130  C134  1.375042 A    
C67   C69   1.387738 A    
C31   C40   1.544127 S    
C34   C38   1.527126 S    
C30   H2    1.111279 S    
O30   C14   1.279522 A    
C63   H19   1.078482 S    
O25   Cr1   2.083654 S    
C112  C136  1.394555 A    
C95   N3    1.442717 S    
C84   C91   1.408275 A    
C9    C77   1.461925 S    
H39   C91   1.080685 S    
N3    O57   1.301744 A    
O6    Cr2   1.966341 S    
C8    C36   1.459302 S    
H37   C89   1.080677 S    
C22   C138  1.460113 S    
C44   C48   1.421561 A    
O42   Cr10  2.075299 S    
O18   Cr10  2.087360 S    
C18   C81   1.481199 S    
C105  C109  1.391981 A    
C135  H67   1.084243 S    
H45   C113  1.079901 S    
O34   Cr6   2.081173 S    
C75   H35   1.081467 S    
C26   C30   1.547102 S    
O24   Cr12  1.956021 S    
C65   H25   1.075909 S    
O30   Cr2   1.957378 S    
O1    C9    1.276702 A    
O48   Cr12  1.966481 S    
C104  C108  1.396860 A    
C96   N4    1.442714 S    
C42   C58   1.404372 A    
C64   C66   1.392054 A    
C2    C43   1.469481 S    
O37   C17   1.282859 A    
C15   O35   1.282838 A    
C121  H49   1.083750 S    
Cr10  O50   2.002166 S    
C46   C62   1.412861 A    
C113  C117  1.392403 A    
C36   C40   1.526699 S    
O43   Cr11  2.075882 S    
H16   C56   1.082811 S    
O37   Cr5   1.958309 S    
O21   Cr9   1.956767 S    
C103  C107  1.396508 A    
O39   Cr7   1.958309 S    
O45   Cr9   1.965196 S    
C136  H68   1.084307 S    
C13   O33   1.282749 A    
O13   Cr5   1.964795 S    
O29   C13   1.279889 A    
C124  H52   1.083738 S    
O15   Cr7   1.964795 S    
C17   C82   1.481162 S    
C31   C35   1.539116 S    
C109  C137  1.390635 A    
C20   C83   1.481200 S    
C131  C135  1.374996 A    
C74   H34   1.081707 S    
O23   C11   1.285863 A    
C126  H58   1.068866 S    
C102  C118  1.406481 A    
C116  C120  1.392659 A    
C86   C94   1.406131 A    
C111  C139  1.390658 A    
C114  C138  1.403614 A    
C14   O34   1.283009 A    
C123  C127  1.379000 A    
C27   C36   1.534288 S    
C44   C60   1.404689 A    
O6    C2    1.280925 A    
C58   H22   1.079626 S    
C50   C78   1.413463 A    
O1    Cr1   2.079743 S    
C51   C75   1.411034 A    
H40   C92   1.080669 S    
C37   C38   1.542440 S    
C110  C134  1.394537 A    
C33   C37   1.533299 S    
O45   C21   1.277537 A    
O47   C23   1.277556 A    
C85   C86   1.404313 A    
H15   C55   1.082163 S    
C107  C111  1.391978 A    
H48   C116  1.079988 S    
C132  C136  1.375143 A    
C6    O18   1.273233 A    
C95   C97   1.384750 A    
C69   H31   1.081237 S    
C25   C26   1.551416 S    
O36   Cr8   2.081173 S    
C5    C33   1.461912 S    
C116  C140  1.403632 A    
C117  H53   1.079377 S    
C60   H24   1.079763 S    
C70   H32   1.077560 S    
C99   C100  1.396978 A    
O22   Cr10  1.956021 S    
C71   H29   1.081197 S    
C97   C98   1.396971 A    
O8    Cr4   1.966341 S    
C1    C44   1.471318 S    
C49   C77   1.411564 A    
O23   Cr11  1.956767 S    
O7    C3    1.285185 A    
C52   C80   1.413289 A    
C103  C119  1.406589 A    
C87   C95   1.406288 A    
C94   N2    1.442717 S    
C13   C104  1.460399 S    
C93   N1    1.442711 S    
C29   C33   1.539566 S    
O16   C8    1.276121 A    
N1    O54   1.301797 A    
C7    O19   1.269849 A    
Cr4   O52   2.002276 S    
C83   C87   1.400011 A    
O2    Cr2   2.077382 S    
O48   C24   1.277085 A    
C72   H30   1.077434 S    
Cr6   O50   2.003158 S    
H47   C115  1.079889 S    
C25   C29   1.548452 S    
C48   C52   1.418535 A    
C67   H27   1.076072 S    
C106  C110  1.392085 A    
O9    Cr5   2.079023 S    
C62   C68   1.392152 A    
C106  C122  1.398288 A    
C101  C105  1.396502 A    
O7    Cr3   1.963859 S    
C6    C34   1.459556 S    
C99   H43   1.065316 S    
C124  C128  1.379315 A    
C132  H64   1.065619 S    
C42   C46   1.421730 A    
C133  H65   1.084257 S    
C28   C35   1.528517 S    
N1    O53   1.301751 A    
C19   C84   1.481169 S    
Cr2   O50   2.002276 S    
C65   C71   1.387746 A    
C66   C72   1.389390 A    
C10   C78   1.464833 S    
N2    O56   1.301803 A    
C66   H26   1.077684 S    
C70   C74   1.387300 A    
C108  C112  1.392074 A    
C100  H44   1.065255 S    
O38   C18   1.283394 A    
C63   C65   1.390514 A    
C38   H10   1.108698 S    
C30   C34   1.541439 S    
C113  C137  1.403432 A    
C108  C124  1.398246 A    
C54   C58   1.369528 A    
C37   H9    1.107034 S    
C126  C130  1.398556 A    
C121  C125  1.378987 A    
C109  C133  1.394554 A    
C68   H28   1.077818 S    
C93   C99   1.384728 A    
O10   Cr6   2.080367 S    
C11   C79   1.461953 S    
O4    Cr4   2.077382 S    
C12   C80   1.464932 S    
C27   C31   1.548107 S    
C98   H42   1.065222 S    
C104  C120  1.406474 A    
C39   H11   1.106998 S    
