data_str_m4_o4_o15_f0_acs.sym.131
_audit_creation_date              2012-12-11T15:44:49-0500
_audit_creation_method            fapswitch 2.2
_symmetry_space_group_name_H-M    P1
_symmetry_Int_Tables_number       1
_space_group_crystal_system       triclinic
_cell_length_a                    19.152705
_cell_length_b                    11.199032
_cell_length_c                    18.778323
_cell_angle_alpha                 90.538766
_cell_angle_beta                  90.464436
_cell_angle_gamma                 90.231809
_cell_volume                      4027.45086863

loop_
_atom_site_label
_atom_site_type_symbol
_atom_type_description
_atom_site_fract_x
_atom_site_fract_y
_atom_site_fract_z
_atom_type_partial_charge
C1    C     C_R   0.760480 0.532917 0.646686 0.541345
C2    C     C_R   0.239171 0.533156 0.353368 0.540805
C3    C     C_R   0.260480 0.032917 0.646686 0.541345
C4    C     C_R   0.739171 0.033156 0.353368 0.540805
C5    C     C_R   0.817747 0.058757 0.529730 0.336058
C6    C     C_R   0.189929 0.034389 0.465919 0.320811
C7    C     C_R   0.317747 0.558757 0.529730 0.336057
C8    C     C_R   0.689929 0.534389 0.465919 0.320811
C9    C     C_R   0.813641 0.062403 0.456700 -0.130659
C10   C     C_R   0.190560 0.035214 0.538946 -0.136177
C11   C     C_R   0.313641 0.562403 0.456700 -0.130659
C12   C     C_R   0.690561 0.535214 0.538946 -0.136177
C13   C     C_3   0.655137 0.227419 0.459599 -0.210227
C14   C     C_3   0.311788 0.274171 0.551438 -0.227982
C15   C     C_3   0.155137 0.727419 0.459599 -0.210227
C16   C     C_3   0.811788 0.774171 0.551438 -0.227983
C17   C     C_3   0.663192 0.238772 0.539210 -0.247573
C18   C     C_3   0.302578 0.287736 0.472345 -0.233438
C19   C     C_3   0.163192 0.738772 0.539210 -0.247573
C20   C     C_3   0.802578 0.787736 0.472345 -0.233437
C21   C     C_R   0.760382 0.092084 0.571886 0.014494
C22   C     C_R   0.241202 0.096493 0.428288 0.016882
C23   C     C_R   0.260382 0.592084 0.571886 0.014494
C24   C     C_R   0.741202 0.596493 0.428288 0.016882
C25   C     C_R   0.990569 0.334235 0.421196 -0.046948
C26   C     C_R   0.998837 0.343401 0.572091 -0.041272
C27   C     C_R   0.490569 0.834235 0.421196 -0.046948
C28   C     C_R   0.498837 0.843401 0.572091 -0.041272
C29   C     C_R   0.991164 0.114232 0.427056 -0.040028
C30   C     C_R   0.020739 0.127024 0.572501 -0.032177
C31   C     C_R   0.491163 0.614232 0.427056 -0.040028
C32   C     C_R   0.520739 0.627024 0.572501 -0.032178
C33   C     C_R   0.000400 0.010095 0.465906 0.008261
C34   C     C_R   0.018060 0.016921 0.537784 -0.001811
C35   C     C_R   0.500400 0.510095 0.465906 0.008261
C36   C     C_R   0.518060 0.516921 0.537784 -0.001811
C37   C     C_R   0.004855 0.232771 0.535756 0.015073
C38   C     C_R   0.996033 0.227260 0.460597 0.007066
C39   C     C_R   0.504855 0.732771 0.535756 0.015073
C40   C     C_R   0.496033 0.727260 0.460597 0.007066
C41   C     C_R   0.994056 0.449704 0.530847 0.024079
C42   C     C_R   0.977155 0.441074 0.457962 0.014648
C43   C     C_R   0.494055 0.949704 0.530847 0.024078
C44   C     C_R   0.477156 0.941074 0.457962 0.014648
C45   C     C_R   0.774414 0.127377 0.645069 0.559679
C46   C     C_R   0.225572 0.129035 0.355273 0.568825
C47   C     C_R   0.274414 0.627377 0.645069 0.559678
C48   C     C_R   0.725572 0.629035 0.355273 0.568825
C49   C     C_R   0.004435 0.565667 0.559853 -0.066038
C50   C     C_R   0.953770 0.543218 0.421587 -0.064823
C51   C     C_R   0.504435 0.065667 0.559853 -0.066038
C52   C     C_R   0.453770 0.043218 0.421587 -0.064823
C53   C     C_R   0.985848 0.666667 0.521575 -0.137143
C54   C     C_R   0.960340 0.655339 0.452566 -0.113321
C55   C     C_R   0.485848 0.166667 0.521575 -0.137143
C56   C     C_R   0.460340 0.155339 0.452566 -0.113321
C57   C     C_R   0.743620 0.070891 0.073135 -0.066632
C58   C     C_R   0.241941 0.109453 0.915061 0.007826
C59   C     C_R   0.243620 0.570891 0.073135 -0.066632
C60   C     C_R   0.741941 0.609452 0.915061 0.007826
C61   C     C_R   0.804084 0.034755 0.039133 0.024871
C62   C     C_R   0.182398 0.073074 0.950963 -0.041922
C63   C     C_R   0.304084 0.534754 0.039132 0.024871
C64   C     C_R   0.682398 0.573073 0.950963 -0.041922
C65   C     C_R   0.811138 0.046176 0.966949 0.049065
C66   C     C_R   0.172346 0.097690 0.021937 -0.110289
C67   C     C_R   0.311138 0.546175 0.966949 0.049065
C68   C     C_R   0.672346 0.597690 0.021937 -0.110289
C69   C     C_R   0.692539 0.110533 0.955190 -0.080287
C70   C     C_R   0.273024 0.221883 0.024520 -0.137642
C71   C     C_R   0.192539 0.610533 0.955190 -0.080287
C72   C     C_R   0.773024 0.721883 0.024520 -0.137642
C73   C     C_R   0.685957 0.111065 0.029758 0.246809
C74   C     C_R   0.285365 0.196469 0.950870 0.191132
C75   C     C_R   0.185957 0.611065 0.029759 0.246808
C76   C     C_R   0.785365 0.696469 0.950870 0.191132
C77   C     C_3   0.876542 0.077950 0.053985 0.263479
C78   C     C_3   0.153652 0.950658 0.959575 0.294116
C79   C     C_3   0.376542 0.577949 0.053985 0.263479
C80   C     C_3   0.653652 0.450657 0.959575 0.294116
C81   C     C_3   0.883620 0.094723 0.974691 -0.146273
C82   C     C_3   0.143139 0.978838 0.037249 -0.115889
C83   C     C_3   0.383620 0.594721 0.974691 -0.146272
C84   C     C_3   0.643139 0.478838 0.037249 -0.115889
C85   C     C_R   0.756583 0.086260 0.923885 -0.019815
C86   C     C_R   0.219431 0.162988 0.061962 -0.044929
C87   C     C_R   0.256583 0.586260 0.923885 -0.019817
C88   C     C_R   0.719431 0.662988 0.061962 -0.044928
C89   C     C_R   0.970869 0.346946 0.646329 0.523356
C90   C     C_R   0.026988 0.345251 0.351638 0.517628
C91   C     C_R   0.470869 0.846946 0.646329 0.523355
C92   C     C_R   0.526988 0.845252 0.351638 0.517628
C93   C     C_R   0.997315 0.326768 0.078049 0.026267
C94   C     C_R   0.985315 0.344286 0.929582 0.020849
C95   C     C_R   0.497315 0.826768 0.078049 0.026268
C96   C     C_R   0.485315 0.844286 0.929582 0.020849
C97   C     C_R   0.956281 0.414461 0.048714 0.061724
C98   C     C_R   0.950216 0.422029 0.975540 0.095663
C99   C     C_R   0.456281 0.914460 0.048715 0.061722
C100  C     C_R   0.450215 0.922028 0.975540 0.095658
C101  C     C_R   0.023544 0.250911 0.958791 -0.181880
C102  C     C_R   0.027705 0.241285 0.032757 -0.142396
C103  C     C_R   0.523544 0.750911 0.958792 -0.181879
C104  C     C_R   0.527705 0.741285 0.032757 -0.142395
C105  C     C_3   0.880391 0.434374 0.060156 -0.301823
C106  C     C_3   0.873744 0.441268 0.980433 -0.242044
C107  C     C_3   0.380390 0.934373 0.060156 -0.301822
C108  C     C_3   0.373743 0.941267 0.980434 -0.242044
C109  C     C_R   0.759494 0.537926 0.850311 0.582136
C110  C     C_R   0.237861 0.529745 0.146724 0.545174
C111  C     C_R   0.259494 0.037926 0.850311 0.582135
C112  C     C_R   0.737861 0.029745 0.146724 0.545174
C113  C     C_R   0.773120 0.127240 0.852917 0.574971
C114  C     C_R   0.209564 0.172118 0.139932 0.551369
C115  C     C_R   0.273120 0.627239 0.852917 0.574970
C116  C     C_R   0.709564 0.672118 0.139932 0.551369
C117  C     C_R   0.967028 0.347991 0.854929 0.528160
C118  C     C_R   0.028720 0.344828 0.147774 0.544415
C119  C     C_R   0.467028 0.847991 0.854929 0.528159
C120  C     C_R   0.528720 0.844828 0.147774 0.544415
C121  C     C_R   0.749903 0.083204 0.423297 -0.052796
C122  C     C_R   0.247202 0.082192 0.577166 -0.042323
C123  C     C_R   0.249903 0.583204 0.423297 -0.052796
C124  C     C_R   0.747202 0.582192 0.577166 -0.042323
C125  C     C_R   0.691564 0.111185 0.464107 -0.003179
C126  C     C_R   0.299089 0.143892 0.541240 0.011168
C127  C     C_R   0.191564 0.611185 0.464107 -0.003179
C128  C     C_R   0.799089 0.643892 0.541240 0.011168
C129  C     C_R   0.697668 0.120408 0.537950 -0.062969
C130  C     C_R   0.293599 0.155986 0.467288 -0.045504
C131  C     C_R   0.197668 0.620408 0.537950 -0.062969
C132  C     C_R   0.793599 0.655986 0.467288 -0.045504
Cr1   Cr    Cr6+3 0.885860 0.491680 0.749630 1.077188
Cr2   Cr    Cr6+3 0.114140 0.491680 0.250370 1.092153
Cr3   Cr    Cr6+3 0.385860 0.991680 0.749630 1.077198
Cr4   Cr    Cr6+3 0.614140 0.991680 0.250370 1.092153
Cr5   Cr    Cr6+3 0.730490 0.332970 0.748720 1.027626
Cr6   Cr    Cr6+3 0.269510 0.332970 0.251280 1.039265
Cr7   Cr    Cr6+3 0.230490 0.832970 0.748720 1.027626
Cr8   Cr    Cr6+3 0.769510 0.832970 0.251280 1.039265
Cr9   Cr    Cr6+3 0.887570 0.179310 0.750150 1.069939
Cr10  Cr    Cr6+3 0.112430 0.179310 0.249850 1.070481
Cr11  Cr    Cr6+3 0.387570 0.679310 0.750150 1.069941
Cr12  Cr    Cr6+3 0.612430 0.679310 0.249850 1.070481
H1    H     H_    0.991833 0.753828 0.545375 0.101600
H2    H     H_    0.948409 0.733264 0.421600 0.101804
H3    H     H_    0.491833 0.253828 0.545375 0.101601
H4    H     H_    0.448409 0.233264 0.421600 0.101804
H5    H     H_    0.650209 0.142416 0.921928 0.196229
H6    H     H_    0.307975 0.280640 0.053844 0.209192
H7    H     H_    0.150209 0.642416 0.921928 0.196232
H8    H     H_    0.807975 0.780640 0.053844 0.209191
H9    H     H_    0.879115 0.160996 0.086386 0.093822
H10   H     H_    0.104982 0.936142 0.927911 0.157579
H11   H     H_    0.379116 0.660995 0.086386 0.093822
H12   H     H_    0.604982 0.436142 0.927911 0.157577
H13   H     H_    0.885457 0.189124 0.959435 0.069599
H14   H     H_    0.087414 0.980405 0.052932 0.176430
H15   H     H_    0.385457 0.689123 0.959434 0.069599
H16   H     H_    0.587414 0.480404 0.052932 0.176430
H17   H     H_    0.924401 0.039238 0.949267 0.220498
H18   H     H_    0.178396 0.927553 0.072797 0.229391
H19   H     H_    0.424401 0.539236 0.949266 0.220499
H20   H     H_    0.678396 0.427553 0.072797 0.229390
H21   H     H_    0.047228 0.183788 0.925001 0.120229
H22   H     H_    0.055594 0.168843 0.055673 0.158823
H23   H     H_    0.547228 0.683789 0.925001 0.120229
H24   H     H_    0.555594 0.668843 0.055673 0.158823
H25   H     H_    0.870210 0.521002 0.087481 0.167501
H26   H     H_    0.841090 0.370168 0.955476 0.167812
H27   H     H_    0.370209 0.021001 0.087481 0.167501
H28   H     H_    0.341090 0.870166 0.955476 0.167813
H29   H     H_    0.852624 0.356883 0.083153 0.127976
H30   H     H_    0.862738 0.530430 0.962636 0.211074
H31   H     H_    0.352623 0.856882 0.083153 0.127977
H32   H     H_    0.362737 0.030428 0.962636 0.211072
H33   H     H_    0.858670 0.035853 0.426258 0.142936
H34   H     H_    0.149121 0.988711 0.565535 0.146104
H35   H     H_    0.358670 0.535853 0.426258 0.142936
H36   H     H_    0.649121 0.488710 0.565535 0.146104
H37   H     H_    0.100497 0.717456 0.440657 0.177244
H38   H     H_    0.865721 0.792857 0.570640 0.195950
H39   H     H_    0.600496 0.217456 0.440657 0.177244
H40   H     H_    0.365721 0.292857 0.570640 0.195951
H41   H     H_    0.687118 0.291727 0.429207 0.200560
H42   H     H_    0.270286 0.319170 0.582829 0.140771
H43   H     H_    0.187118 0.791728 0.429207 0.200560
H44   H     H_    0.770286 0.819170 0.582829 0.140771
H45   H     H_    0.701175 0.308503 0.555516 0.168670
H46   H     H_    0.253579 0.335118 0.458156 0.145656
H47   H     H_    0.201175 0.808503 0.555516 0.168670
H48   H     H_    0.753579 0.835118 0.458156 0.145656
H49   H     H_    0.613754 0.238695 0.569207 0.129986
H50   H     H_    0.349653 0.320866 0.445159 0.154297
H51   H     H_    0.113754 0.738695 0.569207 0.129986
H52   H     H_    0.849653 0.820866 0.445159 0.154297
H53   H     H_    0.996451 0.924203 0.439519 0.116863
H54   H     H_    0.028967 0.937082 0.567476 0.088841
H55   H     H_    0.496451 0.424203 0.439519 0.116863
H56   H     H_    0.528967 0.437082 0.567476 0.088841
H57   H     H_    0.977086 0.105146 0.371361 0.124677
H58   H     H_    0.036231 0.128505 0.628020 0.113882
H59   H     H_    0.477086 0.605146 0.371361 0.124677
H60   H     H_    0.536231 0.628505 0.628020 0.113883
H61   H     H_    0.933666 0.536931 0.367569 0.131416
H62   H     H_    0.028714 0.579893 0.611442 0.136356
H63   H     H_    0.433666 0.036931 0.367569 0.131416
H64   H     H_    0.528714 0.079894 0.611442 0.136357
O1    O     O_R   0.957020 0.451640 0.669920 -0.527869
O2    O     O_R   0.042980 0.451640 0.330080 -0.518575
O3    O     O_R   0.457020 0.951640 0.669920 -0.527868
O4    O     O_R   0.542980 0.951640 0.330080 -0.518575
O5    O     O_R   0.736470 0.210100 0.823360 -0.476809
O6    O     O_R   0.263530 0.210100 0.176640 -0.501735
O7    O     O_R   0.236470 0.710100 0.823360 -0.476809
O8    O     O_R   0.763530 0.710100 0.176640 -0.501735
O9    O     O_R   0.831960 0.093290 0.830130 -0.478571
O10   O     O_R   0.168040 0.093290 0.169870 -0.501439
O11   O     O_R   0.331960 0.593290 0.830130 -0.478571
O12   O     O_R   0.668040 0.593290 0.169870 -0.501439
O13   O     O_R   0.945600 0.250580 0.824860 -0.526237
O14   O     O_R   0.054400 0.250580 0.175140 -0.529693
O15   O     O_R   0.445600 0.750580 0.824860 -0.526237
O16   O     O_R   0.554400 0.750580 0.175140 -0.529693
O17   O     O_3   0.834640 0.334650 0.749500 -0.281572
O18   O     O_3   0.165360 0.334650 0.250500 -0.305472
O19   O     O_3   0.334640 0.834650 0.749500 -0.281573
O20   O     O_3   0.665360 0.834650 0.250500 -0.305472
O21   O     O_R   0.821450 0.543440 0.674610 -0.481570
O22   O     O_R   0.178550 0.543440 0.325390 -0.483247
O23   O     O_R   0.321450 0.043440 0.674610 -0.481568
O24   O     O_R   0.678550 0.043440 0.325390 -0.483247
O25   O     O_R   0.715320 0.458650 0.668100 -0.554662
O26   O     O_R   0.284680 0.458650 0.331900 -0.540011
O27   O     O_R   0.215320 0.958650 0.668100 -0.554662
O28   O     O_R   0.784680 0.958650 0.331900 -0.540011
O29   O     O_R   0.737170 0.209590 0.674530 -0.529736
O30   O     O_R   0.262830 0.209590 0.325470 -0.521024
O31   O     O_R   0.237170 0.709590 0.674530 -0.529737
O32   O     O_R   0.762830 0.709590 0.325470 -0.521024
O33   O     O_R   0.832710 0.092740 0.669580 -0.426936
O34   O     O_R   0.167290 0.092740 0.330420 -0.421461
O35   O     O_R   0.332710 0.592740 0.669580 -0.426936
O36   O     O_R   0.667290 0.592740 0.330420 -0.421461
O37   O     O_R   0.946290 0.250060 0.676040 -0.486825
O38   O     O_R   0.053710 0.250060 0.323960 -0.502395
O39   O     O_R   0.446290 0.750060 0.676040 -0.486825
O40   O     O_R   0.553710 0.750060 0.323960 -0.502395
O41   O     O_R   0.956270 0.452200 0.830470 -0.470278
O42   O     O_R   0.043730 0.452200 0.169530 -0.452506
O43   O     O_R   0.456270 0.952200 0.830470 -0.470277
O44   O     O_R   0.543730 0.952200 0.169530 -0.452505
O45   O     O_R   0.820760 0.543950 0.823440 -0.437321
O46   O     O_R   0.179240 0.543950 0.176560 -0.434710
O47   O     O_R   0.320760 0.043950 0.823440 -0.437315
O48   O     O_R   0.679240 0.043950 0.176560 -0.434710
O49   O     O_R   0.714570 0.459210 0.828640 -0.481788
O50   O     O_R   0.285430 0.459210 0.171360 -0.487247
O51   O     O_R   0.214570 0.959210 0.828640 -0.481789
O52   O     O_R   0.785430 0.959210 0.171360 -0.487248
F1    F     F_    0.878760 0.023113 0.558741 -0.658229
F2    F     F_    0.135905 0.978793 0.432610 -0.668387
F3    F     F_    0.378760 0.523113 0.558741 -0.658229
F4    F     F_    0.635905 0.478793 0.432610 -0.668387
S1    S     S_3+6 0.610033 0.183560 0.062012 0.031989
O53   O     O_2   0.624363 0.251467 0.130024 -0.291935
O54   O     O_2   0.580648 0.264366 0.006586 -0.293096
O55   O     O_3   0.545740 0.088725 0.073795 -0.489486
H65   H     H_    0.506054 0.138567 0.089851 0.382927
S2    S     S_3+6 0.360224 0.263418 0.911658 -0.014557
O56   O     O_2   0.336385 0.345853 0.853865 -0.295836
O57   O     O_2   0.399670 0.331941 0.967893 -0.258371
O58   O     O_3   0.417468 0.166648 0.876995 -0.484470
H66   H     H_    0.455961 0.216672 0.858574 0.362336
S3    S     S_3+6 0.110033 0.683560 0.062012 0.031992
O59   O     O_2   0.124363 0.751468 0.130024 -0.291937
O60   O     O_2   0.080648 0.764366 0.006586 -0.293089
O61   O     O_3   0.045740 0.588726 0.073796 -0.489484
H67   H     H_    0.006054 0.638568 0.089852 0.382927
S4    S     S_3+6 0.860223 0.763419 0.911657 -0.014556
O62   O     O_2   0.836383 0.845852 0.853865 -0.295848
O63   O     O_2   0.899670 0.831942 0.967892 -0.258360
O64   O     O_3   0.917468 0.666649 0.876994 -0.484466
H68   H     H_    0.955952 0.716676 0.858557 0.362330
F5    F     F_    0.918770 0.987922 0.079787 -0.581793
F6    F     F_    0.203934 0.863389 0.951256 -0.641828
F7    F     F_    0.418770 0.487921 0.079787 -0.581792
F8    F     F_    0.703935 0.363389 0.951256 -0.641828

loop_
_geom_bond_atom_site_label_1
_geom_bond_atom_site_label_2
_ccdc_geom_bond_type
Cr2   O2    S    
C106  H26   S    
C70   H6    S    
C116  O8    A    
C107  H27   S    
C2    C123  S    
C105  H25   S    
C4    O24   A    
Cr1   O17   S    
C94   C117  S    
C16   H38   S    
C29   C33   A    
Cr8   O32   S    
Cr6   O18   S    
C3    O27   A    
C35   C36   A    
C1    O25   A    
Cr10  O38   S    
C70   C74   A    
C9    C121  A    
C8    F4    S    
C87   C115  S    
C48   O36   A    
C97   C105  S    
C122  C126  A    
Cr4   O20   S    
C15   C127  S    
C22   C130  A    
C5    F1    S    
C20   C132  S    
C41   C49   A    
C111  O47   A    
C30   H58   S    
C13   H41   S    
C76   S4    S    
C16   H44   S    
Cr1   O45   S    
C62   C66   A    
Cr7   O31   S    
C60   C76   A    
C93   C102  A    
C43   C44   A    
C20   H48   S    
C37   C38   A    
C66   C82   S    
C78   C82   S    
C16   C20   S    
C45   O29   A    
C119  O15   A    
C115  O7    A    
C125  C129  A    
Cr7   O27   S    
S2    O57   D    
C18   C130  S    
C11   H35   S    
Cr2   O42   S    
C9    H33   S    
C18   H46   S    
Cr8   O52   S    
C75   S3    S    
C120  O44   A    
Cr11  O19   S    
C10   C122  A    
C14   C126  S    
C57   C61   A    
Cr5   O49   S    
C59   C63   A    
C98   C106  S    
C60   C64   A    
C1    C124  S    
C110  O46   A    
C49   C53   A    
Cr12  O36   S    
C77   F5    S    
C89   O37   A    
C95   C99   A    
Cr5   O29   S    
C127  C131  A    
C79   H11   S    
C61   C65   A    
C5    C21   A    
C49   H62   S    
C94   C98   A    
Cr4   O44   S    
Cr9   O13   S    
C79   C83   S    
Cr6   O50   S    
C103  H23   S    
C118  O14   A    
Cr1   O1    S    
C114  O6    A    
C97   C98   A    
C74   S2    S    
C35   H55   S    
C53   C54   A    
C5    C9    A    
C25   C90   S    
Cr3   O19   S    
C32   C36   A    
Cr12  O12   S    
C82   H14   S    
C15   H37   S    
C57   C73   A    
Cr10  O10   S    
Cr5   O17   S    
C60   C109  S    
C77   H9    S    
Cr4   O4    S    
C27   C44   A    
C61   C77   S    
C29   C38   A    
Cr9   O37   S    
C107  C108  S    
C7    F3    S    
C116  O12   A    
C51   C55   A    
C44   C52   A    
C80   F8    S    
C120  O16   A    
C105  H29   S    
C4    O28   A    
C114  O10   A    
O58   H66   S    
C21   C45   S    
C79   F7    S    
C100  C108  S    
C23   C47   S    
C30   C34   A    
C24   C48   S    
S3    O61   S    
S4    O62   D    
C91   O3    A    
Cr8   O20   S    
C3    O23   A    
C39   C40   A    
C89   O1    A    
C82   H18   S    
C72   H8    S    
Cr10  O34   S    
C121  C125  A    
C119  O43   A    
C25   C38   A    
C34   H54   S    
C123  C127  A    
C27   C40   A    
C8    C12   A    
C23   C131  A    
C6    F2    S    
S1    O54   D    
C21   C129  A    
C42   C50   A    
C47   O31   A    
C12   H36   S    
C108  H28   S    
Cr11  O35   S    
C92   O4    A    
C93   C97   A    
C69   C85   A    
C58   C74   A    
C62   C78   S    
Cr3   O43   S    
C66   C86   A    
C124  C128  A    
C85   C113  S    
C13   C125  S    
C112  O52   A    
C7    C23   A    
C96   C100  A    
C8    C24   A    
C28   C91   S    
Cr2   O22   S    
C2    O22   A    
Cr11  O11   S    
C19   H47   S    
O64   H68   S    
O61   H67   S    
C78   F6    S    
C58   C62   A    
Cr3   O3    S    
C55   C56   A    
C101  C102  A    
Cr1   O41   S    
C52   H63   S    
C41   C42   A    
C96   C119  S    
S3    O59   D    
S4    O64   S    
C80   C84   S    
C56   H4    S    
C84   H16   S    
C15   C19   S    
C50   C54   A    
C112  O48   A    
C18   H50   S    
C126  C130  A    
C6    C22   A    
C31   C40   A    
Cr7   O19   S    
C32   C39   A    
Cr9   O9    S    
C17   H49   S    
C2    O26   A    
C71   H7    S    
Cr7   O7    S    
C13   H39   S    
Cr7   O51   S    
C69   C73   A    
C54   H2    S    
Cr3   O23   S    
C64   C80   S    
S2    O58   S    
C111  O51   A    
C48   O32   A    
Cr10  O18   S    
C92   O40   A    
C91   O39   A    
C81   H13   S    
C58   C111  S    
C68   C84   S    
C29   H57   S    
C117  O41   A    
C78   H10   S    
C28   C39   A    
Cr9   O33   S    
C30   C37   A    
C32   H60   S    
Cr9   O17   S    
C24   C132  A    
C65   C81   S    
C77   C81   S    
C53   H1    S    
C106  H30   S    
C101  H21   S    
C73   S1    S    
C71   C87   A    
C22   C46   S    
C118  O42   A    
C31   C35   A    
Cr6   O26   S    
C46   O34   A    
C64   C68   A    
C83   H19   S    
Cr6   O6    S    
C81   H17   S    
C11   C123  A    
C36   H56   S    
C25   C42   A    
C6    C10   A    
C26   C37   A    
C110  O50   A    
C13   C17   S    
C95   C120  S    
C99   C107  S    
C105  C106  S    
C28   C43   A    
C69   H5    S    
C47   O35   A    
C43   C51   A    
C107  H31   S    
C90   O38   A    
C109  O45   A    
Cr11  O39   S    
C4    C121  S    
Cr1   O21   S    
O55   H65   S    
C108  H32   S    
C96   C103  A    
C103  C104  A    
Cr8   O28   S    
S2    O56   D    
Cr3   O47   S    
C19   H51   S    
C14   C18   S    
C117  O13   A    
C113  O5    A    
C72   C76   A    
C63   C79   S    
C26   C89   S    
C7    C11   A    
Cr4   O24   S    
Cr2   O18   S    
S3    O60   D    
S4    O63   D    
Cr11  O15   S    
C14   H42   S    
C57   C112  S    
C59   C110  S    
C94   C101  A    
S1    O53   D    
C31   H59   S    
C84   H20   S    
C3    C122  S    
C115  O11   A    
C59   C75   A    
C128  C132  A    
C113  O9    A    
C72   C88   A    
C80   H12   S    
C19   C131  S    
C63   C67   A    
C17   C129  S    
C10   H34   S    
Cr2   O46   S    
C90   O2    A    
C51   H64   S    
C17   H45   S    
C15   H43   S    
C88   C116  S    
C104  H24   S    
C55   H3    S    
C99   C100  A    
C12   C124  A    
C33   H53   S    
C33   C34   A    
C27   C92   S    
C67   C83   S    
C16   C128  S    
Cr12  O40   S    
C68   C88   A    
C93   C118  S    
Cr5   O25   S    
C70   C86   A    
C45   O33   A    
C95   C104  A    
Cr5   O5    S    
Cr4   O48   S    
C14   H40   S    
C65   C85   A    
C67   C87   A    
C86   C114  S    
C71   C75   A    
Cr10  O14   S    
Cr6   O30   S    
C46   O30   A    
C109  O49   A    
S1    O55   S    
Cr12  O16   S    
Cr8   O8    S    
C50   H61   S    
C1    O21   A    
C83   H15   S    
C102  H22   S    
Cr12  O20   S    
C20   H52   S    
C52   C56   A    
C26   C41   A    
