data_str_m9_o11_o16_f0_sra.sym.57
_audit_creation_date              2012-12-11T14:17:46-0500
_audit_creation_method            fapswitch 2.2
_symmetry_space_group_name_H-M    P1
_symmetry_Int_Tables_number       1
_space_group_crystal_system       triclinic
_cell_length_a                    6.940903
_cell_length_b                    13.684925
_cell_length_c                    20.422304
_cell_angle_alpha                 102.201542
_cell_angle_beta                  89.724093
_cell_angle_gamma                 90.930764
_cell_volume                      1895.75522601

loop_
_atom_site_label
_atom_site_type_symbol
_atom_type_description
_atom_site_fract_x
_atom_site_fract_y
_atom_site_fract_z
_atom_type_partial_charge
O1    O     O_R   0.506860 0.599390 0.449240 -0.540941
O2    O     O_R   0.180220 0.594600 0.586780 -0.545568
O3    O     O_R   0.004500 0.400610 0.550760 -0.536143
C1    C     C_R   0.349875 0.618862 0.612460 0.636264
O4    O     O_R   0.177490 0.611290 0.451970 -0.532265
O5    O     O_R   0.001750 0.417420 0.414990 -0.526589
C2    C     C_R   0.347972 0.637048 0.434819 0.805643
O6    O     O_R   0.509610 0.582580 0.585010 -0.560985
O7    O     O_3   0.337420 0.436370 0.488020 -0.354482
V1    V     V_3+5 0.064680 0.511800 0.502220 1.537856
O8    O     O_R   0.671710 0.405400 0.413220 -0.523053
C3    C     C_R   0.840438 0.383200 0.386900 0.755035
O9    O     O_R   0.674440 0.388710 0.548030 -0.549905
C4    C     C_R   0.842249 0.362652 0.565225 0.682562
V2    V     V_3+5 0.564010 0.488200 0.497780 1.530520
O10   O     O_3   0.841140 0.563630 0.511980 -0.388150
C5    C     C_R   0.878612 0.113237 0.612487 -0.092409
H1    H     H_    0.870040 0.163449 0.519930 0.129493
H2    H     H_    0.891581 0.035776 0.586856 0.176340
C6    C     C_R   0.849399 0.286039 0.605338 -0.024045
C7    C     C_R   0.847894 0.314561 0.929396 -0.244901
C8    C     C_R   0.836424 0.391420 0.894396 0.024477
C9    C     C_R   0.839956 0.368439 0.824077 -0.115947
C10   C     C_R   0.855415 0.268433 0.787551 0.036258
C11   C     C_R   0.868228 0.191113 0.824338 -0.032187
C12   C     C_R   0.858315 0.242570 0.715807 0.006463
C13   C     C_R   0.875394 0.140353 0.682865 0.000702
C14   C     C_R   0.889635 0.066175 0.720332 0.635238
C15   C     C_R   0.885451 0.091148 0.789790 -0.257178
C16   C     C_R   0.845337 0.314464 0.675298 -0.176677
C17   C     C_R   0.865955 0.185641 0.574085 -0.181801
C18   C     C_R   0.863510 0.215226 0.895266 -0.028527
H3    H     H_    0.832946 0.393256 0.696132 0.087652
H4    H     H_    0.844063 0.331992 0.983734 0.126474
H5    H     H_    0.830424 0.430300 0.799425 0.143776
H6    H     H_    0.896496 0.030851 0.816343 0.139551
C19   C     C_2   0.998785 0.268128 0.289852 -0.222491
C20   C     C_2   0.846146 0.323998 0.317231 0.399960
C21   C     C_2   0.009591 0.225206 0.216575 0.683839
C22   C     C_2   0.859296 0.175566 0.182610 -0.291756
H7    H     H_    0.722758 0.172185 0.208183 0.127933
C23   C     C_2   0.209496 0.794968 0.780907 -0.044902
C24   C     C_2   0.359767 0.808632 0.823287 -0.217010
H8    H     H_    0.076699 0.834756 0.795478 0.148199
H9    H     H_    0.488465 0.764617 0.810266 0.137680
C25   C     C_2   0.211106 0.720442 0.716052 -0.095087
C26   C     C_2   0.364650 0.699370 0.673973 -0.191605
H10   H     H_    0.075961 0.680195 0.702692 0.121267
C27   C     C_R   0.478540 0.878215 0.386946 -0.136756
H11   H     H_    0.473309 0.825723 0.478560 0.151733
H12   H     H_    0.489681 0.005704 0.307844 0.114824
H13   H     H_    0.527351 0.952439 0.411679 0.140139
C28   C     C_R   0.367373 0.713635 0.395294 -0.182477
C29   C     C_R   0.336622 0.684169 0.071945 -0.179006
C30   C     C_R   0.360479 0.606964 0.107373 -0.208612
C31   C     C_R   0.392761 0.631708 0.176889 0.744659
C32   C     C_R   0.383688 0.731610 0.213377 -0.079690
C33   C     C_R   0.378373 0.810289 0.177494 -0.055655
C34   C     C_R   0.391373 0.756004 0.284990 -0.015851
C35   C     C_R   0.447996 0.854094 0.317548 0.062189
C36   C     C_R   0.460243 0.929275 0.281557 -0.179537
C37   C     C_R   0.406284 0.910494 0.214504 -0.027841
C38   C     C_R   0.335852 0.688555 0.325975 0.650829
C39   C     C_R   0.444222 0.807143 0.425240 -0.263205
C40   C     C_R   0.353555 0.785563 0.106288 -0.094902
O11   O     O_R   0.203230 0.917310 0.915020 -0.541607
O12   O     O_R   0.535500 0.888690 0.048040 -0.563327
O13   O     O_R   0.711080 0.082610 0.085000 -0.560473
C41   C     C_R   0.365817 0.863325 0.066013 0.783651
O14   O     O_R   0.532630 0.905370 0.913230 -0.547743
O15   O     O_R   0.708190 0.099410 0.949230 -0.543375
C42   C     C_R   0.363794 0.882592 0.887287 0.762950
O16   O     O_R   0.206120 0.900510 0.050790 -0.505622
O17   O     O_3   0.375360 0.063570 0.011990 -0.367349
V3    V     V_3+5 0.648170 0.988200 0.997780 1.515180
O18   O     O_R   0.038240 0.111390 0.951940 -0.549908
C43   C     C_R   0.870411 0.137693 0.935016 0.678739
O19   O     O_R   0.041120 0.094710 0.086750 -0.482005
C44   C     C_R   0.872320 0.115966 0.113359 0.805683
V4    V     V_3+5 0.148810 0.011930 0.002180 1.612013
O20   O     O_3   0.871750 0.936430 0.988010 -0.371696
F1    F     F_    0.695746 0.337042 0.277544 -0.636192
F2    F     F_    0.183385 0.228027 0.185748 -0.630078
C45   C     C_2   0.545466 0.760895 0.682226 0.423625
H14   H     H_    0.681166 0.727132 0.663950 0.056636
O21   O     O_2   0.543166 0.850673 0.705706 -0.487798
F3    F     F_    0.908363 0.968530 0.689637 -0.673357
F4    F     F_    0.237371 0.602314 0.300717 -0.623219
C46   C     C_2   0.310410 0.658379 0.997809 0.376621
H15   H     H_    0.390155 0.597584 0.967450 0.055375
O22   O     O_2   0.196995 0.703570 0.970112 -0.511201
F5    F     F_    0.453097 0.558861 0.207660 -0.557771
C47   C     C_2   0.348269 0.499553 0.072048 0.515825
H16   H     H_    0.289781 0.478300 0.021857 -0.019616
O23   O     O_2   0.401122 0.432644 0.098639 -0.435734
C48   C     C_2   0.350825 0.999277 0.190337 0.368640
H17   H     H_    0.457549 0.054555 0.183013 0.068664
O24   O     O_2   0.180505 0.013847 0.183184 -0.524757
C49   C     C_2   0.819849 0.495859 0.932394 0.367555
H18   H     H_    0.817361 0.511733 0.986784 0.058910
O25   O     O_2   0.808649 0.565336 0.903709 -0.520866
C50   C     C_2   0.163095 0.244295 0.329991 0.371089
H19   H     H_    0.303575 0.229590 0.306722 0.144402
O26   O     O_2   0.141072 0.234092 0.387540 -0.551283

loop_
_geom_bond_atom_site_label_1
_geom_bond_atom_site_label_2
_ccdc_geom_bond_type
C33   C37   A    
C30   C31   A    
C24   C42   S    
C37   C48   S    
C38   F4    S    
H11   C39   S    
H12   C36   S    
C30   C47   S    
C29   C40   A    
C6    C16   A    
O13   V3    S    
C15   H6    S    
C12   C13   A    
C47   H16   S    
C27   C35   A    
C14   C15   A    
C45   O21   D    
O5    C3    A    
C19   C50   S    
C28   C39   A    
O19   V4    S    
C32   C34   A    
V2    O10   S    
C31   C32   A    
C23   C25   S    
C18   C43   S    
C29   C30   A    
O8    V2    S    
O11   C42   A    
C48   O24   D    
C9    C10   A    
C41   O16   A    
O1    V2    S    
C46   O22   D    
O7    V1    S    
C1    O6    A    
C11   C18   A    
C34   C35   A    
C47   O23   D    
C27   C39   A    
O17   V4    S    
O9    C4    A    
C20   F1    S    
C50   H19   S    
C23   H8    S    
O18   C43   A    
C11   C15   A    
C7    C18   A    
C25   H10   S    
O17   V3    S    
C5    C13   A    
C4    C6    S    
C10   C11   A    
C29   C46   S    
C21   C22   D    
O4    C2    A    
O19   C44   A    
V3    O20   S    
C7    H4    S    
C35   C36   A    
O12   C41   A    
O2    C1    A    
C19   C20   D    
C33   C40   A    
C49   H18   S    
C27   H13   S    
C48   H17   S    
C14   F3    S    
C22   C44   S    
C26   C45   S    
C45   H14   S    
C50   O26   D    
C24   H9    S    
O3    C4    A    
C22   H7    S    
C49   O25   D    
C12   C16   A    
O6    V2    S    
C9    H5    S    
O9    V2    S    
C5    C17   A    
O12   V3    S    
C23   C24   D    
C2    C28   S    
O2    V1    S    
O15   C43   A    
C25   C26   D    
C8    C49   S    
C16   H3    S    
O1    C2    A    
O18   V4    S    
C10   C12   A    
V4    O20   S    
O5    V1    S    
O8    C3    A    
O11   V4    S    
C34   C38   A    
O7    V2    S    
C21   F2    S    
O4    V1    S    
C19   C21   S    
O3    V1    S    
V1    O10   S    
O15   V3    S    
C28   C38   A    
C32   C33   A    
O13   C44   A    
C40   C41   S    
C5    H2    S    
O16   V4    S    
C3    C20   S    
C36   C37   A    
C31   F5    S    
O14   V3    S    
C8    C9    A    
O14   C42   A    
H1    C17   S    
C46   H15   S    
C7    C8    A    
C6    C17   A    
C13   C14   A    
C1    C26   S    
