data_str_m3_o40_o41_f0_fof.sym.34
_audit_creation_date              2012-12-10T16:38:03-0500
_audit_creation_method            fapswitch 2.2
_symmetry_space_group_name_H-M    P1
_symmetry_Int_Tables_number       1
_space_group_crystal_system       monoclinic
_cell_length_a                    28.066955
_cell_length_b                    18.35534
_cell_length_c                    17.043084
_cell_angle_alpha                 90.0
_cell_angle_beta                  60.967494
_cell_angle_gamma                 90.0
_cell_volume                      7676.9463711

loop_
_atom_site_label
_atom_site_type_symbol
_atom_type_description
_atom_site_fract_x
_atom_site_fract_y
_atom_site_fract_z
_atom_type_partial_charge
C1    C     C_R   0.705113 0.275904 0.674104 0.954738
C2    C     C_R   0.082687 0.500000 0.549029 0.064799
C3    C     C_R   0.192000 0.211867 0.906810 0.081011
C4    C     C_R   0.611106 0.311543 0.048054 -0.136624
C5    C     C_R   0.388894 0.688457 0.951946 -0.136625
C6    C     C_R   0.388894 0.311543 0.951946 -0.136624
C7    C     C_R   0.611105 0.688457 0.048054 -0.136624
C8    C     C_R   0.111106 0.811544 0.048054 -0.136625
C9    C     C_R   0.888894 0.188457 0.951946 -0.136624
C10   C     C_R   0.888894 0.811544 0.951946 -0.136624
C11   C     C_R   0.111106 0.188457 0.048054 -0.136624
C12   C     C_R   0.638208 0.289812 0.094366 -0.203400
C13   C     C_R   0.417313 0.000000 0.450971 0.064799
C14   C     C_R   0.361792 0.710188 0.905634 -0.203399
C15   C     C_R   0.361792 0.289812 0.905634 -0.203399
C16   C     C_R   0.638208 0.710188 0.094366 -0.203399
C17   C     C_R   0.138208 0.789813 0.094366 -0.203399
C18   C     C_R   0.861792 0.210188 0.905634 -0.203399
C19   C     C_R   0.861792 0.789813 0.905634 -0.203399
C20   C     C_R   0.138208 0.210188 0.094366 -0.203399
C21   C     C_R   0.774612 0.276186 0.765617 -0.143143
C22   C     C_R   0.225388 0.723813 0.234383 -0.143143
C23   C     C_R   0.225388 0.276186 0.234383 -0.143143
C24   C     C_R   0.582687 1.000000 0.549029 0.064799
C25   C     C_R   0.774612 0.723814 0.765617 -0.143143
C26   C     C_R   0.274612 0.776186 0.765617 -0.143143
C27   C     C_R   0.725388 0.223814 0.234383 -0.143143
C28   C     C_R   0.725388 0.776186 0.234383 -0.143142
C29   C     C_R   0.274612 0.223814 0.765617 -0.143143
C30   C     C_R   0.803655 0.259715 0.810315 -0.210488
C31   C     C_R   0.196345 0.740284 0.189685 -0.210489
C32   C     C_R   0.196345 0.259715 0.189685 -0.210489
C33   C     C_R   0.803655 0.740286 0.810315 -0.210490
C34   C     C_R   0.303655 0.759714 0.810315 -0.210489
C35   C     C_R   0.076664 0.368515 0.560319 -0.235864
C36   C     C_R   0.696345 0.240285 0.189685 -0.210489
C37   C     C_R   0.696345 0.759715 0.189685 -0.210490
C38   C     C_R   0.303655 0.240285 0.810315 -0.210489
C39   C     C_R   0.070419 0.104535 0.937895 0.931189
C40   C     C_R   0.929581 0.895465 0.062105 0.931188
C41   C     C_R   0.929581 0.104535 0.062105 0.931187
C42   C     C_R   0.070419 0.895464 0.937895 0.931189
C43   C     C_R   0.570419 0.604535 0.937895 0.931189
C44   C     C_R   0.429581 0.395464 0.062105 0.931188
C45   C     C_R   0.429581 0.604535 0.062105 0.931187
C46   C     C_R   0.923336 0.631485 0.439681 -0.235864
C47   C     C_R   0.570419 0.395464 0.937895 0.931188
C48   C     C_R   0.537771 0.132272 0.531713 0.101480
C49   C     C_R   0.462229 0.867728 0.468287 0.101480
C50   C     C_R   0.462229 0.132272 0.468287 0.101481
C51   C     C_R   0.537771 0.867728 0.531713 0.101480
C52   C     C_R   0.037771 0.632272 0.531713 0.101480
C53   C     C_R   0.962229 0.367728 0.468287 0.101480
C54   C     C_R   0.962229 0.632272 0.468287 0.101480
C55   C     C_R   0.037771 0.367728 0.531713 0.101480
C56   C     C_R   0.518196 0.198341 0.516969 -0.211765
C57   C     C_R   0.923336 0.368515 0.439681 -0.235864
C58   C     C_R   0.481804 0.801659 0.483031 -0.211765
C59   C     C_R   0.481804 0.198341 0.483031 -0.211765
C60   C     C_R   0.518196 0.801659 0.516969 -0.211765
C61   C     C_R   0.018196 0.698341 0.516969 -0.211765
C62   C     C_R   0.981804 0.301659 0.483031 -0.211766
C63   C     C_R   0.981804 0.698341 0.483031 -0.211765
C64   C     C_R   0.018196 0.301659 0.516969 -0.211765
C65   C     C_R   0.480474 0.066110 0.485370 0.032444
C66   C     C_R   0.519526 0.933890 0.514630 0.032444
C67   C     C_R   0.519526 0.066110 0.514630 0.032444
C68   C     C_R   0.076664 0.631485 0.560319 -0.235864
C69   C     C_R   0.480474 0.933890 0.485370 0.032444
C70   C     C_R   0.980474 0.566110 0.485370 0.032444
C71   C     C_R   0.019526 0.433890 0.514630 0.032444
C72   C     C_R   0.019526 0.566110 0.514630 0.032444
C73   C     C_R   0.980474 0.433890 0.485370 0.032444
C74   C     C_R   0.960279 0.500000 0.471895 -0.052061
C75   C     C_R   0.039721 0.500000 0.528105 -0.052061
C76   C     C_R   0.460279 0.000000 0.471895 -0.052061
C77   C     C_R   0.539721 1.000000 0.528105 -0.052061
C78   C     C_R   0.895050 0.433472 0.442773 0.053480
C79   C     C_R   0.576664 0.868515 0.560319 -0.235864
C80   C     C_R   0.104950 0.566527 0.557227 0.053480
C81   C     C_R   0.104950 0.433472 0.557227 0.053480
C82   C     C_R   0.895050 0.566527 0.442773 0.053480
C83   C     C_R   0.395050 0.933472 0.442773 0.053480
C84   C     C_R   0.604950 0.066527 0.557227 0.053480
C85   C     C_R   0.604950 0.933472 0.557227 0.053480
C86   C     C_R   0.395050 0.066527 0.442773 0.053480
C87   C     C_R   0.844253 0.434614 0.442193 -0.107531
C88   C     C_R   0.155747 0.565386 0.557807 -0.107531
C89   C     C_R   0.155747 0.434614 0.557807 -0.107531
C90   C     C_R   0.423336 0.131485 0.439680 -0.235864
C91   C     C_R   0.844253 0.565386 0.442193 -0.107531
C92   C     C_R   0.344253 0.934614 0.442193 -0.107531
C93   C     C_R   0.655747 0.065386 0.557807 -0.107531
C94   C     C_R   0.655747 0.934614 0.557807 -0.107531
C95   C     C_R   0.344253 0.065386 0.442193 -0.107531
C96   C     C_R   0.821580 0.500000 0.437129 -0.296912
C97   C     C_R   0.178420 0.500000 0.562871 -0.296911
C98   C     C_R   0.321580 0.000000 0.437129 -0.296911
C99   C     C_R   0.678420 1.000000 0.562871 -0.296911
C100  C     C_R   0.423336 0.868515 0.439680 -0.235864
C101  C     C_R   0.294887 0.724095 0.325896 0.954738
C102  C     C_R   0.576664 0.131485 0.560319 -0.235864
C103  C     C_R   0.721133 0.269346 0.953635 0.042760
C104  C     C_R   0.278867 0.730654 0.046365 0.042760
C105  C     C_R   0.278867 0.269346 0.046365 0.042760
C106  C     C_R   0.721133 0.730655 0.953635 0.042760
C107  C     C_R   0.221133 0.769345 0.953635 0.042759
C108  C     C_R   0.778867 0.230655 0.046365 0.042760
C109  C     C_R   0.778867 0.769346 0.046366 0.042760
C110  C     C_R   0.221133 0.230655 0.953635 0.042760
C111  C     C_R   0.777570 0.252428 0.904608 0.043556
C112  C     C_R   0.294887 0.275904 0.325896 0.954738
C113  C     C_R   0.222430 0.747572 0.095392 0.043556
C114  C     C_R   0.222430 0.252428 0.095392 0.043557
C115  C     C_R   0.777569 0.747572 0.904608 0.043557
C116  C     C_R   0.277570 0.752427 0.904608 0.043556
C117  C     C_R   0.722430 0.247572 0.095392 0.043556
C118  C     C_R   0.722430 0.752428 0.095392 0.043557
C119  C     C_R   0.277570 0.247572 0.904608 0.043557
C120  C     C_R   0.806354 0.231511 0.951086 0.038895
C121  C     C_R   0.193646 0.768489 0.048914 0.038896
C122  C     C_R   0.193646 0.231511 0.048914 0.038895
C123  C     C_R   0.705113 0.724095 0.674104 0.954737
C124  C     C_R   0.806354 0.768490 0.951086 0.038895
C125  C     C_R   0.306354 0.731511 0.951086 0.038895
C126  C     C_R   0.693646 0.268489 0.048914 0.038895
C127  C     C_R   0.693646 0.731511 0.048914 0.038895
C128  C     C_R   0.306354 0.268489 0.951086 0.038895
C129  C     C_R   0.637648 0.312712 0.953959 -0.010377
C130  C     C_R   0.362352 0.687288 0.046041 -0.010377
C131  C     C_R   0.362352 0.312712 0.046041 -0.010377
C132  C     C_R   0.637648 0.687288 0.953959 -0.010376
C133  C     C_R   0.137648 0.812712 0.953959 -0.010377
C134  C     C_R   0.205113 0.775904 0.674104 0.954738
C135  C     C_R   0.862352 0.187288 0.046041 -0.010376
C136  C     C_R   0.862352 0.812712 0.046041 -0.010377
C137  C     C_R   0.137648 0.187288 0.953959 -0.010377
C138  C     C_R   0.611803 0.338207 0.904679 -0.261800
C139  C     C_R   0.388197 0.661792 0.095321 -0.261800
C140  C     C_R   0.388197 0.338207 0.095321 -0.261800
C141  C     C_R   0.611803 0.661793 0.904679 -0.261802
C142  C     C_R   0.111803 0.838207 0.904679 -0.261800
C143  C     C_R   0.888197 0.161793 0.095321 -0.261800
C144  C     C_R   0.888197 0.838208 0.095321 -0.261800
C145  C     C_R   0.794887 0.224095 0.325896 0.954738
C146  C     C_R   0.111803 0.161792 0.904679 -0.261800
C147  C     C_R   0.632201 0.318452 0.816338 0.532705
C148  C     C_R   0.367799 0.681548 0.183662 0.532706
C149  C     C_R   0.367799 0.318452 0.183662 0.532705
C150  C     C_R   0.632201 0.681548 0.816338 0.532702
C151  C     C_R   0.132201 0.818452 0.816338 0.532705
C152  C     C_R   0.867799 0.181548 0.183662 0.532706
C153  C     C_R   0.867799 0.818452 0.183662 0.532705
C154  C     C_R   0.132201 0.181548 0.816338 0.532705
C155  C     C_R   0.685169 0.293617 0.768461 -0.262127
C156  C     C_R   0.794887 0.775905 0.325896 0.954739
C157  C     C_R   0.314831 0.706383 0.231539 -0.262128
C158  C     C_R   0.314831 0.293617 0.231539 -0.262128
C159  C     C_R   0.685169 0.706383 0.768461 -0.262127
C160  C     C_R   0.185169 0.793617 0.768461 -0.262128
C161  C     C_R   0.814831 0.206383 0.231539 -0.262128
C162  C     C_R   0.814831 0.793617 0.231539 -0.262127
C163  C     C_R   0.185169 0.206383 0.768461 -0.262127
C164  C     C_R   0.717656 0.285282 0.812258 -0.012186
C165  C     C_R   0.282344 0.714717 0.187742 -0.012186
C166  C     C_R   0.282344 0.285282 0.187742 -0.012186
C167  C     C_R   0.205113 0.224095 0.674104 0.954738
C168  C     C_R   0.717656 0.714718 0.812258 -0.012186
C169  C     C_R   0.217656 0.785282 0.812258 -0.012185
C170  C     C_R   0.782344 0.214717 0.187742 -0.012186
C171  C     C_R   0.782344 0.785282 0.187743 -0.012186
C172  C     C_R   0.217656 0.214718 0.812258 -0.012186
C173  C     C_R   0.690978 0.129410 0.535644 0.896351
C174  C     C_R   0.309022 0.870589 0.464355 0.896351
C175  C     C_R   0.309022 0.129411 0.464355 0.896351
C176  C     C_R   0.690978 0.870589 0.535644 0.896351
C177  C     C_R   0.190978 0.629410 0.535644 0.896351
C178  C     C_R   0.917313 0.500000 0.450971 0.064799
C179  C     C_R   0.809022 0.370589 0.464355 0.896351
C180  C     C_R   0.809022 0.629410 0.464355 0.896351
C181  C     C_R   0.190978 0.370589 0.535644 0.896351
C182  C     C_R   0.692000 0.288133 0.906810 0.081011
C183  C     C_R   0.307999 0.711866 0.093190 0.081011
C184  C     C_R   0.308000 0.288133 0.093190 0.081011
C185  C     C_R   0.692000 0.711867 0.906810 0.081011
C186  C     C_R   0.192000 0.788133 0.906810 0.081011
C187  C     C_R   0.808000 0.211867 0.093190 0.081011
C188  C     C_R   0.807999 0.788133 0.093190 0.081011
F1    F     F_    0.601075 0.327744 0.775811 -0.646708
F2    F     F_    0.398925 0.672255 0.224189 -0.646708
F3    F     F_    0.398925 0.327744 0.224189 -0.646708
F4    F     F_    0.601075 0.672253 0.775810 -0.646706
F5    F     F_    0.101075 0.827745 0.775811 -0.646708
F6    F     F_    0.898925 0.172256 0.224189 -0.646708
F7    F     F_    0.898924 0.827745 0.224189 -0.646708
F8    F     F_    0.101075 0.172255 0.775811 -0.646708
H1    H     H_    0.032237 0.250080 0.529155 0.144574
H2    H     H_    0.217268 0.500000 0.562145 0.198573
H3    H     H_    0.282732 1.000000 0.437854 0.198573
H4    H     H_    0.717268 1.000000 0.562145 0.198573
H5    H     H_    0.568329 0.325000 0.087253 0.172306
H6    H     H_    0.431671 0.675000 0.912747 0.172305
H7    H     H_    0.431671 0.325001 0.912747 0.172306
H8    H     H_    0.568329 0.675000 0.087253 0.172306
H9    H     H_    0.068330 0.825001 0.087253 0.172306
H10   H     H_    0.931671 0.174999 0.912747 0.172305
H11   H     H_    0.931670 0.825001 0.912747 0.172306
H12   H     H_    0.967763 0.749920 0.470845 0.144574
H13   H     H_    0.068329 0.174999 0.087253 0.172306
H14   H     H_    0.614447 0.291817 0.166400 0.140761
H15   H     H_    0.385553 0.708184 0.833600 0.140761
H16   H     H_    0.385553 0.291818 0.833599 0.140761
H17   H     H_    0.614447 0.708183 0.166401 0.140761
H18   H     H_    0.114447 0.791820 0.166401 0.140761
H19   H     H_    0.885553 0.208183 0.833599 0.140761
H20   H     H_    0.885553 0.791818 0.833600 0.140761
H21   H     H_    0.114447 0.208183 0.166401 0.140761
H22   H     H_    0.798406 0.284641 0.694131 0.176270
H23   H     H_    0.967763 0.250080 0.470845 0.144575
H24   H     H_    0.201594 0.715358 0.305869 0.176269
H25   H     H_    0.201594 0.284641 0.305869 0.176270
H26   H     H_    0.798406 0.715359 0.694131 0.176270
H27   H     H_    0.298406 0.784641 0.694131 0.176270
H28   H     H_    0.701594 0.215359 0.305869 0.176270
H29   H     H_    0.701594 0.784641 0.305869 0.176269
H30   H     H_    0.298406 0.215359 0.694131 0.176270
H31   H     H_    0.847067 0.254407 0.768459 0.140423
H32   H     H_    0.152933 0.745591 0.231541 0.140424
H33   H     H_    0.152933 0.254407 0.231540 0.140424
H34   H     H_    0.032237 0.749920 0.529155 0.144574
H35   H     H_    0.847067 0.745593 0.768460 0.140424
H36   H     H_    0.347067 0.754406 0.768459 0.140423
H37   H     H_    0.652933 0.245593 0.231541 0.140424
H38   H     H_    0.652933 0.754407 0.231541 0.140424
H39   H     H_    0.347067 0.245593 0.768459 0.140424
H40   H     H_    0.084114 0.317649 0.584195 0.191283
H41   H     H_    0.915886 0.682351 0.415805 0.191283
H42   H     H_    0.915886 0.317649 0.415805 0.191284
H43   H     H_    0.084114 0.682351 0.584195 0.191283
H44   H     H_    0.584114 0.817649 0.584195 0.191283
H45   H     H_    0.532237 0.750080 0.529154 0.144574
H46   H     H_    0.415886 0.182351 0.415805 0.191284
H47   H     H_    0.415886 0.817649 0.415805 0.191283
H48   H     H_    0.584114 0.182351 0.584195 0.191284
H49   H     H_    0.467763 0.249920 0.470845 0.144574
H50   H     H_    0.467763 0.750080 0.470845 0.144574
H51   H     H_    0.532237 0.249920 0.529154 0.144574
H52   H     H_    0.782732 0.500000 0.437854 0.198573
O1    O     O_R   0.746490 0.236330 0.638080 -0.658769
O2    O     O_R   0.325830 0.813840 0.483730 -0.654626
O3    O     O_R   0.325830 0.186160 0.483730 -0.654627
O4    O     O_R   0.674170 0.813840 0.516270 -0.654627
O5    O     O_R   0.174170 0.686160 0.516270 -0.654627
O6    O     O_R   0.825830 0.313840 0.483730 -0.654627
O7    O     O_R   0.825830 0.686160 0.483730 -0.654627
O8    O     O_R   0.174170 0.313840 0.516270 -0.654627
O9    O     O_R   0.739960 0.127620 0.525000 -0.625444
O10   O     O_R   0.260040 0.872380 0.475000 -0.625444
O11   O     O_R   0.260040 0.127620 0.475000 -0.625444
O12   O     O_R   0.253510 0.763670 0.361920 -0.658768
O13   O     O_R   0.739960 0.872380 0.525000 -0.625444
O14   O     O_R   0.239960 0.627620 0.525000 -0.625444
O15   O     O_R   0.760040 0.372380 0.475000 -0.625444
O16   O     O_R   0.760040 0.627620 0.475000 -0.625444
O17   O     O_R   0.239960 0.372380 0.525000 -0.625444
O18   O     O_R   0.680700 0.294870 0.629350 -0.547588
O19   O     O_R   0.319300 0.705130 0.370650 -0.547588
O20   O     O_R   0.319300 0.294870 0.370650 -0.547588
O21   O     O_R   0.680700 0.705130 0.629350 -0.547587
O22   O     O_R   0.180700 0.794870 0.629350 -0.547588
O23   O     O_R   0.253510 0.236330 0.361920 -0.658769
O24   O     O_R   0.819300 0.205130 0.370650 -0.547588
O25   O     O_R   0.819300 0.794870 0.370650 -0.547588
O26   O     O_R   0.180700 0.205130 0.629350 -0.547588
O27   O     O_R   0.062020 0.072840 0.007170 -0.639443
O28   O     O_R   0.937980 0.927160 0.992830 -0.639443
O29   O     O_R   0.937980 0.072840 0.992830 -0.639442
O30   O     O_R   0.062020 0.927160 0.007170 -0.639443
O31   O     O_R   0.562020 0.572840 0.007170 -0.639442
O32   O     O_R   0.437980 0.427160 0.992830 -0.639442
O33   O     O_R   0.437980 0.572840 0.992830 -0.639442
O34   O     O_R   0.746490 0.763670 0.638080 -0.658769
O35   O     O_R   0.562020 0.427160 0.007170 -0.639442
O36   O     O_R   0.947860 0.073950 0.109290 -0.548230
O37   O     O_R   0.052140 0.926050 0.890710 -0.548229
O38   O     O_R   0.052140 0.073950 0.890710 -0.548230
O39   O     O_R   0.947860 0.926050 0.109290 -0.548230
O40   O     O_R   0.447860 0.573950 0.109290 -0.548230
O41   O     O_R   0.552140 0.426050 0.890710 -0.548230
O42   O     O_R   0.552140 0.573950 0.890710 -0.548228
O43   O     O_R   0.447860 0.426050 0.109290 -0.548230
O44   O     O_R   0.246490 0.736330 0.638080 -0.658769
O45   O     O_R   0.753510 0.263670 0.361920 -0.658769
O46   O     O_R   0.753510 0.736330 0.361920 -0.658769
O47   O     O_R   0.246490 0.263670 0.638080 -0.658769
O48   O     O_R   0.674170 0.186160 0.516270 -0.654627
Zn1   Zn    Zn3+2 0.792340 0.208750 0.507670 0.975438
Zn2   Zn    Zn3+2 0.494040 0.500000 0.919480 1.018496
Zn3   Zn    Zn3+2 0.005960 0.000000 0.080520 1.018495
Zn4   Zn    Zn3+2 0.994040 0.000000 0.919480 1.018495
Zn5   Zn    Zn3+2 0.207660 0.791250 0.492330 0.975439
Zn6   Zn    Zn3+2 0.207660 0.208750 0.492330 0.975438
Zn7   Zn    Zn3+2 0.792340 0.791250 0.507670 0.975438
Zn8   Zn    Zn3+2 0.292340 0.708750 0.507670 0.975438
Zn9   Zn    Zn3+2 0.707660 0.291250 0.492330 0.975438
Zn10  Zn    Zn3+2 0.707660 0.708750 0.492330 0.975439
Zn11  Zn    Zn3+2 0.292340 0.291250 0.507670 0.975438
Zn12  Zn    Zn3+2 0.505960 0.500000 0.080520 1.018495

loop_
_geom_bond_atom_site_label_1
_geom_bond_atom_site_label_2
_ccdc_geom_bond_type
O32   Zn2   S    
C108  C120  A    
O17   Zn11  S    
O5    Zn5   S    
C88   C177  S    
O13   Zn7   S    
C60   H45   S    
O14   Zn8   S    
C50   C59   A    
C79   H44   S    
C41   C143  S    
C52   C61   A    
C180  O16   A    
C12   C126  A    
C54   C63   A    
C40   O28   A    
C58   C60   A    
C43   O42   A    
C45   C139  S    
C61   C63   A    
C103  C126  A    
C95   C175  S    
C62   C64   A    
C131  C140  A    
C91   C96   A    
C179  O6    A    
C179  O15   A    
C50   C90   A    
C162  C171  A    
C170  C187  A    
C70   C74   A    
C4    C12   A    
C147  C155  A    
C24   C85   A    
C112  O20   A    
O8    Zn6   S    
C88   C97   A    
C119  C128  A    
C39   O38   A    
C49   C69   A    
O26   Zn6   S    
O27   Zn3   S    
C109  C118  A    
C173  O48   A    
C11   C20   A    
C150  C159  A    
C165  C183  A    
C137  C146  A    
C166  C184  A    
O15   Zn9   S    
C86   C90   A    
C38   H39   S    
C71   C73   A    
C106  C127  A    
C123  O34   A    
C82   C91   A    
C51   C66   A    
C89   C181  S    
C142  C151  A    
C173  O9    A    
C52   C72   A    
C131  C184  A    
C105  C114  A    
C54   C70   A    
C82   C178  A    
C61   H34   S    
C36   C117  A    
C7    C132  A    
C112  C158  S    
C38   C119  A    
C5    C130  A    
C63   H12   S    
C102  H48   S    
C47   O41   A    
C79   C85   A    
C66   C77   A    
C40   O39   A    
C57   C78   A    
O33   Zn2   S    
C176  O4    A    
O46   Zn10  S    
O36   Zn3   S    
C8    C17   A    
C56   C59   A    
C152  F6    S    
C106  C115  A    
C62   H23   S    
C6    H7    S    
C80   C88   A    
O6    Zn1   S    
C4    H5    S    
C145  C161  S    
O2    Zn8   S    
C93   C173  S    
C84   C93   A    
C105  C184  A    
O7    Zn7   S    
C8    H9    S    
C86   C95   A    
C24   C77   A    
C104  C183  A    
C43   O31   A    
O3    Zn11  S    
O43   Zn12  S    
C2    C81   A    
C55   C71   A    
C2    C75   A    
C78   C87   A    
C134  C160  S    
C84   C102  A    
C20   H21   S    
C67   C77   A    
C133  C142  A    
C45   O40   A    
C123  C159  S    
C14   H15   S    
C130  C183  A    
C1    O1    A    
C3    C110  A    
C69   C76   A    
C85   C94   A    
O40   Zn12  S    
C46   C82   A    
C29   C38   A    
C149  C158  A    
C20   C122  A    
C152  C161  A    
C135  C143  A    
C48   C67   A    
C31   H32   S    
C136  C188  A    
C29   H30   S    
C72   C75   A    
C112  O23   A    
C135  C187  A    
C180  O7    A    
C141  C150  A    
O22   Zn5   S    
C25   C168  A    
C148  F2    S    
C139  C148  A    
C149  F3    S    
C104  C125  A    
C157  C165  A    
C92   C174  S    
C15   H16   S    
C181  O8    A    
C175  O3    A    
C91   C180  S    
C25   H26   S    
C47   O35   A    
C9    C135  A    
C116  C125  A    
C90   H46   S    
O37   Zn4   S    
C118  C127  A    
C17   H18   S    
O20   Zn11  S    
O35   Zn12  S    
C117  C126  A    
C39   O27   A    
C132  C141  A    
C108  C117  A    
C28   H29   S    
C174  O10   A    
C134  O22   A    
C44   O32   A    
C28   C37   A    
C147  F1    S    
C47   C138  S    
C148  C157  A    
C16   C127  A    
C51   C79   A    
C107  C116  A    
C41   O29   A    
C104  C113  A    
C9    C18   A    
C113  C121  A    
C132  C185  A    
C51   C60   A    
C33   H35   S    
C140  C149  A    
C31   C113  A    
C25   C33   A    
O47   Zn11  S    
C129  C182  A    
C44   O43   A    
C73   C74   A    
O42   Zn2   S    
C41   O36   A    
C107  C186  A    
C65   C76   A    
O39   Zn3   S    
C171  C188  A    
C145  O24   A    
C134  O44   A    
C169  C186  A    
C9    H10   S    
C42   O30   A    
C3    C172  A    
O48   Zn9   S    
C103  C111  A    
C46   H41   S    
C1    O18   A    
C23   H25   S    
C65   C67   A    
C160  C169  A    
C3    C137  A    
C93   C99   A    
C81   C89   A    
C123  O21   A    
C8    C133  A    
C101  C157  S    
C44   C140  S    
C21   C164  A    
C64   H1    S    
O19   Zn8   S    
C130  C139  A    
C167  O26   A    
O28   Zn4   S    
O12   Zn5   S    
C56   H51   S    
C33   C115  A    
C58   H50   S    
C53   C57   A    
C110  C119  A    
C177  O14   A    
C7    H8    S    
O29   Zn4   S    
O30   Zn3   S    
C153  F7    S    
C10   C19   A    
C48   C102  A    
C46   C54   A    
C59   H49   S    
C27   C170  A    
C5    C14   A    
O34   Zn7   S    
C181  O17   A    
C98   H3    S    
C17   C121  A    
C143  C152  A    
C15   C128  A    
C43   C141  S    
C107  C121  A    
O16   Zn10  S    
C158  C166  A    
C22   H24   S    
C32   H33   S    
C115  C124  A    
C78   C178  A    
C30   H31   S    
C34   H36   S    
C106  C185  A    
C6    C131  A    
C68   H43   S    
C4    C129  A    
C27   C36   A    
C21   C30   A    
C13   C83   A    
O11   Zn6   S    
O4    Zn10  S    
C156  O46   A    
C153  C162  A    
C23   C32   A    
C151  F5    S    
C11   C137  A    
C12   H14   S    
C136  C144  A    
C110  C122  A    
O31   Zn12  S    
C39   C146  S    
C42   O37   A    
C164  C182  A    
O21   Zn10  S    
C176  O13   A    
C26   H27   S    
O23   Zn6   S    
O18   Zn9   S    
C96   H52   S    
C94   C176  S    
C68   C80   A    
O1    Zn1   S    
C74   C178  A    
C103  C182  A    
C108  C187  A    
C18   H19   S    
C35   C81   A    
C95   C98   A    
C92   C98   A    
C37   H38   S    
C83   C92   A    
C27   H28   S    
C14   C125  A    
O41   Zn2   S    
C10   C136  A    
C66   C69   A    
C34   C116  A    
C101  O12   A    
C159  C168  A    
C19   H20   S    
C144  C153  A    
C1    C155  S    
C6    C15   A    
C22   C165  A    
C26   C34   A    
C129  C138  A    
C26   C169  A    
C146  C154  A    
C13   C86   A    
C42   C142  S    
C57   H42   S    
C52   C68   A    
C154  F8    S    
C101  O19   A    
C156  C162  S    
O38   Zn4   S    
C50   C65   A    
C109  C188  A    
C167  O47   A    
C19   C124  A    
C45   O33   A    
C22   C31   A    
C37   C118  A    
C35   C55   A    
C154  C163  A    
C5    H6    S    
C174  O2    A    
C36   H37   S    
C87   C179  S    
C49   C58   A    
C89   C97   A    
C111  C120  A    
C99   H4    S    
C163  C167  S    
C10   H11   S    
C163  C172  A    
C23   C166  A    
O45   Zn9   S    
C53   C62   A    
C28   C171  A    
C13   C76   A    
C138  C147  A    
C87   C96   A    
C156  O25   A    
C100  H47   S    
C133  C186  A    
C161  C170  A    
C21   H22   S    
C40   C144  S    
C18   C120  A    
O9    Zn1   S    
C48   C56   A    
C7    C16   A    
C168  C185  A    
C105  C128  A    
O10   Zn5   S    
C97   H2    S    
C53   C73   A    
O25   Zn7   S    
C109  C124  A    
C55   C64   A    
C155  C164  A    
C177  O5    A    
C30   C111  A    
C83   C100  A    
C151  C160  A    
C24   C84   A    
C145  O45   A    
C11   H13   S    
C49   C100  A    
C71   C75   A    
C94   C99   A    
O44   Zn8   S    
C29   C172  A    
C16   H17   S    
C2    C80   A    
C150  F4    S    
C114  C122  A    
C70   C72   A    
C35   H40   S    
C32   C114  A    
O24   Zn1   S    
C175  O11   A    
