data_str_m12_o9_o11_f0_bcu.sym.72
_audit_creation_date              2013-03-05T15:57:37-0500
_audit_creation_method            fapswitch 2.2
_symmetry_space_group_name_H-M    P1
_symmetry_Int_Tables_number       1
_space_group_crystal_system       triclinic
_cell_length_a                    14.959901
_cell_length_b                    15.096576
_cell_length_c                    14.960709
_cell_angle_alpha                 108.746541
_cell_angle_beta                  109.979314
_cell_angle_gamma                 109.196434
_cell_volume                      2616.40328009

loop_
_atom_site_label
_atom_site_type_symbol
_atom_site_description
_atom_site_fract_x
_atom_site_fract_y
_atom_site_fract_z
_atom_type_partial_charge
C1    C     C_R   0.907110 0.967316 0.721700 -0.093758
H1    H     H_    0.823403 0.924087 0.700678 0.142382
N1    N     N_R   0.941940 0.944580 0.650780 -0.051732
C2    C     C_R   0.087034 0.312785 0.558290 -0.127397
H2    H     H_    0.168435 0.379656 0.598524 0.102818
N2    N     N_R   0.056800 0.208900 0.502740 -0.044253
C3    C     C_R   0.293548 0.217437 0.806915 -0.142308
H3    H     H_    0.324318 0.195856 0.868466 0.122359
N3    N     N_R   0.204460 0.150250 0.707090 -0.045680
C4    C     C_R   0.692793 0.987571 0.398851 -0.144691
H4    H     H_    0.664909 0.008300 0.336047 0.097741
N4    N     N_R   0.794270 0.003240 0.446420 -0.040128
C5    C     C_R   0.288192 0.306459 0.713460 -0.125063
H5    H     H_    0.312400 0.364347 0.686843 0.088317
N5    N     N_R   0.204920 0.207570 0.650770 -0.041114
C6    C     C_R   0.697199 0.903285 0.495806 -0.072924
H6    H     H_    0.677476 0.850562 0.528267 0.119789
N6    N     N_R   0.793810 0.945920 0.502740 -0.042819
C7    C     C_R   0.906454 0.215945 0.483236 -0.131370
H7    H     H_    0.821723 0.191429 0.458780 0.124378
N7    N     N_R   0.943620 0.152590 0.446420 -0.050239
C8    C     C_R   0.087028 0.069770 0.808494 -0.144725
H8    H     H_    0.166574 0.135503 0.862954 0.136088
N8    N     N_R   0.055110 0.000900 0.707100 -0.044145
C9    C     C_R   0.997227 0.051243 0.822695 0.088916
C10   C     C_R   0.992237 0.318064 0.544461 0.092490
C11   C     C_R   0.341008 0.316963 0.813915 0.142596
C12   C     C_R   0.628574 0.922363 0.425833 0.072085
C13   C     C_R   0.700334 0.700756 0.289336 -0.104505
H9    H     H_    0.670641 0.646956 0.318371 0.130630
N9    N     N_R   0.795080 0.792430 0.349230 -0.047492
C14   C     C_R   0.254429 0.034159 0.440316 -0.133471
H10   H     H_    0.258445 0.067724 0.388415 0.142439
N10   N     N_R   0.206190 0.054080 0.497260 -0.045088
C15   C     C_R   0.093398 0.784609 0.577712 -0.138787
H11   H     H_    0.177578 0.809913 0.630684 0.105397
N11   N     N_R   0.056380 0.847410 0.553580 -0.042525
C16   C     C_R   0.905283 0.000551 0.199514 -0.133298
H12   H     H_    0.820548 0.975388 0.152700 0.103460
N12   N     N_R   0.944890 0.999100 0.292900 -0.040783
C17   C     C_R   0.085849 0.094570 0.287776 -0.144296
H13   H     H_    0.167597 0.155862 0.318668 0.105536
N13   N     N_R   0.058060 0.055420 0.349220 -0.042119
C18   C     C_R   0.909980 0.694051 0.487580 -0.125626
H14   H     H_    0.826436 0.636559 0.457764 0.124059
N14   N     N_R   0.943200 0.791100 0.497260 -0.043175
C19   C     C_R   0.702797 0.792804 0.198310 -0.123445
H15   H     H_    0.676504 0.823917 0.144632 0.094199
N15   N     N_R   0.795540 0.849750 0.292910 -0.046073
C20   C     C_R   0.258870 0.943644 0.532908 -0.099684
H16   H     H_    0.274916 0.894945 0.568378 0.091673
N16   N     N_R   0.205730 0.996760 0.553580 -0.041902
Ni1   Ni    Ni4+2 0.869690 0.869690 0.500000 0.216326
Ni2   Ni    Ni4+2 0.130310 0.130310 0.500000 0.216757
Ni3   Ni    Ni4+2 0.129250 0.998840 0.629170 0.229401
Ni4   Ni    Ni4+2 0.870750 0.001160 0.370830 0.204961
C21   C     C_R   0.641368 0.699698 0.194936 0.143846
C22   C     C_R   0.289158 0.963824 0.459413 0.058921
C23   C     C_R   0.003054 0.687954 0.535180 0.097268
C24   C     C_R   0.991002 0.061008 0.191919 0.074497
C25   C     C_R   0.528103 0.610541 0.431466 -0.167628
H17   H     H_    0.542530 0.553592 0.381126 0.146652
C26   C     C_R   0.492804 0.673379 0.394190 -0.249961
H18   H     H_    0.480725 0.664494 0.315534 0.133208
C27   C     C_R   0.479183 0.751720 0.460934 0.115170
C28   C     C_R   0.496060 0.762222 0.563090 -0.181501
H19   H     H_    0.487020 0.822547 0.616501 0.154374
C29   C     C_R   0.529308 0.697940 0.599146 -0.150555
H20   H     H_    0.543377 0.708140 0.678560 0.143838
C30   C     C_R   0.547160 0.622954 0.534385 0.393673
C31   C     C_R   0.371255 0.845050 0.437918 -0.225774
H21   H     H_    0.329154 0.804473 0.470921 0.119563
C32   C     C_R   0.349971 0.921493 0.414963 0.071755
C33   C     C_R   0.394291 0.959558 0.356296 0.033617
C34   C     C_R   0.465642 0.930674 0.334008 -0.232561
H22   H     H_    0.499242 0.963289 0.291090 0.123616
C35   C     C_R   0.511090 0.883248 0.387312 0.049153
C36   C     C_R   0.453574 0.826498 0.426911 0.066316
C37   C     C_R   0.297507 0.014650 0.234493 -0.198538
H23   H     H_    0.238501 0.930925 0.175259 0.131891
C38   C     C_R   0.280985 0.094623 0.217943 -0.147046
H24   H     H_    0.208049 0.070522 0.146646 0.133161
C39   C     C_R   0.355123 0.203358 0.295093 -0.090058
H25   H     H_    0.342641 0.265708 0.282065 0.130897
C40   C     C_R   0.445267 0.231831 0.390389 -0.152790
H26   H     H_    0.502444 0.315487 0.450141 0.132698
C41   C     C_R   0.460611 0.151791 0.408978 -0.156765
H27   H     H_    0.529112 0.173978 0.484230 0.137183
C42   C     C_R   0.385002 0.043127 0.331901 0.111468
H28   H     H_    0.536435 0.038595 0.147746 0.099036
C43   C     C_R   0.710688 0.120648 0.214059 -0.087366
H29   H     H_    0.710875 0.050288 0.165996 0.099930
C44   C     C_R   0.808607 0.218190 0.285328 -0.081744
H30   H     H_    0.883906 0.223105 0.289378 0.129453
C45   C     C_R   0.810468 0.304976 0.359639 0.116596
C46   C     C_R   0.711154 0.297399 0.350436 -0.083463
H31   H     H_    0.710412 0.364501 0.404941 0.121940
C47   C     C_R   0.612444 0.202722 0.271671 -0.073817
H32   H     H_    0.536151 0.197673 0.263256 0.144672
C48   C     C_R   0.612399 0.113429 0.205348 -0.124129
C49   C     C_R   0.938187 0.497297 0.444474 0.181120
C50   C     C_R   0.002966 0.595544 0.541933 -0.046016
C51   C     C_R   0.057390 0.602462 0.643911 -0.077077
C52   C     C_R   0.048731 0.508452 0.647301 0.230626
C53   C     C_R   0.979357 0.409810 0.549644 -0.025594
C54   C     C_R   0.914658 0.403611 0.450421 -0.066949
C55   C     C_R   0.236280 0.755001 0.805357 -0.165512
H33   H     H_    0.278124 0.719777 0.772803 0.104136
C56   C     C_R   0.296564 0.847581 0.907100 -0.104683
H34   H     H_    0.384312 0.883318 0.953425 0.099785
C57   C     C_R   0.243409 0.893108 0.950243 -0.112629
H35   H     H_    0.290865 0.964068 0.029565 0.112548
C58   C     C_R   0.129651 0.846773 0.891341 -0.120250
H36   H     H_    0.088558 0.882310 0.924938 0.107279
C59   C     C_R   0.068800 0.753440 0.789839 -0.131726
H37   H     H_    0.980544 0.716731 0.745736 0.110464
C60   C     C_R   0.121878 0.706422 0.746875 0.171393
C61   C     C_2   0.411967 0.506620 0.917204 -0.131056
C62   C     C_2   0.419691 0.418661 0.910951 -0.163599
H38   H     H_    0.352301 0.504068 0.848540 0.123051
H39   H     H_    0.480098 0.420209 0.978083 0.183362
C63   C     C_2   0.489161 0.610699 0.013534 -0.119672
C64   C     C_2   0.532607 0.616129 0.110187 -0.188547
H40   H     H_    0.519437 0.679303 0.001647 0.122362
H41   H     H_    0.497181 0.547849 0.120203 0.160762
C65   C     C_R   0.378115 0.223539 0.082402 -0.160496
H42   H     H_    0.422700 0.180914 0.072051 0.158032
C66   C     C_R   0.266408 0.166117 0.043535 -0.285803
H43   H     H_    0.225326 0.079512 0.002857 0.139340
C67   C     C_R   0.206500 0.219662 0.054427 0.141079
C68   C     C_R   0.261253 0.332197 0.108437 -0.159200
H44   H     H_    0.217731 0.375287 0.122194 0.144706
C69   C     C_R   0.373651 0.389706 0.150076 -0.229075
H45   H     H_    0.414847 0.476114 0.194912 0.131719
C70   C     C_R   0.432162 0.335569 0.136681 0.371529
C71   C     C_R   0.082874 0.162069 0.119959 -0.245879
H46   H     H_    0.155729 0.208688 0.198955 0.130690
C72   C     C_R   0.984227 0.092870 0.105782 0.029176
C73   C     C_R   0.886949 0.053617 0.007123 -0.019886
C74   C     C_R   0.896674 0.071046 0.923051 0.305867
C75   C     C_R   0.997647 0.101611 0.926321 -0.042065
C76   C     C_R   0.093271 0.160620 0.030631 0.003609
C77   C     C_R   0.738512 0.873158 0.941987 -0.187401
H47   H     H_    0.793769 0.841888 0.939535 0.131108
C78   C     C_R   0.630653 0.802809 0.907332 -0.130698
H48   H     H_    0.603317 0.718148 0.879426 0.124799
C79   C     C_R   0.557472 0.841177 0.906470 -0.191375
H49   H     H_    0.473765 0.786115 0.878490 0.120534
C80   C     C_R   0.592029 0.950104 0.940553 -0.192091
H50   H     H_    0.534565 0.979154 0.938154 0.147661
C81   C     C_R   0.700746 0.021965 0.978281 0.409974
C82   C     C_R   0.775347 0.983598 0.980449 0.015912
C83   C     C_3   0.588150 0.558357 0.576509 -1.090802
H51   H     H_    0.603549 0.506635 0.518606 0.254232
H52   H     H_    0.666102 0.613291 0.655295 0.258912
H53   H     H_    0.526875 0.506546 0.589282 0.256086
C84   C     C_3   0.895311 0.491824 0.333794 -0.824612
H54   H     H_    0.819791 0.497671 0.311583 0.279267
H55   H     H_    0.957685 0.557851 0.334812 0.233715
H56   H     H_    0.877047 0.415729 0.268880 0.271419
C85   C     C_3   0.108406 0.513145 0.755258 -0.960340
H57   H     H_    0.091946 0.559204 0.816162 0.258713
H58   H     H_    0.082031 0.432702 0.749301 0.256180
H59   H     H_    0.197649 0.552568 0.785886 0.233109
Br1   Br    Br    0.585822 0.413104 0.194619 -0.691043
Br2   Br    Br    0.774199 0.057446 0.806407 -0.548949
Br3   Br    Br    0.743254 0.171095 0.024613 -0.512109

loop_
_geom_bond_atom_site_label_1
_geom_bond_atom_site_label_2
_geom_bond_distance
_ccdc_geom_bond_type
C25   C30   1.402366 A    
C6    C12   1.373552 A    
C28   C29   1.396653 A    
C41   H27   1.083194 S    
C26   C27   1.405621 A    
C44   H30   1.083333 S    
C30   C83   1.499473 S    
C55   C56   1.396154 A    
C17   H13   1.077087 S    
C45   C46   1.406327 A    
C14   C22   1.391160 A    
C66   H43   1.077979 S    
C78   H48   1.082436 S    
C80   H50   1.081467 S    
C3    H3    1.080643 S    
C19   N15   1.326186 A    
C35   C36   1.419544 A    
N8    Ni3   1.863725 S    
C49   C50   1.401451 A    
C33   C42   1.456283 S    
C15   N11   1.328352 A    
N9    N15   1.388346 A    
C80   C81   1.399806 A    
C61   C63   1.446827 S    
C16   H12   1.071131 S    
C64   H41   1.077099 S    
C21   C64   1.434832 S    
C18   C23   1.379545 A    
C77   H47   1.083398 S    
C73   C82   1.475484 S    
C3    C11   1.385312 A    
C15   C23   1.370895 A    
C1    H1    1.074451 S    
C32   C33   1.418266 A    
C25   C26   1.399290 A    
C7    C10   1.360376 A    
C61   C62   1.346786 D    
C71   C76   1.391456 A    
N6    Ni1   1.864184 S    
C38   C39   1.402504 A    
N12   N13   1.384643 A    
C79   H49   1.080709 S    
C29   H20   1.081565 S    
N12   Ni4   1.863725 S    
C8    C9    1.383569 A    
C46   C47   1.397279 A    
C19   H15   1.080895 S    
C20   N16   1.341059 A    
C81   C82   1.412246 A    
N3    Ni3   1.883971 S    
C43   C48   1.394796 A    
C83   H52   1.110587 S    
C25   H17   1.081582 S    
N16   Ni3   1.863842 S    
C40   C41   1.394593 A    
C28   H19   1.083185 S    
C49   C84   1.520362 S    
C44   C45   1.404245 A    
C5    H5    1.080538 S    
C1    C9    1.400001 A    
C17   N13   1.347570 A    
N1    N8    1.384641 A    
C51   C60   1.483764 S    
N2    Ni2   1.864463 S    
C10   C53   1.441583 S    
H28   C48   1.082168 S    
C52   C53   1.406516 A    
C85   H58   1.108929 S    
C18   N14   1.322916 A    
C85   H57   1.110426 S    
C62   H39   1.084754 S    
C74   Br2   1.944686 S    
C79   C80   1.397593 A    
C33   C34   1.377149 A    
C78   C79   1.395133 A    
C20   C22   1.404308 A    
N5    Ni2   1.851067 S    
C74   C75   1.404879 A    
C2    N2    1.339298 A    
C72   C73   1.431928 A    
C52   C85   1.519913 S    
C31   C32   1.404549 A    
C2    H2    1.079093 S    
C59   C60   1.404864 A    
C40   H26   1.080349 S    
N2    N7    1.384760 A    
C38   H24   1.074622 S    
C37   H23   1.083452 S    
C84   H54   1.105664 S    
C1    N1    1.332818 A    
C15   H11   1.080246 S    
C14   N10   1.317252 A    
C34   H22   1.080896 S    
C13   H9    1.080290 S    
C45   C54   1.489467 S    
C43   C44   1.398577 A    
N13   Ni2   1.850938 S    
C39   H25   1.080506 S    
C5    N5    1.318643 A    
C55   H33   1.082866 S    
C46   H31   1.083453 S    
C20   H16   1.076792 S    
C70   Br1   1.903262 S    
C57   C58   1.399337 A    
C6    N6    1.325437 A    
N9    Ni1   1.851070 S    
C83   H53   1.110343 S    
C12   C35   1.475261 S    
C34   C35   1.388323 A    
N4    Ni4   1.863842 S    
C4    N4    1.335800 A    
C16   C24   1.373652 A    
C29   C30   1.400777 A    
C77   C82   1.406075 A    
C39   C40   1.395346 A    
C13   C21   1.377633 A    
C65   C70   1.393858 A    
N10   Ni2   1.864185 S    
C84   H56   1.110238 S    
C47   C48   1.393161 A    
C41   C42   1.404548 A    
C69   H45   1.076012 S    
C8    N8    1.332237 A    
C63   H40   1.083663 S    
C68   H44   1.083270 S    
C43   H29   1.075986 S    
C85   H59   1.109382 S    
C18   H14   1.082198 S    
C71   C72   1.394278 A    
C37   C38   1.388008 A    
C58   H36   1.083091 S    
C4    C12   1.397670 A    
C49   C54   1.380970 A    
C77   C78   1.395617 A    
C65   C66   1.393393 A    
C27   C36   1.483497 S    
C57   H35   1.080232 S    
C7    N7    1.321988 A    
C23   C50   1.430354 S    
C9    C75   1.488023 S    
C17   C24   1.412898 A    
C71   H46   1.077331 S    
C68   C69   1.394892 A    
C66   C67   1.405258 A    
N7    Ni4   1.884246 S    
C2    C10   1.394539 A    
C73   C74   1.408891 A    
C11   C62   1.435764 S    
N15   Ni4   1.883971 S    
C53   C54   1.420732 A    
N10   N16   1.388346 A    
C14   H10   1.062088 S    
C7    H7    1.079397 S    
C56   C57   1.395114 A    
C67   C68   1.400106 A    
C63   C64   1.329144 D    
C31   H21   1.081159 S    
C13   N9    1.331268 A    
C75   C76   1.420614 A    
C16   N12   1.328913 A    
N1    Ni1   1.850937 S    
C6    H6    1.071605 S    
C65   H42   1.082456 S    
C81   Br3   1.925528 S    
N14   Ni1   1.864462 S    
C27   C28   1.406736 A    
N3    N5    1.388348 A    
C50   C51   1.412186 A    
C67   C76   1.477012 S    
C61   H38   1.085741 S    
C37   C42   1.394829 A    
C4    H4    1.077861 S    
C26   H18   1.082907 S    
N11   Ni3   1.884246 S    
C3    N3    1.346336 A    
C84   H55   1.110577 S    
C47   H32   1.078301 S    
N4    N6    1.388346 A    
C51   C52   1.401218 A    
C69   C70   1.399761 A    
C8    H8    1.051601 S    
C5    C11   1.364193 A    
C58   C59   1.398760 A    
N11   N14   1.384762 A    
C56   H34   1.080185 S    
C19   C21   1.376942 A    
C55   C60   1.404034 A    
C31   C36   1.399236 A    
C59   H37   1.083581 S    
C22   C32   1.483551 S    
C24   C72   1.497835 S    
C83   H51   1.110432 S    
