data_str_m3_o10_o28_f0_pcu.sym.108
_audit_creation_date              2012-12-10T16:58:23-0500
_audit_creation_method            fapswitch 2.2
_symmetry_space_group_name_H-M    P1
_symmetry_Int_Tables_number       1
_space_group_crystal_system       triclinic
_cell_length_a                    7.734159
_cell_length_b                    8.564462
_cell_length_c                    23.452741
_cell_angle_alpha                 90.937877
_cell_angle_beta                  86.210278
_cell_angle_gamma                 93.82036
_cell_volume                      1546.53087586

loop_
_atom_site_label
_atom_site_type_symbol
_atom_type_description
_atom_site_fract_x
_atom_site_fract_y
_atom_site_fract_z
_atom_type_partial_charge
C1    C     C_R   0.546014 0.794889 0.498504 0.962978
C2    C     C_R   0.332578 0.450809 0.300531 0.421530
C3    C     C_R   0.669032 0.536638 0.758425 -0.089999
C4    C     C_R   0.330984 0.463418 0.241571 -0.089978
C5    C     C_R   0.515827 0.495821 0.791235 0.203758
C6    C     C_R   0.484203 0.504206 0.208764 0.203770
C7    C     C_2   0.570267 0.958417 0.497656 -0.365483
C8    C     C_2   0.429733 0.041583 0.502344 -0.365482
C9    C     C_R   0.503773 0.504226 0.610584 0.872382
C10   C     C_R   0.496228 0.495776 0.389416 0.872389
C11   C     C_R   0.445528 0.367326 0.119838 0.527215
C12   C     C_R   0.453986 0.205111 0.501496 0.962983
C13   C     C_R   0.554511 0.632704 0.880161 0.527359
C14   C     C_R   0.526978 0.641601 0.119732 0.537928
C15   C     C_R   0.473085 0.358425 0.880268 0.537814
C16   C     C_R   0.537230 0.643430 0.059724 -0.119370
C17   C     C_R   0.462843 0.356597 0.940275 -0.119457
C18   C     C_R   0.496224 0.501875 0.030038 -0.087503
C19   C     C_R   0.503851 0.498152 0.969961 -0.087495
C20   C     C_R   0.448436 0.363543 0.060356 -0.075883
C21   C     C_R   0.551632 0.636483 0.939642 -0.075844
C22   C     C_R   0.589571 0.780767 0.028731 0.479819
C23   C     C_R   0.360329 0.462434 0.765148 -0.103410
C24   C     C_R   0.410513 0.219261 0.971270 0.479552
C25   C     C_R   0.593029 0.776146 0.969051 -0.254514
C26   C     C_R   0.407052 0.223879 0.030948 -0.254353
C27   C     C_3   0.802912 0.969877 0.046516 0.095197
C28   C     C_3   0.849555 0.105517 0.086544 -0.710257
C29   C     C_3   0.197056 0.030413 0.953369 0.095715
C30   C     C_3   0.150640 0.894320 0.913511 -0.710623
C31   C     C_R   0.639702 0.537557 0.234854 -0.103405
C32   C     C_R   0.358113 0.467210 0.706218 -0.232170
C33   C     C_R   0.641908 0.532772 0.293784 -0.232158
C34   C     C_R   0.510883 0.508836 0.672691 -0.170552
C35   C     C_R   0.489123 0.491177 0.327309 -0.170560
C36   C     C_R   0.667424 0.549242 0.699466 0.421536
H1    H     H_    0.627571 0.883010 0.945782 0.230895
H2    H     H_    0.297142 0.990190 0.506808 0.182317
H3    H     H_    0.013904 0.382562 0.457138 0.201957
H4    H     H_    0.986095 0.617438 0.542862 0.201967
H5    H     H_    0.829255 0.011314 0.001932 0.116281
H6    H     H_    0.887883 0.873273 0.054460 0.131454
H7    H     H_    0.822246 0.069447 0.131687 0.290667
H8    H     H_    0.989735 0.142207 0.079567 0.182387
H9    H     H_    0.772563 0.206525 0.078127 0.246536
H10   H     H_    0.112355 0.127012 0.945155 0.131663
H11   H     H_    0.170191 0.989549 0.998004 0.115939
H12   H     H_    0.372495 0.117009 0.054212 0.230961
H13   H     H_    0.227225 0.793285 0.922244 0.246271
H14   H     H_    0.010334 0.857957 0.920341 0.182520
H15   H     H_    0.178637 0.929742 0.868325 0.290831
H16   H     H_    0.787592 0.671651 0.638904 0.333347
H17   H     H_    0.212370 0.328405 0.361086 0.333351
H18   H     H_    0.241231 0.432488 0.790675 0.156924
H19   H     H_    0.758812 0.567479 0.209328 0.156927
H20   H     H_    0.236761 0.436918 0.686879 0.203997
H21   H     H_    0.763264 0.563033 0.313124 0.204017
H22   H     H_    0.788461 0.564840 0.779181 0.162103
H23   H     H_    0.211554 0.435242 0.220812 0.162102
H24   H     H_    0.702858 0.009810 0.493192 0.182317
N1    N     N_R   0.483826 0.504805 0.148013 -0.355851
N2    N     N_R   0.516216 0.495223 0.851985 -0.355833
N3    N     N_2   0.950330 0.457950 0.484560 -0.162546
N4    N     N_2   0.049670 0.542050 0.515440 -0.162545
O1    O     O_R   0.389250 0.738570 0.503790 -0.609949
O2    O     O_2   0.592925 0.765791 0.850524 -0.527230
O3    O     O_2   0.559247 0.774588 0.149958 -0.483663
O4    O     O_2   0.440825 0.225433 0.850043 -0.483743
O5    O     O_3   0.625492 0.921685 0.056813 -0.554129
O6    O     O_3   0.374592 0.078333 0.943199 -0.554216
O7    O     O_3   0.818877 0.604958 0.670237 -0.759406
O8    O     O_3   0.181108 0.395122 0.329757 -0.759409
O9    O     O_R   0.610750 0.261430 0.496210 -0.609951
O10   O     O_R   0.678390 0.711620 0.493890 -0.635110
O11   O     O_R   0.321610 0.288380 0.506110 -0.635110
O12   O     O_R   0.355400 0.513520 0.588790 -0.604453
O13   O     O_R   0.644600 0.486480 0.411210 -0.604456
O14   O     O_R   0.644550 0.486570 0.578900 -0.611305
O15   O     O_R   0.355450 0.513430 0.421100 -0.611303
O16   O     O_2   0.407083 0.234243 0.149475 -0.527186
Zn1   Zn    Zn3+2 0.306930 0.518000 0.506610 0.973117
Zn2   Zn    Zn3+2 0.693070 0.482000 0.493390 0.973115

loop_
_geom_bond_atom_site_label_1
_geom_bond_atom_site_label_2
_ccdc_geom_bond_type
C2    C35   A    
C30   H15   S    
C7    H24   S    
C24   O6    S    
C7    C8    D    
C29   H11   S    
C1    O10   A    
C3    C36   A    
C6    N1    S    
C19   C21   A    
C24   C26   A    
C18   C19   A    
O14   Zn2   S    
C17   C19   A    
C13   N2    A    
C22   C25   A    
C1    O1    A    
C14   O3    S    
C31   C33   A    
C10   C35   S    
C9    O12   A    
C22   O5    S    
C34   C36   A    
C27   O5    S    
C36   O7    S    
C26   H12   S    
C25   H1    S    
C6    C31   A    
C30   H14   S    
C12   O9    A    
C8    H2    S    
O10   Zn2   S    
C2    O8    S    
C10   O13   A    
C13   O2    S    
C28   H9    S    
C11   C20   A    
C17   C24   A    
N3    Zn2   S    
C4    C6    A    
O15   Zn1   S    
O11   Zn1   S    
C3    C5    A    
C14   N1    A    
C28   H8    S    
C16   C22   A    
C32   C34   A    
C2    C4    A    
C29   C30   S    
C27   H5    S    
O1    Zn1   S    
C5    C23   A    
C8    C12   S    
C13   C21   A    
C30   H13   S    
C9    C34   S    
C14   C16   A    
O9    Zn2   S    
C23   H18   S    
C29   O6    S    
C15   C17   A    
C21   C25   A    
C33   H21   S    
C1    C7    S    
C11   N1    A    
O12   Zn1   S    
C10   O15   A    
H3    N3    S    
C28   H7    S    
H4    N4    S    
C29   H10   S    
C23   C32   A    
H16   O7    S    
C27   H6    S    
C20   C26   A    
O13   Zn2   S    
C15   O4    S    
C4    H23   S    
C33   C35   A    
C15   N2    A    
C5    N2    S    
C18   C20   A    
C9    O14   A    
N4    Zn1   S    
C11   O16   S    
N3    N4    D    
C3    H22   S    
C16   C18   A    
C12   O11   A    
C27   C28   S    
C31   H19   S    
H17   O8    S    
C32   H20   S    
