data_str_m2_o1_o14_f0_pcu.sym.54
_audit_creation_date              2012-10-26T21:00:43-0400
_audit_creation_method            fapswitch 2.2
_symmetry_space_group_name_H-M    P1
_symmetry_Int_Tables_number       1
_space_group_crystal_system       triclinic
_cell_length_a                    10.82606
_cell_length_b                    9.553173
_cell_length_c                    10.93011
_cell_angle_alpha                 89.99996
_cell_angle_beta                  89.485597
_cell_angle_gamma                 89.999989
_cell_volume                      1130.38165713

loop_
_atom_site_label
_atom_site_type_symbol
_atom_type_description
_atom_site_fract_x
_atom_site_fract_y
_atom_site_fract_z
_atom_type_partial_charge
C1    C     C_R   0.262180 0.499938 0.499879 0.552755
C2    C     C_R   0.491834 0.501352 0.737817 0.548351
C3    C     C_R   0.546430 0.766470 0.117441 -0.141424
C4    C     C_R   0.453571 0.766470 0.882559 -0.141424
C5    C     C_R   0.519138 0.892774 0.060296 0.286155
C6    C     C_R   0.480863 0.892774 0.939704 0.286155
C7    C     C_R   0.483484 0.636650 0.937571 -0.026806
C8    C     C_R   0.516516 0.636650 0.062428 -0.026807
C9    C     C_R   0.515644 0.507417 0.127579 -0.001872
C10   C     C_R   0.484356 0.507417 0.872421 -0.001872
C11   C     C_R   0.506651 0.382137 0.062797 -0.160661
C12   C     C_R   0.737820 0.499938 0.500121 0.552754
C13   C     C_R   0.493350 0.382137 0.937203 -0.160661
C14   C     C_R   0.063883 0.372632 0.499880 -0.141819
C15   C     C_R   0.936117 0.372632 0.500120 -0.141819
C16   C     C_R   0.871722 0.499877 0.500161 0.021214
C17   C     C_R   0.128278 0.499877 0.499839 0.021214
C18   C     C_3   0.430541 0.032354 0.205641 -0.009873
C19   C     C_3   0.308153 0.066953 0.142042 -0.264023
C20   C     C_3   0.209775 0.111990 0.234966 -0.486047
C21   C     C_3   0.569459 0.032354 0.794359 -0.009874
C22   C     C_3   0.691847 0.066952 0.857957 -0.264024
C23   C     C_R   0.936122 0.627092 0.500096 -0.139571
C24   C     C_3   0.790225 0.111990 0.765033 -0.486047
C25   C     C_R   0.063878 0.627092 0.499904 -0.139571
C26   C     C_R   0.398312 0.074130 0.538028 -0.014952
C27   C     C_R   0.601688 0.074130 0.461972 -0.014952
C28   C     C_R   0.398598 0.925819 0.538714 -0.011108
C29   C     C_R   0.601402 0.925819 0.461286 -0.011108
C30   C     C_R   0.508166 0.501352 0.262183 0.548352
Cu1   Cu    Cu3+1 0.500000 0.640660 0.500000 0.912043
Cu2   Cu    Cu3+1 0.500000 0.359340 0.500000 0.907116
H1    H     H_    0.510766 0.283223 0.109501 0.185825
H2    H     H_    0.683006 0.129018 0.429944 0.121209
H3    H     H_    0.317485 0.870894 0.571223 0.110719
H4    H     H_    0.682515 0.870894 0.428776 0.110719
H5    H     H_    0.453073 0.120711 0.266622 0.193053
H6    H     H_    0.419065 0.938526 0.265124 0.147341
H7    H     H_    0.322406 0.152557 0.074677 0.196240
H8    H     H_    0.274205 0.973242 0.092413 0.163316
H9    H     H_    0.193891 0.027857 0.303514 0.139205
H10   H     H_    0.121677 0.133305 0.187195 0.149316
H11   H     H_    0.239091 0.208951 0.282768 0.171985
H12   H     H_    0.489235 0.283223 0.890499 0.185825
H13   H     H_    0.546927 0.120711 0.733378 0.193053
H14   H     H_    0.580934 0.938527 0.734875 0.147341
H15   H     H_    0.677595 0.152556 0.925323 0.196240
H16   H     H_    0.725795 0.973241 0.907585 0.163316
H17   H     H_    0.806108 0.027858 0.696484 0.139204
H18   H     H_    0.878323 0.133303 0.812804 0.149316
H19   H     H_    0.760909 0.208952 0.717232 0.171985
H20   H     H_    0.594469 0.774671 0.203004 0.156121
H21   H     H_    0.405531 0.774671 0.796996 0.156121
H22   H     H_    0.111887 0.273145 0.499757 0.116133
H23   H     H_    0.888113 0.273145 0.500242 0.116133
H24   H     H_    0.888117 0.726580 0.500193 0.116514
H25   H     H_    0.111883 0.726580 0.499808 0.116514
H26   H     H_    0.316994 0.129018 0.570056 0.121209
N1    N     N_R   0.500000 0.852070 0.500000 -0.240658
N2    N     N_R   0.500000 0.147940 0.500000 -0.252756
O1    O     O_R   0.319640 0.618740 0.499990 -0.514407
O2    O     O_3   0.469570 0.018168 0.878299 -0.587234
O3    O     O_R   0.680360 0.618740 0.500010 -0.514407
O4    O     O_R   0.319620 0.381170 0.499990 -0.517447
O5    O     O_R   0.680380 0.381170 0.500010 -0.517446
O6    O     O_R   0.500000 0.618810 0.319650 -0.511261
O7    O     O_R   0.500000 0.618810 0.680350 -0.511261
O8    O     O_R   0.499970 0.381240 0.319640 -0.509818
O9    O     O_R   0.500030 0.381240 0.680360 -0.509818
O10   O     O_3   0.530430 0.018168 0.121701 -0.587234

loop_
_geom_bond_atom_site_label_1
_geom_bond_atom_site_label_2
_ccdc_geom_bond_type
C18   O10   S    
Cu1   O6    S    
C22   H16   S    
C3    H20   S    
C5    O10   S    
C4    H21   S    
C7    C10   A    
C2    O9    A    
C11   C13   A    
C12   O5    A    
Cu1   O1    S    
C20   H10   S    
C19   C20   S    
C29   H4    S    
C11   H1    S    
Cu2   O8    S    
C17   C25   A    
C6    O2    S    
C24   H19   S    
C23   C25   A    
C22   H15   S    
C18   H6    S    
C23   H24   S    
Cu1   Cu2   S    
C21   C22   S    
Cu1   O7    S    
C26   H26   S    
C14   C17   A    
C21   O2    S    
C30   O6    A    
C26   N2    A    
C19   H7    S    
C9    C30   S    
C4    C7    A    
C26   C28   A    
C14   H22   S    
C18   H5    S    
C20   H9    S    
C16   C23   A    
C21   H13   S    
C27   N2    A    
C9    C11   A    
C27   H2    S    
C24   H18   S    
C5    C6    A    
C22   C24   S    
C3    C8    A    
C27   C29   A    
C19   H8    S    
Cu2   N2    S    
C15   C16   A    
C2    C10   S    
C1    O4    A    
Cu1   O3    S    
C25   H25   S    
C7    C8    A    
C20   H11   S    
Cu2   O4    S    
C8    C9    A    
C4    C6    A    
C21   H14   S    
C28   N1    A    
Cu1   N1    S    
C24   H17   S    
C12   O3    A    
C29   N1    A    
C14   C15   A    
C18   C19   S    
C3    C5    A    
Cu2   O9    S    
C1    C17   S    
C13   H12   S    
C30   O8    A    
C12   C16   S    
C28   H3    S    
C15   H23   S    
Cu2   O5    S    
C2    O7    A    
C10   C13   A    
C1    O1    A    
