data_str_m9_o13_o13_f0_sra.sym.70
_audit_creation_date              2012-12-11T14:41:11-0500
_audit_creation_method            fapswitch 2.2
_symmetry_space_group_name_H-M    P1
_symmetry_Int_Tables_number       1
_space_group_crystal_system       triclinic
_cell_length_a                    6.947863
_cell_length_b                    17.860042
_cell_length_c                    18.85279
_cell_angle_alpha                 90.000227
_cell_angle_beta                  89.998992
_cell_angle_gamma                 89.975814
_cell_volume                      2339.42600591

loop_
_atom_site_label
_atom_site_type_symbol
_atom_type_description
_atom_site_fract_x
_atom_site_fract_y
_atom_site_fract_z
_atom_type_partial_charge
O1    O     O_R   0.377350 0.828520 0.186660 -0.541568
O2    O     O_R   0.622650 0.171480 0.813340 -0.543425
O3    O     O_R   0.122650 0.171480 0.686660 -0.542356
O4    O     O_R   0.877350 0.828520 0.313340 -0.542678
O5    O     O_R   0.877350 0.671480 0.313340 -0.541296
O6    O     O_R   0.122650 0.328520 0.686660 -0.541970
O7    O     O_R   0.622650 0.328520 0.813340 -0.541957
O8    O     O_R   0.377350 0.671480 0.186660 -0.545990
O9    O     O_R   0.707090 0.671930 0.178410 -0.534250
O10   O     O_R   0.292910 0.328070 0.821590 -0.532784
O11   O     O_R   0.792910 0.328070 0.678410 -0.533829
O12   O     O_R   0.207090 0.671930 0.321590 -0.533181
O13   O     O_R   0.207090 0.828070 0.321590 -0.532142
O14   O     O_R   0.792910 0.171930 0.678410 -0.533754
O15   O     O_R   0.292910 0.171930 0.821590 -0.532335
O16   O     O_R   0.707090 0.828070 0.178410 -0.533280
C1    C     C_R   0.539477 0.645877 0.161414 0.732697
C2    C     C_R   0.460521 0.354172 0.838550 0.737890
C3    C     C_R   0.960520 0.354143 0.661428 0.733497
C4    C     C_R   0.039471 0.645835 0.338552 0.732205
C5    C     C_R   0.039433 0.854195 0.338526 0.735800
C6    C     C_R   0.960600 0.145874 0.661418 0.727205
C7    C     C_R   0.460567 0.145799 0.838520 0.734789
C8    C     C_R   0.539403 0.854117 0.161410 0.729701
O17   O     O_3   0.543850 0.750000 0.294270 -0.365026
O18   O     O_3   0.456150 0.250000 0.705730 -0.367285
O19   O     O_3   0.956150 0.250000 0.794270 -0.366074
O20   O     O_3   0.043850 0.750000 0.205730 -0.368019
V1    V     V_3+5 0.818700 0.750000 0.241790 1.535561
V2    V     V_3+5 0.181300 0.250000 0.758210 1.547458
V3    V     V_3+5 0.681300 0.250000 0.741790 1.541646
V4    V     V_3+5 0.318700 0.750000 0.258210 1.539267
C9    C     C_R   0.960163 0.416139 0.608855 -0.160468
C10   C     C_R   0.039691 0.583770 0.391056 -0.160988
C11   C     C_R   0.539817 0.583909 0.108828 -0.143120
C12   C     C_R   0.460246 0.416242 0.891062 -0.160833
C13   C     C_R   0.460301 0.083738 0.891044 -0.163623
C14   C     C_R   0.539451 0.916176 0.108921 -0.136938
C15   C     C_R   0.039724 0.916239 0.391066 -0.164636
C16   C     C_R   0.960582 0.083797 0.608947 -0.136742
C17   C     C_R   0.204574 0.474156 0.439785 0.510302
C18   C     C_R   0.794422 0.525421 0.559861 0.507761
C19   C     C_R   0.295003 0.525725 0.939906 0.501099
C20   C     C_R   0.705108 0.474450 0.059995 0.468371
C21   C     C_R   0.702894 0.026262 0.060650 0.472207
C22   C     C_R   0.294761 0.974399 0.939947 0.504643
C23   C     C_R   0.797304 0.973646 0.560731 0.474536
C24   C     C_R   0.205420 0.025517 0.440019 0.504748
C25   C     C_R   0.184888 0.529494 0.387575 -0.155253
C26   C     C_R   0.814453 0.470215 0.612165 -0.157752
C27   C     C_R   0.314670 0.470379 0.887705 -0.155784
C28   C     C_R   0.684955 0.529625 0.112327 -0.166027
C29   C     C_R   0.684011 0.970632 0.112609 -0.170426
C30   C     C_R   0.314530 0.029719 0.887737 -0.172474
C31   C     C_R   0.816118 0.029303 0.612671 -0.171414
C32   C     C_R   0.185584 0.970224 0.387788 -0.171511
C33   C     C_R   0.909766 0.582089 0.447724 -0.094221
C34   C     C_R   0.090096 0.417823 0.552192 -0.097906
C35   C     C_R   0.590362 0.418003 0.947668 -0.094125
C36   C     C_R   0.410295 0.582379 0.052043 -0.150643
C37   C     C_R   0.409667 0.917833 0.052206 -0.091104
C38   C     C_R   0.590366 0.081938 0.947671 -0.092732
C39   C     C_R   0.090370 0.082137 0.552233 -0.091390
C40   C     C_R   0.909674 0.918032 0.447700 -0.094636
C41   C     C_R   0.924624 0.527157 0.501765 -0.033008
C42   C     C_R   0.074817 0.472599 0.498019 -0.033148
C43   C     C_R   0.575348 0.472879 0.001760 -0.002324
C44   C     C_R   0.425231 0.527465 0.997986 -0.033542
C45   C     C_R   0.424597 0.972745 0.998151 -0.017600
C46   C     C_R   0.574330 0.027422 0.002053 -0.003289
C47   C     C_R   0.075513 0.027198 0.498202 -0.018208
C48   C     C_R   0.925785 0.972519 0.502106 -0.003667
H1    H     H_    0.197473 0.374186 0.549898 0.202719
H2    H     H_    0.802851 0.625887 0.450165 0.203845
H3    H     H_    0.303293 0.626147 0.049636 0.206808
H4    H     H_    0.697547 0.374304 0.950021 0.201377
H5    H     H_    0.698725 0.125197 0.949710 0.201024
H6    H     H_    0.302790 0.874050 0.049743 0.199314
H7    H     H_    0.801248 0.874797 0.449719 0.201381
H8    H     H_    0.197170 0.125946 0.549743 0.199084
H9    H     H_    0.713796 0.468573 0.655977 0.174165
H10   H     H_    0.285354 0.531069 0.343701 0.173937
H11   H     H_    0.784940 0.531053 0.156348 0.151779
H12   H     H_    0.213906 0.468697 0.843930 0.174442
H13   H     H_    0.213830 0.031419 0.843940 0.175092
H14   H     H_    0.784283 0.969043 0.156528 0.146040
H15   H     H_    0.286309 0.968517 0.343999 0.175421
H16   H     H_    0.715877 0.030881 0.656601 0.146333
S1    S     S_3+6 0.395169 0.408786 0.429960 0.047237
O21   O     O_2   0.514856 0.407119 0.496321 -0.347161
O22   O     O_2   0.311166 0.332448 0.417401 -0.266261
O23   O     O_3   0.536730 0.431910 0.360931 -0.494552
H17   H     H_    0.650395 0.398668 0.364947 0.389895
S2    S     S_3+6 0.602403 0.590215 0.569318 0.045665
O24   O     O_2   0.684700 0.666563 0.583216 -0.264365
O25   O     O_2   0.485351 0.592462 0.502337 -0.345763
O26   O     O_3   0.458433 0.565889 0.637294 -0.499628
H18   H     H_    0.343202 0.598165 0.632456 0.388260
S3    S     S_3+6 0.103507 0.590741 0.930367 0.033762
O27   O     O_2   0.985392 0.592610 0.997107 -0.360435
O28   O     O_2   0.186395 0.667138 0.917133 -0.266203
O29   O     O_3   0.960547 0.566981 0.861926 -0.498711
H19   H     H_    0.846210 0.599822 0.866337 0.387695
S4    S     S_3+6 0.895758 0.409081 0.069858 0.080902
O30   O     O_2   0.811327 0.332983 0.083147 -0.234392
O31   O     O_2   0.014984 0.406041 0.003417 -0.341706
O32   O     O_3   0.038821 0.431881 0.138558 -0.462506
H20   H     H_    0.115902 0.474985 0.121624 0.338608
S5    S     S_3+6 0.889979 0.092926 0.071389 0.075077
O33   O     O_2   0.017656 0.092642 0.007105 -0.311598
O34   O     O_2   0.803004 0.169504 0.079351 -0.267744
O35   O     O_3   0.025193 0.073695 0.143192 -0.473444
H21   H     H_    0.949995 0.092657 0.184073 0.358224
S6    S     S_3+6 0.103372 0.909407 0.930361 0.037195
O36   O     O_2   0.186355 0.832901 0.917649 -0.271376
O37   O     O_2   0.984429 0.907972 0.996910 -0.345626
O38   O     O_3   0.961312 0.932850 0.861554 -0.504724
H22   H     H_    0.846976 0.900049 0.865877 0.380676
S7    S     S_3+6 0.610472 0.906884 0.571539 0.066512
O39   O     O_2   0.482366 0.907242 0.507373 -0.312457
O40   O     O_2   0.697684 0.830321 0.579295 -0.275547
O41   O     O_3   0.475698 0.925934 0.643499 -0.475904
H23   H     H_    0.551325 0.907006 0.684284 0.355869
S8    S     S_3+6 0.397051 0.090412 0.430498 0.039671
O42   O     O_2   0.314355 0.166926 0.417587 -0.268916
O43   O     O_2   0.515574 0.091923 0.497146 -0.345932
O44   O     O_3   0.539491 0.066782 0.361853 -0.503412
H24   H     H_    0.654004 0.099480 0.366273 0.381700

loop_
_geom_bond_atom_site_label_1
_geom_bond_atom_site_label_2
_ccdc_geom_bond_type
C33   H2    S    
C17   S1    S    
C9    C34   A    
C28   H11   S    
C38   H5    S    
O14   V3    S    
C12   C35   A    
S4    O31   D    
S6    O36   D    
C20   S4    S    
O5    C4    A    
C15   C40   A    
O11   C3    A    
C16   C39   A    
S8    O43   D    
O20   V1    S    
C19   S3    S    
C45   C46   A    
S5    O34   D    
C21   S5    S    
C38   C46   A    
C31   H16   S    
S4    O30   D    
C22   C45   A    
O13   V4    S    
C35   C43   A    
C34   C42   A    
S3    O27   D    
C19   C44   A    
C18   C41   A    
C8    C14   S    
O32   H20   S    
C29   H14   S    
S1    O22   D    
O4    V1    S    
O9    V1    S    
C14   C37   A    
C4    C10   S    
C20   C28   A    
O17   V4    S    
O15   C7    A    
O11   V3    S    
O18   V3    S    
O16   C8    A    
O12   V4    S    
O19   V2    S    
C22   C30   A    
O29   H19   S    
C17   C25   A    
O35   H21   S    
O26   H18   S    
O5    V1    S    
C39   H8    S    
S7    O40   D    
O17   V1    S    
O7    V3    S    
C22   S6    S    
O19   V3    S    
C43   C44   A    
O8    V4    S    
O20   V4    S    
C3    C9    S    
S5    O35   S    
C32   H15   S    
S2    O26   S    
C9    C26   A    
C7    C13   S    
O1    V4    S    
C11   C36   A    
C25   H10   S    
O3    V2    S    
O6    C3    A    
C10   C33   A    
O10   V2    S    
C15   C32   A    
C5    C15   S    
C37   H6    S    
O7    C2    A    
C6    C16   S    
O12   C4    A    
O13   C5    A    
S1    O23   S    
S2    O25   D    
C12   C27   A    
C18   C26   A    
S8    O44   S    
C13   C30   A    
O9    C1    A    
O6    V2    S    
C39   C47   A    
O18   V2    S    
C40   H7    S    
C24   C47   A    
O44   H24   S    
S1    O21   D    
O2    C7    A    
O15   V2    S    
C23   C31   A    
C26   H9    S    
S7    O41   S    
C37   C45   A    
C24   C32   A    
C10   C25   A    
S3    O28   D    
C21   C46   A    
C18   S2    S    
C33   C41   A    
C20   C43   A    
C16   C31   A    
C24   S8    S    
C30   H13   S    
S6    O37   D    
S7    O39   D    
C17   C42   A    
C36   H3    S    
O8    C1    A    
O14   C6    A    
O16   V1    S    
C47   C48   A    
O38   H22   S    
O4    C5    A    
C19   C27   A    
C14   C29   A    
O10   C2    A    
C35   H4    S    
C23   S7    S    
O23   H17   S    
C40   C48   A    
S2    O24   D    
C23   C48   A    
S6    O38   S    
C21   C29   A    
S3    O29   S    
C36   C44   A    
O1    C8    A    
C41   C42   A    
C11   C28   A    
C13   C38   A    
O2    V3    S    
O3    C6    A    
C1    C11   S    
O41   H23   S    
S5    O33   D    
C2    C12   S    
C27   H12   S    
S4    O32   S    
C34   H1    S    
S8    O42   D    
