data_str_m3_o14_o18_f0_pcu.sym.207
_audit_creation_date              2012-12-10T17:44:33-0500
_audit_creation_method            fapswitch 2.2
_symmetry_space_group_name_H-M    P1
_symmetry_Int_Tables_number       1
_space_group_crystal_system       triclinic
_cell_length_a                    10.009576
_cell_length_b                    10.644982
_cell_length_c                    15.504298
_cell_angle_alpha                 94.901768
_cell_angle_beta                  66.965747
_cell_angle_gamma                 92.486073
_cell_volume                      1514.64792762

loop_
_atom_site_label
_atom_site_type_symbol
_atom_type_description
_atom_site_fract_x
_atom_site_fract_y
_atom_site_fract_z
_atom_type_partial_charge
C1    C     C_R   0.502916 0.739257 0.500933 0.899404
C2    C     C_R   0.406640 0.483968 0.917081 0.089531
C3    C     C_R   0.262613 0.518879 0.975738 0.070299
C4    C     C_R   0.507968 0.458655 0.956033 0.072970
C5    C     C_R   0.474778 0.493973 0.051831 0.040419
C6    C     C_R   0.333093 0.535953 0.109079 -0.287716
C7    C     C_R   0.226490 0.547180 0.072896 -0.038052
C8    C     C_R   0.637730 0.392058 0.903073 -0.193975
C9    C     C_R   0.733993 0.364505 0.943162 -0.172090
C10   C     C_R   0.708399 0.408409 0.035227 0.194227
C11   C     C_R   0.581893 0.479021 0.088648 0.133270
C12   C     C_R   0.407420 0.495690 0.676165 0.922546
C13   C     C_R   0.804724 0.378579 0.076078 -0.217194
C14   C     C_R   0.773391 0.414636 0.170417 -0.124745
C15   C     C_R   0.563844 0.527857 0.178925 -0.258666
C16   C     C_R   0.625821 0.847567 0.321993 -0.153799
C17   C     C_R   0.659901 0.899251 0.236433 -0.164886
C18   C     C_R   0.614578 0.020248 0.234938 -0.156730
C19   C     C_R   0.539316 0.091778 0.319411 -0.034126
C20   C     C_R   0.530609 0.048816 0.406020 -0.049981
C21   C     C_R   0.558766 0.921442 0.407313 0.102645
C22   C     C_R   0.516809 0.870985 0.494637 -0.136335
C23   C     C_R   0.501138 0.259935 0.492861 0.917288
C24   C     C_R   0.480217 0.946249 0.577823 -0.333220
C25   C     C_R   0.474895 0.075324 0.576467 0.545398
C26   C     C_R   0.494263 0.125753 0.491677 -0.181729
C27   C     C_R   0.790547 0.676162 0.614752 -0.138556
C28   C     C_R   0.822558 0.772927 0.667535 -0.276588
C29   C     C_R   0.955611 0.778465 0.672745 -0.233287
C30   C     C_R   0.060970 0.683666 0.626885 0.593442
C31   C     C_R   0.036841 0.588276 0.561230 0.034874
C32   C     C_R   0.893869 0.586911 0.558589 0.104172
C33   C     C_R   0.961148 0.421140 0.440805 -0.056653
C34   C     C_R   0.592050 0.499071 0.324259 0.829694
C35   C     C_R   0.103779 0.423048 0.439680 -0.070035
C36   C     C_R   0.347536 0.489276 0.779199 -0.117664
C37   C     C_R   0.650604 0.487255 0.222189 -0.020990
C38   C     C_R   0.158363 0.518595 0.935483 -0.234950
C39   C     C_R   0.198053 0.496988 0.838107 -0.036012
C40   C     C_R   0.448207 0.479788 0.820068 -0.278912
H1    H     H_    0.899768 0.321936 0.036548 0.135258
H2    H     H_    0.456146 0.904632 0.643612 0.137566
H3    H     H_    0.655658 0.751062 0.321018 0.127788
H4    H     H_    0.712227 0.842385 0.171236 0.159413
H5    H     H_    0.625429 0.052612 0.168090 0.176685
H6    H     H_    0.935213 0.356425 0.391723 0.149973
H7    H     H_    0.682673 0.676741 0.619087 0.215358
H8    H     H_    0.741627 0.843180 0.706789 0.165982
H9    H     H_    0.477396 0.592079 0.219606 0.149456
H10   H     H_    0.971076 0.856797 0.717036 0.154739
H11   H     H_    0.183927 0.363540 0.387623 0.182273
H12   H     H_    0.840401 0.380781 0.203805 0.169116
H13   H     H_    0.828874 0.308561 0.901864 0.153668
H14   H     H_    0.044582 0.528910 0.979470 0.201179
H15   H     H_    0.562081 0.473971 0.775382 0.174388
H16   H     H_    0.300122 0.555840 0.183842 0.178054
H17   H     H_    0.662898 0.352888 0.831984 0.129144
N1    N     N_R   0.856800 0.501200 0.500850 -0.109834
N2    N     N_R   0.142390 0.501280 0.500880 -0.103294
O1    O     O_R   0.385310 0.683220 0.500000 -0.553845
O2    O     O_R   0.614640 0.683250 0.500010 -0.644833
O3    O     O_R   0.319840 0.499980 0.632240 -0.508375
O4    O     O_R   0.549160 0.500000 0.632250 -0.657400
O5    O     O_R   0.385360 0.316750 0.499990 -0.554434
O6    O     O_R   0.614690 0.316780 0.500000 -0.625317
O7    O     O_R   0.450840 0.500000 0.367750 -0.618335
O8    O     O_R   0.680160 0.500020 0.367760 -0.600813
Zn1   Zn    Zn3+2 0.346880 0.499980 0.499990 1.037800
Zn2   Zn    Zn3+2 0.653120 0.500020 0.500010 0.952866
C41   C     C_2   0.081933 0.595240 0.138702 0.888218
O9    O     O_2   0.030899 0.564975 0.219778 -0.646737
O10   O     O_R   0.007339 0.679942 0.110052 -0.805392
H18   H     H_    0.911008 0.705575 0.161708 0.339553
C42   C     C_2   0.432168 0.179648 0.316413 0.881367
O11   O     O_2   0.308524 0.176960 0.375872 -0.625570
O12   O     O_R   0.465395 0.251718 0.239345 -0.824619
H19   H     H_    0.379269 0.300823 0.241900 0.337313
O13   O     O_3   0.435211 0.152269 0.659187 -0.595803
C43   C     C_3   0.546590 0.153271 0.693578 -0.298711
H20   H     H_    0.517265 0.221037 0.756264 0.192821
H21   H     H_    0.651999 0.185057 0.640674 0.174816
H22   H     H_    0.558201 0.059658 0.716472 0.150459
O14   O     O_3   0.183318 0.679655 0.647153 -0.567865
C44   C     C_3   0.191826 0.767452 0.718832 -0.332667
H23   H     H_    0.098005 0.758156 0.786563 0.205479
H24   H     H_    0.202926 0.865245 0.696908 0.175581
H25   H     H_    0.290423 0.747586 0.731155 0.157547
C45   C     C_2   0.080441 0.478202 0.802568 0.927683
O15   O     O_2   0.973596 0.545603 0.835183 -0.654547
O16   O     O_R   0.087227 0.378693 0.736046 -0.763403
H26   H     H_    0.999837 0.375163 0.718171 0.326961

loop_
_geom_bond_atom_site_label_1
_geom_bond_atom_site_label_2
_ccdc_geom_bond_type
O7    Zn1   S    
C24   C25   A    
C33   N1    A    
C34   C37   S    
C24   H2    S    
C19   C20   A    
C44   H25   S    
C32   N1    A    
C4    C8    A    
C34   O7    A    
C7    C41   S    
C13   H1    S    
C16   C21   A    
C42   O12   S    
C5    C6    A    
O5    Zn1   S    
C28   C29   A    
C44   H24   S    
C5    C11   A    
C3    C7    A    
C30   C31   A    
C8    H17   S    
C27   H7    S    
C35   N2    A    
C18   C19   A    
C23   C26   S    
C31   N2    A    
C30   O14   S    
C15   C37   A    
C11   C15   A    
C14   H12   S    
C31   C32   A    
C3    C38   A    
C16   C17   A    
C41   O9    D    
C12   C36   S    
C9    C10   A    
C45   O15   D    
C1    C22   S    
C21   C22   A    
C33   H6    S    
C39   C45   S    
C29   H10   S    
C19   C42   S    
C42   O11   D    
C25   O13   S    
O4    Zn2   S    
C36   C40   A    
C44   H23   S    
C1    O1    A    
C43   H21   S    
C12   O4    A    
O13   C43   S    
C8    C9    A    
C25   C26   A    
O8    Zn2   S    
C2    C4    A    
C29   C30   A    
N2    Zn1   S    
C12   O3    A    
O14   C44   S    
C38   H14   S    
C40   H15   S    
C17   C18   A    
O12   H19   S    
C16   H3    S    
C23   O5    A    
C45   O16   S    
C35   H11   S    
C22   C24   A    
C9    H13   S    
C18   H5    S    
O2    Zn2   S    
C28   H8    S    
C27   C32   A    
C36   C39   A    
C6    H16   S    
O10   H18   S    
C10   C13   A    
C1    O2    A    
C34   O8    A    
C43   H22   S    
N1    Zn2   S    
C6    C7    A    
O3    Zn1   S    
C23   O6    A    
C2    C3    A    
C17   H4    S    
C14   C37   A    
O16   H26   S    
C38   C39   A    
C20   C26   A    
O6    Zn2   S    
C33   C35   A    
C15   H9    S    
C10   C11   A    
C43   H20   S    
C2    C40   A    
C4    C5    A    
C20   C21   A    
O1    Zn1   S    
C27   C28   A    
C41   O10   S    
C13   C14   A    
