data_str_m4_o14_o24_f0_acs.sym.59
_audit_creation_date              2012-12-11T14:24:56-0500
_audit_creation_method            fapswitch 2.2
_symmetry_space_group_name_H-M    P1
_symmetry_Int_Tables_number       1
_space_group_crystal_system       triclinic
_cell_length_a                    18.918531
_cell_length_b                    11.069717
_cell_length_c                    18.709089
_cell_angle_alpha                 90.342791
_cell_angle_beta                  91.073435
_cell_angle_gamma                 89.743694
_cell_volume                      3917.31452133

loop_
_atom_site_label
_atom_site_type_symbol
_atom_type_description
_atom_site_fract_x
_atom_site_fract_y
_atom_site_fract_z
_atom_type_partial_charge
C1    C     C_R   0.714247 0.334023 0.138275 0.576800
C2    C     C_R   0.228761 0.856023 0.061809 -0.005809
C3    C     C_R   0.657468 0.597026 0.410825 -0.109455
C4    C     C_R   0.854555 0.203622 0.596809 -0.141435
C5    C     C_R   0.056506 0.015305 0.491442 -0.198257
C6    C     C_R   0.358400 0.659238 0.583205 -0.138448
C7    C     C_R   0.589864 0.591073 0.436899 -0.154356
C8    C     C_R   0.880117 0.200695 0.528266 -0.116594
C9    C     C_R   0.058164 0.971248 0.560549 -0.092234
C10   C     C_R   0.393362 0.631651 0.520905 -0.112379
C11   C     C_R   0.577796 0.535773 0.502345 -0.115635
C12   C     C_R   0.846296 0.135224 0.473366 0.242754
C13   C     C_R   0.260870 0.388093 0.933670 -0.001359
C14   C     C_R   0.118327 0.913018 0.586348 0.259948
C15   C     C_R   0.361614 0.564198 0.465745 0.249137
C16   C     C_R   0.634119 0.493082 0.544156 0.259409
C17   C     C_R   0.739881 0.993558 0.440439 0.012432
C18   C     C_R   0.247769 0.910077 0.576972 0.017890
C19   C     C_R   0.258475 0.430962 0.429043 0.036177
C20   C     C_R   0.765989 0.484731 0.558783 0.022651
C21   C     C_R   0.734634 0.390224 0.348729 0.549758
C22   C     C_R   0.267977 0.376951 0.645780 0.534511
C23   C     C_R   0.228630 0.878131 0.355690 0.547669
C24   C     C_R   0.727642 0.352185 0.061254 -0.004112
C25   C     C_R   0.766592 0.883759 0.648910 0.531042
C26   C     C_R   0.530627 0.157692 0.352185 0.543104
C27   C     C_R   0.467559 0.157163 0.646707 0.560663
C28   C     C_R   0.032345 0.655273 0.353247 0.546828
C29   C     C_R   0.966961 0.657589 0.646979 0.569611
C30   C     C_R   0.730363 0.020552 0.364459 0.576329
C31   C     C_R   0.257321 0.967593 0.645287 0.592834
C32   C     C_R   0.243962 0.471578 0.356574 0.568043
C33   C     C_R   0.769964 0.515284 0.635205 0.582336
C34   C     C_3   0.530339 0.255604 0.970804 -0.053891
C35   C     C_R   0.710092 0.811285 0.975112 -0.035567
C36   C     C_3   0.473379 0.263146 0.029016 -0.046731
C37   C     C_3   0.030015 0.758266 0.971037 -0.046599
C38   C     C_3   0.973287 0.760344 0.029637 -0.043166
C39   C     C_3   0.568330 0.153075 0.012385 -0.103546
C40   C     C_3   0.428789 0.167232 0.988305 -0.102464
C41   C     C_3   0.070465 0.657199 0.011524 -0.108030
C42   C     C_3   0.930543 0.662571 0.988363 -0.100445
C43   C     C_3   0.510577 0.160520 0.069282 0.042199
C44   C     C_3   0.486648 0.159959 0.931627 0.040749
C45   C     C_3   0.012834 0.659432 0.068627 0.039117
C46   C     C_R   0.289125 0.809776 0.024225 -0.039407
C47   C     C_3   0.988059 0.660759 0.931214 0.042306
C48   C     C_R   0.200956 0.341849 0.969938 -0.037346
C49   C     C_R   0.787487 0.304731 0.023219 -0.038096
C50   C     C_R   0.708607 0.823620 0.050789 -0.000803
C51   C     C_R   0.290844 0.824203 0.948780 -0.004032
C52   C     C_R   0.202523 0.339680 0.045773 0.000738
C53   C     C_R   0.272253 0.369435 0.856646 0.555313
C54   C     C_R   0.789470 0.320887 0.947826 0.000255
C55   C     C_R   0.820339 0.928311 0.050384 -0.125269
C56   C     C_R   0.181406 0.938350 0.951573 -0.120125
C57   C     C_R   0.316682 0.436686 0.047643 -0.123860
C58   C     C_R   0.680440 0.434947 0.950950 -0.124436
C59   C     C_R   0.826973 0.906156 0.978555 0.317091
C60   C     C_R   0.174297 0.914126 0.022768 0.317451
C61   C     C_R   0.319990 0.427042 0.974802 0.330735
C62   C     C_R   0.673064 0.409575 0.022134 0.320973
C63   C     C_R   0.650139 0.756477 0.941394 -0.111939
C64   C     C_R   0.214765 0.835511 0.138257 0.577571
C65   C     C_R   0.348351 0.751100 0.057127 -0.112562
C66   C     C_R   0.140150 0.295472 0.934256 -0.106469
C67   C     C_R   0.845616 0.242224 0.055439 -0.114706
C68   C     C_R   0.088528 0.234196 0.971607 -0.120894
C69   C     C_R   0.898409 0.190011 0.014291 -0.111573
C70   C     C_R   0.596427 0.705785 0.981233 -0.119413
C71   C     C_R   0.402542 0.701833 0.016680 -0.109676
C72   C     C_R   0.600516 0.706309 0.055159 -0.050881
C73   C     C_R   0.399060 0.705798 0.942791 -0.049051
C74   C     C_R   0.094596 0.221284 0.045201 -0.059364
C75   C     C_R   0.785181 0.835931 0.861534 0.582532
C76   C     C_R   0.894358 0.194616 0.940417 -0.056165
C77   C     C_R   0.656377 0.763406 0.089801 -0.056011
C78   C     C_R   0.342963 0.763590 0.908979 -0.060169
C79   C     C_R   0.150748 0.274090 0.082246 -0.049778
C80   C     C_R   0.840160 0.258323 0.907288 -0.065310
C81   C     C_R   0.532031 0.155109 0.144628 0.543324
C82   C     C_R   0.466947 0.154982 0.855920 0.553849
C83   C     C_R   0.032901 0.654829 0.144201 0.542341
C84   C     C_R   0.967423 0.655171 0.855681 0.560539
C85   C     C_R   0.759272 0.896884 0.085711 -0.060909
C86   C     C_3   0.466606 0.064487 0.029685 -0.132352
C87   C     C_R   0.241049 0.900793 0.914968 -0.056723
C88   C     C_R   0.256223 0.403215 0.083091 -0.063205
C89   C     C_R   0.740505 0.399324 0.914556 -0.059341
C90   C     C_R   0.494111 0.164938 0.573490 0.036461
C91   C     C_R   0.497923 0.164280 0.423182 -0.003783
C92   C     C_R   0.993927 0.666961 0.574866 0.035553
C93   C     C_R   0.005037 0.651791 0.426299 0.000962
C94   C     C_R   0.507174 0.057721 0.535218 0.029747
C95   C     C_R   0.491453 0.056653 0.461805 0.026538
C96   C     C_R   0.026884 0.565889 0.544488 0.025985
C97   C     C_3   0.523928 0.057126 0.972083 -0.124965
C98   C     C_R   0.019185 0.548279 0.470527 0.025746
C99   C     C_R   0.495033 0.273174 0.460930 -0.124706
C100  C     C_R   0.484697 0.272579 0.534701 -0.101817
C101  C     C_R   0.977436 0.755842 0.457251 -0.152783
C102  C     C_R   0.966064 0.758411 0.530350 -0.145201
C103  C     C_R   0.530852 0.949839 0.567469 -0.078295
C104  C     C_R   0.476373 0.946501 0.428409 -0.089043
C105  C     C_R   0.058410 0.474484 0.587058 -0.076458
C106  C     C_R   0.024753 0.427592 0.444947 -0.078641
C107  C     C_R   0.067088 0.358832 0.559789 -0.135511
C108  C     C_3   0.970831 0.561516 0.028479 -0.129047
C109  C     C_R   0.050236 0.335778 0.488642 -0.142029
C110  C     C_R   0.526478 0.841747 0.529647 -0.149147
C111  C     C_R   0.495829 0.840603 0.461150 -0.144053
C112  C     C_R   0.738426 0.943030 0.585549 0.002162
C113  C     C_R   0.237527 0.913293 0.429868 0.003727
C114  C     C_R   0.243682 0.411474 0.575157 0.009001
C115  C     C_R   0.761415 0.464052 0.410181 0.001423
C116  C     C_R   0.771185 0.048563 0.562683 0.006124
C117  C     C_R   0.177184 0.942656 0.472641 0.001556
C118  C     C_R   0.269973 0.517256 0.547442 -0.011024
C119  C     C_3   0.027838 0.559654 0.970530 -0.128272
C120  C     C_R   0.711275 0.533817 0.446762 -0.002472
C121  C     C_R   0.785648 0.061095 0.489145 0.034612
C122  C     C_R   0.180578 0.913687 0.545289 0.034640
C123  C     C_R   0.295250 0.509371 0.477793 0.056521
C124  C     C_R   0.703578 0.506795 0.518935 0.038632
C125  C     C_R   0.694822 0.904654 0.467281 -0.148204
C126  C     C_R   0.308393 0.897841 0.535174 -0.156009
C127  C     C_R   0.220077 0.334919 0.455751 -0.155397
C128  C     C_R   0.828578 0.460209 0.521030 -0.166098
C129  C     C_R   0.743607 0.964104 0.151356 0.540378
C130  C     C_R   0.771179 0.855104 0.938297 -0.003236
C131  C     C_R   0.256530 0.964912 0.848840 0.563800
C132  C     C_R   0.243180 0.464714 0.150958 0.535057
C133  C     C_R   0.756465 0.464775 0.848834 0.555980
C134  C     C_R   0.697813 0.874320 0.538229 -0.156630
C135  C     C_R   0.301956 0.887658 0.462414 -0.156169
C136  C     C_R   0.219120 0.318768 0.528981 -0.141316
C137  C     C_R   0.824312 0.436409 0.447165 -0.145540
C138  C     C_R   0.799050 0.130025 0.613831 -0.062687
C139  C     C_R   0.114762 0.001559 0.447487 -0.102524
C140  C     C_R   0.292902 0.609658 0.594001 -0.084548
Cl1   Cl    Cl    0.897860 0.137644 0.395684 -0.676275
Cl2   Cl    Cl    0.114363 0.840882 0.670212 -0.645380
Cl3   Cl    Cl    0.416093 0.526987 0.393579 -0.708505
Cl4   Cl    Cl    0.613954 0.390973 0.613136 -0.623243
Cr1   Cr    Cr6+3 0.772820 0.169820 0.252640 1.057613
Cr2   Cr    Cr6+3 0.383280 0.011130 0.749340 1.000048
Cr3   Cr    Cr6+3 0.116720 0.511130 0.250660 1.008132
Cr4   Cr    Cr6+3 0.883280 0.511130 0.749340 0.987363
Cr5   Cr    Cr6+3 0.227180 0.169820 0.747360 1.024825
Cr6   Cr    Cr6+3 0.272820 0.669820 0.252640 1.046102
Cr7   Cr    Cr6+3 0.727180 0.669820 0.747360 1.015312
Cr8   Cr    Cr6+3 0.615040 0.323610 0.249150 1.065772
Cr9   Cr    Cr6+3 0.384960 0.323610 0.750850 1.074883
Cr10  Cr    Cr6+3 0.115040 0.823610 0.249150 1.060460
Cr11  Cr    Cr6+3 0.884960 0.823610 0.750850 1.062073
Cr12  Cr    Cr6+3 0.616720 0.011130 0.250660 0.998021
F1    F     F_    0.889352 0.935128 0.948513 -0.658138
F2    F     F_    0.113115 0.950325 0.053350 -0.652461
F3    F     F_    0.383252 0.452667 0.945601 -0.650802
F4    F     F_    0.611388 0.443064 0.052658 -0.654497
H1    H     H_    0.626028 0.146604 0.023872 0.114396
H2    H     H_    0.452188 0.942061 0.375486 0.136240
H3    H     H_    0.072565 0.490322 0.642674 0.145850
H4    H     H_    0.005616 0.399182 0.392856 0.167974
H5    H     H_    0.086213 0.286872 0.594055 0.126745
H6    H     H_    0.056536 0.246659 0.466705 0.128477
H7    H     H_    0.544114 0.759266 0.554954 0.115307
H8    H     H_    0.485693 0.759550 0.431748 0.142936
H9    H     H_    0.660235 0.851829 0.432748 0.159053
H10   H     H_    0.361256 0.899238 0.558378 0.159453
H11   H     H_    0.193739 0.270940 0.420329 0.120843
H12   H     H_    0.371105 0.172456 0.976525 0.127277
H13   H     H_    0.878792 0.450679 0.549094 0.143560
H14   H     H_    0.782560 0.127540 0.668988 0.139996
H15   H     H_    0.110928 0.045188 0.396131 0.161507
H16   H     H_    0.268551 0.623236 0.645452 0.142038
H17   H     H_    0.664822 0.629229 0.356861 0.137723
H18   H     H_    0.671794 0.792660 0.555112 0.140751
H19   H     H_    0.347236 0.863321 0.431222 0.143505
H20   H     H_    0.200156 0.233618 0.549289 0.145833
H21   H     H_    0.868115 0.394615 0.420029 0.164741
H22   H     H_    0.880583 0.257779 0.637702 0.139955
H23   H     H_    0.128273 0.653633 0.022783 0.112389
H24   H     H_    0.009272 0.058832 0.471658 0.176357
H25   H     H_    0.383651 0.713676 0.624543 0.123968
H26   H     H_    0.547284 0.614607 0.401140 0.175399
H27   H     H_    0.926710 0.252465 0.517634 0.142754
H28   H     H_    0.012235 0.981005 0.593763 0.146066
H29   H     H_    0.446721 0.657093 0.518112 0.119045
H30   H     H_    0.524890 0.518924 0.518746 0.139354
H31   H     H_    0.553004 0.332736 0.942046 0.158654
H32   H     H_    0.455155 0.347120 0.055299 0.164970
H33   H     H_    0.051214 0.838040 0.943508 0.167113
H34   H     H_    0.872743 0.662566 0.977113 0.114761
H35   H     H_    0.954666 0.841851 0.058119 0.164204
H36   H     H_    0.440099 0.986787 0.054963 0.134268
H37   H     H_    0.545091 0.973244 0.947509 0.135625
H38   H     H_    0.946373 0.481248 0.053140 0.135766
H39   H     H_    0.049608 0.478941 0.943667 0.134805
H40   H     H_    0.862594 0.975772 0.078080 0.151252
H41   H     H_    0.140411 0.992080 0.925777 0.169776
H42   H     H_    0.361002 0.476935 0.076240 0.154118
H43   H     H_    0.639133 0.487013 0.924658 0.160250
H44   H     H_    0.640636 0.751595 0.884920 0.163817
H45   H     H_    0.502016 0.356940 0.433507 0.204570
H46   H     H_    0.357017 0.742019 0.113460 0.167534
H47   H     H_    0.129552 0.308404 0.878069 0.141742
H48   H     H_    0.853833 0.230752 0.111664 0.172049
H49   H     H_    0.044163 0.195509 0.942928 0.110682
H50   H     H_    0.940827 0.140016 0.039966 0.127780
H51   H     H_    0.552726 0.661476 0.954267 0.116615
H52   H     H_    0.445974 0.655429 0.042978 0.120719
H53   H     H_    0.055733 0.170809 0.074056 0.152136
H54   H     H_    0.932547 0.147098 0.908314 0.156861
H55   H     H_    0.560743 0.661609 0.086061 0.150235
H56   H     H_    0.471300 0.355888 0.561751 0.173334
H57   H     H_    0.438969 0.661678 0.911186 0.147820
H58   H     H_    0.659147 0.757183 0.147438 0.134225
H59   H     H_    0.340245 0.758084 0.851292 0.133289
H60   H     H_    0.154592 0.259410 0.139297 0.137315
H61   H     H_    0.837288 0.255047 0.849540 0.132170
H62   H     H_    0.962532 0.832799 0.424712 0.164207
H63   H     H_    0.935268 0.832231 0.552009 0.147204
H64   H     H_    0.552893 0.948631 0.621278 0.141292
O1    O     O_R   0.788190 0.043000 0.172520 -0.530494
O2    O     O_R   0.454170 0.051610 0.669840 -0.541308
O3    O     O_R   0.045830 0.551610 0.330160 -0.535315
O4    O     O_R   0.954170 0.551610 0.669840 -0.550604
O5    O     O_R   0.681920 0.959720 0.327070 -0.521228
O6    O     O_R   0.318080 0.959720 0.672930 -0.524946
O7    O     O_R   0.181920 0.459720 0.327070 -0.511830
O8    O     O_R   0.818080 0.459720 0.672930 -0.513956
O9    O     O_3   0.668190 0.168190 0.250820 -0.298000
O10   O     O_3   0.331810 0.168190 0.749180 -0.266329
O11   O     O_3   0.168190 0.668190 0.250820 -0.279964
O12   O     O_R   0.211810 0.043000 0.827480 -0.504319
O13   O     O_3   0.831810 0.668190 0.749180 -0.297593
O14   O     O_R   0.766240 0.292300 0.176860 -0.542614
O15   O     O_R   0.233760 0.292300 0.823140 -0.533755
O16   O     O_R   0.266240 0.792300 0.176860 -0.541725
O17   O     O_R   0.733760 0.792300 0.823140 -0.543601
O18   O     O_R   0.670310 0.409160 0.168720 -0.441737
O19   O     O_R   0.329690 0.409160 0.831280 -0.436770
O20   O     O_R   0.170310 0.909160 0.168720 -0.434213
O21   O     O_R   0.829690 0.909160 0.831280 -0.442154
O22   O     O_R   0.556160 0.251900 0.173380 -0.482067
O23   O     O_R   0.288190 0.543000 0.172520 -0.528755
O24   O     O_R   0.443840 0.251900 0.826620 -0.468430
O25   O     O_R   0.056160 0.751900 0.173380 -0.487863
O26   O     O_R   0.943840 0.751900 0.826620 -0.464954
O27   O     O_R   0.545410 0.050140 0.168240 -0.523158
O28   O     O_R   0.454590 0.050140 0.831760 -0.526645
O29   O     O_R   0.045410 0.550140 0.168240 -0.520469
O30   O     O_R   0.954590 0.550140 0.831760 -0.528335
O31   O     O_R   0.681530 0.958350 0.176970 -0.507377
O32   O     O_R   0.318470 0.958350 0.823030 -0.511270
O33   O     O_R   0.181530 0.458350 0.176970 -0.511051
O34   O     O_R   0.711810 0.543000 0.827480 -0.522973
O35   O     O_R   0.818470 0.458350 0.823030 -0.506772
O36   O     O_R   0.788610 0.044480 0.334450 -0.429831
O37   O     O_R   0.211390 0.044480 0.665550 -0.484548
O38   O     O_R   0.288610 0.544480 0.334450 -0.442248
O39   O     O_R   0.711390 0.544480 0.665550 -0.449351
O40   O     O_R   0.766630 0.293670 0.326970 -0.473297
O41   O     O_R   0.233370 0.293670 0.673030 -0.523341
O42   O     O_R   0.266630 0.793670 0.326970 -0.489379
O43   O     O_R   0.733370 0.793670 0.673030 -0.525666
O44   O     O_R   0.670730 0.410640 0.330640 -0.515955
O45   O     O_R   0.556550 0.253260 0.323480 -0.482891
O46   O     O_R   0.329270 0.410640 0.669360 -0.515396
O47   O     O_R   0.170730 0.910640 0.330640 -0.534753
O48   O     O_R   0.829270 0.910640 0.669360 -0.527764
O49   O     O_R   0.443450 0.253260 0.676520 -0.482295
O50   O     O_R   0.056550 0.753260 0.323480 -0.489515
O51   O     O_R   0.943450 0.753260 0.676520 -0.477195
O52   O     O_R   0.545830 0.051610 0.330160 -0.531586

loop_
_geom_bond_atom_site_label_1
_geom_bond_atom_site_label_2
_ccdc_geom_bond_type
C125  C134  A    
C58   C62   A    
C66   C68   A    
C96   C105  A    
C107  H5    S    
C59   C130  A    
C29   O51   A    
C101  C102  A    
C70   H51   S    
C55   C59   A    
C107  C109  A    
C113  C117  A    
C7    H26   S    
C139  H15   S    
Cr9   O46   S    
Cr4   O4    S    
C117  C122  A    
Cr5   O41   S    
C4    C8    A    
C9    H28   S    
C53   O15   A    
C14   Cl2   S    
Cr11  O48   S    
Cr12  O27   S    
C45   C83   S    
Cr8   O44   S    
C7    C11   A    
C105  C107  A    
C6    H25   S    
C23   O47   A    
C128  H13   S    
C72   C77   A    
C15   C123  A    
C99   H45   S    
C103  C110  A    
C119  H39   S    
C30   O5    A    
C82   O28   A    
C34   H31   S    
C16   Cl4   S    
C1    C24   S    
C60   F2    S    
C20   C128  A    
C3    C7    A    
C10   C15   A    
C61   F3    S    
C104  H2    S    
C78   H59   S    
C2    C60   A    
C77   H58   S    
C39   C97   S    
C112  C116  A    
Cr7   O17   S    
C38   H35   S    
C19   C32   S    
C127  H11   S    
Cr6   O11   S    
C31   O6    A    
C92   C96   A    
C12   Cl1   S    
C134  H18   S    
C69   C76   A    
Cr10  O50   S    
C110  H7    S    
C40   C86   S    
C42   H34   S    
C86   C97   S    
C110  C111  A    
C38   C45   S    
C50   C85   A    
C85   C129  S    
C80   H61   S    
C58   C89   A    
Cr3   O7    S    
Cr12  O5    S    
C12   C121  A    
C115  C137  A    
C93   C101  A    
C96   C98   A    
Cr10  O11   S    
C138  H14   S    
C73   C78   A    
C105  H3    S    
C5    C139  A    
Cr4   O8    S    
C106  H4    S    
C39   H1    S    
C33   O8    A    
C125  H9    S    
Cr6   O42   S    
C5    H24   S    
Cr8   O22   S    
C21   O44   A    
C75   C130  S    
C92   C102  A    
C27   O49   A    
Cr5   O10   S    
C86   H36   S    
C22   O46   A    
C47   C119  S    
C32   O7    A    
C114  C136  A    
C83   O25   A    
Cr1   O36   S    
C6    C140  A    
C17   C30   S    
C25   C112  S    
C108  C119  S    
C117  C139  A    
C81   O27   A    
C118  C140  A    
C68   H49   S    
C28   O3    A    
C90   C100  A    
C42   C47   S    
C25   O43   A    
Cr11  O26   S    
C2    C64   S    
C102  H63   S    
C90   C94   A    
C54   C80   A    
Cr11  O21   S    
C8    H27   S    
Cr6   O23   S    
Cr7   O13   S    
Cr10  O20   S    
Cr5   O12   S    
C89   C133  S    
C116  C121  A    
C31   O37   A    
C84   O26   A    
C34   C39   S    
C10   H29   S    
C129  O31   A    
C36   C40   S    
C34   C44   S    
C127  C136  A    
C46   C65   A    
Cr11  O51   S    
C63   H44   S    
C51   C87   A    
C71   C73   A    
Cr3   O3    S    
C131  O32   A    
C56   C87   A    
C39   C43   S    
C65   H46   S    
Cr2   O2    S    
C6    C10   A    
C26   C91   S    
C65   C71   A    
Cr1   O1    S    
C46   C51   A    
Cr3   O29   S    
C56   H41   S    
C2    C46   A    
C56   C60   A    
C18   C31   S    
Cr2   O28   S    
C28   C93   S    
C67   C69   A    
C104  C111  A    
C37   H33   S    
C76   H54   S    
C57   H42   S    
C9    C14   A    
C18   C122  A    
C13   C53   S    
Cr8   O18   S    
C37   C38   S    
C126  H10   S    
C25   O48   A    
C97   H37   S    
C103  H64   S    
C23   C113  S    
C26   O45   A    
C44   C97   S    
C21   O40   A    
C28   O50   A    
C55   H40   S    
C63   C70   A    
C22   C114  S    
Cr12  O9    S    
C8    C12   A    
C19   C123  A    
Cr1   O14   S    
C35   C50   A    
C73   H57   S    
C27   O2    A    
C53   O19   A    
C47   C84   S    
C41   C119  S    
C32   O38   A    
C35   C130  A    
Cr6   O38   S    
C114  C118  A    
C87   C131  S    
C14   C122  A    
C54   C89   A    
C128  C137  A    
C15   Cl3   S    
C20   C33   S    
Cr7   O43   S    
C55   C85   A    
C83   O29   A    
C58   H43   S    
C115  C120  A    
Cr6   O16   S    
C74   C79   A    
Cr9   O19   S    
C74   H53   S    
C84   O30   A    
C43   C81   S    
C30   O36   A    
Cr3   O33   S    
C1    O18   A    
C37   C47   S    
C88   C132  S    
Cr4   O35   S    
C40   C44   S    
Cr10  O47   S    
Cr8   O9    S    
C50   C77   A    
Cr12  O31   S    
C40   H12   S    
Cr12  O52   S    
C95   C104  A    
C57   C88   A    
Cr2   O6    S    
C133  O35   A    
C17   C121  A    
C24   C49   A    
C136  H20   S    
C100  H56   S    
C24   C62   A    
C49   C67   A    
Cr8   O45   S    
Cr2   O32   S    
Cr1   O9    S    
C36   H32   S    
C43   C86   S    
C81   O22   A    
Cr5   O37   S    
C3    C120  A    
C76   C80   A    
C5    C9    A    
Cr9   O24   S    
C75   O21   A    
C64   O20   A    
C126  C135  A    
C13   C48   A    
C35   C63   A    
Cr4   O13   S    
C45   C108  S    
C132  O23   A    
C57   C61   A    
C132  O33   A    
C111  H8    S    
Cr10  O25   S    
Cr7   O39   S    
C131  O12   A    
Cr1   O40   S    
C94   C103  A    
C33   O39   A    
C23   O42   A    
C44   C82   S    
C21   C115  S    
C98   C106  A    
C99   C100  A    
C82   O24   A    
C101  H62   S    
C11   H30   S    
C91   C99   A    
Cr2   O10   S    
C133  O34   A    
C3    H17   S    
C51   C78   A    
C135  H19   S    
C1    O14   A    
Cr4   O30   S    
C18   C126  A    
C26   O52   A    
C66   H47   S    
C59   F1    S    
C22   O41   A    
C17   C125  A    
C79   H60   S    
Cr11  O13   S    
C42   C108  S    
C112  C134  A    
Cr5   O15   S    
C34   C36   S    
Cr9   O10   S    
C62   F4    S    
C118  C123  A    
C108  H38   S    
C37   C41   S    
C94   C95   A    
C52   C88   A    
C27   C90   S    
C64   O16   A    
C11   C16   A    
C109  H6    S    
C116  C138  A    
C4    C138  A    
C38   C42   S    
C75   O17   A    
C48   C52   A    
C72   H55   S    
C13   C61   A    
C137  H21   S    
C91   C95   A    
C71   H52   S    
C113  C135  A    
C129  O1    A    
C41   C45   S    
C4    H22   S    
C41   H23   S    
C36   C43   S    
C70   C72   A    
C69   H50   S    
C19   C127  A    
C29   O4    A    
C48   C66   A    
Cr9   O49   S    
C16   C124  A    
C68   C74   A    
C93   C98   A    
C106  C109  A    
C29   C92   S    
C67   H48   S    
C49   C54   A    
Cr7   O34   S    
C20   C124  A    
C140  H16   S    
C120  C124  A    
C52   C79   A    
Cr3   O11   S    
