data_str_m3_o5_o29_f0_pcu.sym.72
_audit_creation_date              2013-03-05T16:48:44-0500
_audit_creation_method            fapswitch 2.2
_symmetry_space_group_name_H-M    P1
_symmetry_Int_Tables_number       1
_space_group_crystal_system       triclinic
_cell_length_a                    27.727424
_cell_length_b                    9.042619
_cell_length_c                    8.08905
_cell_angle_alpha                 89.99015
_cell_angle_beta                  90.000048
_cell_angle_gamma                 90.000024
_cell_volume                      2028.15559439

loop_
_atom_site_label
_atom_site_type_symbol
_atom_site_description
_atom_site_fract_x
_atom_site_fract_y
_atom_site_fract_z
_atom_type_partial_charge
O1    O     O_R   0.500000 0.285350 0.636850 -0.614699
O2    O     O_R   0.500000 0.714650 0.363150 -0.614699
O3    O     O_R   0.500000 0.714650 0.636850 -0.614947
O4    O     O_R   0.500000 0.285350 0.363150 -0.614947
C1    C     C_R   0.500000 0.217733 0.500009 0.937287
C2    C     C_R   0.500000 0.782266 0.499991 0.937287
O5    O     O_R   0.428760 0.500000 0.636860 -0.623626
O6    O     O_R   0.571240 0.500000 0.363140 -0.623547
O7    O     O_R   0.571240 0.500000 0.636860 -0.623547
O8    O     O_R   0.428760 0.500000 0.363140 -0.623626
C3    C     C_R   0.405700 0.500000 0.500000 0.956603
C4    C     C_R   0.594299 0.500000 0.500000 0.956485
Zn1   Zn    Zn3+2 0.500000 0.500000 0.682780 1.012014
Zn2   Zn    Zn3+2 0.500000 0.500000 0.317220 1.012014
C5    C     C_R   0.177269 0.370874 0.469335 0.652851
C6    C     C_R   0.822679 0.629042 0.468822 0.652683
C7    C     C_R   0.177269 0.629132 0.530663 0.652851
C8    C     C_R   0.822679 0.370963 0.531181 0.652682
O9    O     O_2   0.202326 0.245585 0.440043 -0.504930
O10   O     O_2   0.797607 0.754174 0.438806 -0.505625
O11   O     O_2   0.202326 0.754422 0.559955 -0.504929
O12   O     O_2   0.797607 0.245831 0.561197 -0.505625
N1    N     N_R   0.201170 0.500003 0.499999 -0.324530
N2    N     N_R   0.798792 0.500002 0.500002 -0.324134
C9    C     C_R   0.277536 0.499590 0.650173 0.667842
C10   C     C_R   0.722462 0.493445 0.349938 0.667235
C11   C     C_R   0.277535 0.500415 0.349825 0.667842
C12   C     C_R   0.722462 0.506558 0.650065 0.667236
C13   C     C_R   0.327647 0.499598 0.650247 -0.283509
C14   C     C_R   0.672350 0.493499 0.349850 -0.283055
C15   C     C_R   0.327647 0.500405 0.349752 -0.283509
C16   C     C_R   0.672350 0.506503 0.650151 -0.283055
C17   C     C_R   0.252521 0.500003 0.499999 0.003566
C18   C     C_R   0.747459 0.500002 0.500001 0.005156
C19   C     C_R   0.101412 0.500003 0.500000 -0.057404
C20   C     C_R   0.898536 0.500003 0.500001 -0.057249
C21   C     C_R   0.126833 0.368452 0.468888 -0.060607
C22   C     C_R   0.873115 0.631498 0.468498 -0.060380
C23   C     C_R   0.126833 0.631555 0.531111 -0.060607
C24   C     C_R   0.873115 0.368507 0.531506 -0.060379
C25   C     C_R   0.101502 0.239250 0.432111 -0.279460
C26   C     C_R   0.898445 0.760650 0.431459 -0.279351
C27   C     C_R   0.101502 0.760757 0.567889 -0.279460
C28   C     C_R   0.898445 0.239356 0.568544 -0.279351
C29   C     C_R   0.353010 0.500001 0.500000 -0.234193
C30   C     C_R   0.646987 0.500000 0.500000 -0.233941
H1    H     H_    0.346490 0.500825 0.232452 0.210081
H2    H     H_    0.653505 0.511861 0.767355 0.209984
H3    H     H_    0.346490 0.499177 0.767547 0.210081
H4    H     H_    0.653506 0.488140 0.232646 0.209984
H5    H     H_    0.120862 0.139925 0.397226 0.195003
H6    H     H_    0.879085 0.859915 0.396330 0.195147
H7    H     H_    0.120862 0.860081 0.602773 0.195003
H8    H     H_    0.879085 0.140091 0.603674 0.195147
C31   C     C_R   0.974724 0.365009 0.514857 0.045345
C32   C     C_R   0.025223 0.635013 0.514572 0.045444
C33   C     C_R   0.974723 0.634997 0.485145 0.045345
C34   C     C_R   0.025223 0.364993 0.485428 0.045444
C35   C     C_R   0.949389 0.500003 0.500001 -0.091649
C36   C     C_R   0.050558 0.500003 0.500000 -0.091532
C37   C     C_R   0.949009 0.237829 0.566480 0.499906
C38   C     C_R   0.050938 0.762249 0.565945 0.499691
C39   C     C_R   0.949009 0.762177 0.433522 0.499905
C40   C     C_R   0.050938 0.237758 0.434056 0.499690
C41   C     C_1   0.500000 0.064940 0.500012 -0.165442
C42   C     C_1   0.500000 0.935060 0.499987 -0.165442
N3    N     N_1   0.500000 0.500000 0.073640 -0.029460
N4    N     N_1   0.500000 0.500000 0.926360 -0.029460
F1    F     F_    0.253210 0.501420 0.204251 -0.581215
F2    F     F_    0.746805 0.513531 0.795465 -0.581884
F3    F     F_    0.253210 0.498586 0.795748 -0.581215
F4    F     F_    0.746806 0.486473 0.204537 -0.581884
O13   O     O_3   0.973641 0.120016 0.633131 -0.687839
H9    H     H_    0.950291 0.044842 0.672863 0.361579
O14   O     O_3   0.026310 0.880089 0.632495 -0.687688
H10   H     H_    0.049665 0.955224 0.672257 0.361581
O15   O     O_3   0.973640 0.879990 0.366872 -0.687839
H11   H     H_    0.950290 0.955164 0.327140 0.361579
O16   O     O_3   0.026310 0.119918 0.367506 -0.687688
H12   H     H_    0.049664 0.044782 0.327744 0.361581

loop_
_geom_bond_atom_site_label_1
_geom_bond_atom_site_label_2
_geom_bond_distance
_ccdc_geom_bond_type
C31   C35   1.413485 A    
C10   F4    1.357550 S    
O13   H9    0.992212 S    
C20   C35   1.410034 A    
C13   H3    1.083190 S    
O15   H11   0.992212 S    
C11   C17   1.398828 A    
C5    O9    1.350005 S    
C7    N1    1.365381 A    
C2    C42   1.381649 S    
O1    C1    1.264650 A    
C19   C21   1.405466 A    
C22   C26   1.395298 A    
C33   C35   1.413484 A    
C34   C36   1.413456 A    
C32   C33   1.420318 A    
C7    C23   1.398639 A    
C8    C24   1.398636 A    
C5    C21   1.398639 A    
C20   C24   1.405533 A    
O7    Zn1   2.009921 S    
C27   H7    1.083764 S    
N1    C17   1.423825 S    
Zn2   N3    1.970331 S    
C9    F3    1.357070 S    
O3    Zn1   1.976172 S    
C6    O10   1.349995 S    
O3    C2    1.264592 A    
C5    N1    1.365382 A    
C14   H4    1.083609 S    
C12   C18   1.399077 A    
C6    N2    1.365184 A    
C15   H1    1.083189 S    
C21   C25   1.395314 A    
C16   H2    1.083609 S    
O2    C2    1.264650 A    
C10   C18   1.399076 A    
C33   C39   1.416037 A    
C9    C13   1.389457 A    
C11   C15   1.389457 A    
N3    N4    1.191354 T    
C12   C16   1.389474 A    
C8    N2    1.365184 A    
C4    C30   1.460900 S    
O8    Zn2   2.009924 S    
C23   C27   1.395315 A    
C34   C40   1.415972 A    
C37   O13   1.375447 S    
C7    O11   1.350005 S    
C32   C36   1.413456 A    
C13   C29   1.404170 A    
C19   C36   1.410062 A    
C19   C23   1.405466 A    
O14   H10   0.992211 S    
O5    C3    1.278444 A    
O5    Zn1   2.009923 S    
O6    C4    1.278430 A    
C1    C41   1.381649 S    
C10   C14   1.389474 A    
C40   O16   1.375424 S    
C32   C38   1.415972 A    
C38   O14   1.375423 S    
C3    C29   1.460955 S    
O1    Zn1   1.976299 S    
C39   O15   1.375448 S    
O6    Zn2   2.009920 S    
C8    O12   1.349995 S    
C16   C30   1.404723 A    
C14   C30   1.404724 A    
C12   F2    1.357549 S    
O4    C1    1.264592 A    
C11   F1    1.357071 S    
C28   C37   1.402169 A    
C20   C22   1.405533 A    
C31   C37   1.416038 A    
O4    Zn2   1.976173 S    
O2    Zn2   1.976298 S    
O7    C4    1.278430 A    
N2    C18   1.423346 S    
C9    C17   1.398829 A    
O8    C3    1.278444 A    
O16   H12   0.992211 S    
C28   H8    1.083763 S    
C24   C28   1.395296 A    
C41   C42   1.174464 T    
C15   C29   1.404172 A    
C31   C34   1.420317 A    
C6    C22   1.398636 A    
C25   C40   1.402160 A    
C26   C39   1.402166 A    
C25   H5    1.083764 S    
C27   C38   1.402160 A    
C26   H6    1.083764 S    
Zn1   N4    1.970331 S    
