data_str_m3_o40_o40_f0_fof.sym.11
_audit_creation_date              2012-12-10T16:37:22-0500
_audit_creation_method            fapswitch 2.2
_symmetry_space_group_name_H-M    P1
_symmetry_Int_Tables_number       1
_space_group_crystal_system       triclinic
_cell_length_a                    16.810074
_cell_length_b                    16.945985
_cell_length_c                    16.677066
_cell_angle_alpha                 66.41942
_cell_angle_beta                  65.889614
_cell_angle_gamma                 65.762587
_cell_volume                      3796.81525579

loop_
_atom_site_label
_atom_site_type_symbol
_atom_type_description
_atom_site_fract_x
_atom_site_fract_y
_atom_site_fract_z
_atom_type_partial_charge
C1    C     C_R   0.397061 0.083667 0.646855 -0.220650
C2    C     C_R   0.461663 0.696883 0.923788 -0.217952
C3    C     C_R   0.904758 0.603037 0.353087 -0.208765
C4    C     C_R   0.019203 0.411012 0.670956 -0.221497
C5    C     C_R   0.968148 0.178342 0.435792 0.942456
C6    C     C_R   0.023024 0.822606 0.568191 0.920172
C7    C     C_R   0.179838 0.437915 0.960942 0.915307
C8    C     C_R   0.820484 0.561772 0.038642 0.920867
C9    C     C_R   0.439971 0.958139 0.179304 0.955975
C10   C     C_R   0.559071 0.043567 0.820987 0.916182
C11   C     C_R   0.568680 0.823040 0.022956 0.953248
C12   C     C_R   0.599353 0.923891 0.352796 -0.215391
C13   C     C_R   0.437702 0.179219 0.962334 0.922462
C14   C     C_R   0.036461 0.561959 0.820317 0.918639
C15   C     C_R   0.967566 0.435926 0.178812 0.943642
C16   C     C_R   0.821941 0.025086 0.568666 0.945022
C17   C     C_R   0.177359 0.976521 0.431123 0.931028
C18   C     C_R   0.442180 0.090999 0.696619 -0.170568
C19   C     C_R   0.554807 0.915572 0.303399 -0.161913
C20   C     C_R   0.946876 0.738870 0.497403 -0.187329
C21   C     C_R   0.922758 0.292018 0.558702 -0.169943
C22   C     C_R   0.704198 0.450310 0.061206 -0.155195
C23   C     C_R   0.923747 0.697863 0.456372 -0.222934
C24   C     C_R   0.298347 0.555296 0.919053 -0.162912
C25   C     C_R   0.264256 0.060221 0.486236 -0.167867
C26   C     C_R   0.731140 0.945685 0.513815 -0.167409
C27   C     C_R   0.554751 0.288360 0.938211 -0.160178
C28   C     C_R   0.507981 0.738884 0.939244 -0.164625
C29   C     C_R   0.904707 0.553790 0.303034 -0.177825
C30   C     C_R   0.048243 0.451825 0.707137 -0.156360
C31   C     C_R   0.542038 0.014778 0.549204 0.028428
C32   C     C_R   0.453953 0.992760 0.450206 0.029434
C33   C     C_R   0.973235 0.553935 0.561458 0.031697
C34   C     C_R   0.935945 0.335842 0.605165 -0.233765
C35   C     C_R   0.935648 0.466487 0.474142 0.032548
C36   C     C_R   0.558376 0.551469 0.985884 0.032570
C37   C     C_R   0.468300 0.463674 0.951932 0.033085
C38   C     C_R   0.594111 0.969510 0.479895 0.046812
C39   C     C_R   0.401602 0.037789 0.519761 0.044621
C40   C     C_R   0.979007 0.461453 0.599520 0.044994
C41   C     C_R   0.926340 0.559501 0.436891 0.044928
C42   C     C_R   0.482352 0.602489 0.951206 0.046079
C43   C     C_R   0.552908 0.415988 0.971374 0.048734
C44   C     C_R   0.550239 0.961111 0.427951 0.044465
C45   C     C_R   0.664390 0.407765 0.038142 -0.220675
C46   C     C_R   0.445698 0.046529 0.571563 0.043571
C47   C     C_R   0.432108 0.557303 0.942409 0.045739
C48   C     C_R   0.592754 0.457550 0.997807 0.043792
C49   C     C_R   0.950884 0.420642 0.560553 0.048008
C50   C     C_R   0.940048 0.604467 0.484261 0.053646
C51   C     C_R   0.537682 0.063631 0.672185 0.042778
C52   C     C_R   0.459445 0.942703 0.327496 0.030601
C53   C     C_R   0.990965 0.689195 0.566832 0.030820
C54   C     C_R   0.935906 0.326416 0.463112 0.028093
C55   C     C_R   0.676508 0.544754 0.042116 0.044657
C56   C     C_R   0.347222 0.602116 0.924045 -0.221596
C57   C     C_R   0.331424 0.461090 0.932390 0.034208
C58   C     C_R   0.313927 0.004407 0.427267 0.019030
C59   C     C_R   0.682688 0.001399 0.572386 0.007907
C60   C     C_R   0.461836 0.326202 0.940232 0.029442
C61   C     C_R   0.571764 0.689074 0.989941 0.009788
C62   C     C_R   0.929043 0.458877 0.333144 0.014215
C63   C     C_R   0.033716 0.545733 0.677363 0.032651
C64   C     C_R   0.586440 0.069965 0.720984 -0.218744
C65   C     C_R   0.411492 0.934535 0.279149 -0.174665
C66   C     C_R   0.026387 0.727961 0.603348 -0.179195
C67   C     C_R   0.306892 0.075763 0.532154 -0.214598
C68   C     C_R   0.956813 0.273642 0.404052 -0.205333
C69   C     C_R   0.721371 0.591171 0.057156 -0.218443
C70   C     C_R   0.280709 0.409794 0.933207 -0.182388
C71   C     C_R   0.272484 0.970727 0.393167 -0.209303
C72   C     C_R   0.725858 0.032527 0.607153 -0.174096
C73   C     C_R   0.410461 0.278280 0.936745 -0.185044
C74   C     C_R   0.606537 0.729004 0.025361 -0.165482
C75   C     C_R   0.954754 0.402443 0.276152 -0.175262
C76   C     C_R   0.051741 0.591126 0.721240 -0.178950
C77   C     C_R   0.674659 0.074366 0.677178 0.124732
C78   C     C_R   0.688482 0.930449 0.468051 -0.210057
C79   C     C_R   0.324156 0.928515 0.323599 0.111235
C80   C     C_R   0.064487 0.674713 0.675169 0.111710
C81   C     C_R   0.983806 0.309531 0.310258 0.111679
C82   C     C_R   0.676144 0.676942 0.066556 0.115592
C83   C     C_R   0.326638 0.324399 0.919550 0.120898
C84   C     C_R   0.587164 0.027849 0.596980 0.078647
C85   C     C_R   0.409365 0.979088 0.402432 0.077667
C86   C     C_R   0.000177 0.596135 0.601216 0.072800
C87   C     C_R   0.933064 0.417527 0.423652 0.080588
C88   C     C_R   0.601305 0.594886 0.007166 0.075413
C89   C     C_R   0.597285 0.329712 0.958811 -0.224708
C90   C     C_R   0.420518 0.417129 0.941145 0.069195
C91   C     C_3   0.757090 0.097235 0.756742 -0.657619
C92   C     C_3   0.248043 0.895626 0.245560 -0.643107
C93   C     C_3   0.204863 0.705117 0.645633 -0.758082
C94   C     C_3   0.050204 0.210016 0.206720 -0.633275
C95   C     C_3   0.752143 0.755117 0.098998 -0.661292
C96   C     C_3   0.279270 0.329049 0.797257 -0.786461
H1    H     H_    0.323623 0.105915 0.670570 0.133994
H2    H     H_    0.412155 0.739825 0.886810 0.139272
H3    H     H_    0.891373 0.674708 0.322175 0.129998
H4    H     H_    0.033136 0.338627 0.696699 0.134657
H5    H     H_    0.401666 0.121504 0.752347 0.166715
H6    H     H_    0.595759 0.884145 0.248473 0.156111
H7    H     H_    0.928434 0.810358 0.471195 0.171809
H8    H     H_    0.905072 0.230527 0.599393 0.176144
H9    H     H_    0.755028 0.407869 0.096894 0.160575
H10   H     H_    0.236491 0.595643 0.899854 0.174745
H11   H     H_    0.192076 0.094098 0.496829 0.172705
H12   H     H_    0.672790 0.902109 0.328919 0.130876
H13   H     H_    0.802321 0.911381 0.504060 0.156441
H14   H     H_    0.598308 0.228170 0.917402 0.166609
H15   H     H_    0.493122 0.810821 0.909211 0.181662
H16   H     H_    0.886592 0.591788 0.240319 0.160396
H17   H     H_    0.085099 0.407883 0.756662 0.163418
H18   H     H_    0.655355 0.194450 0.698855 0.210511
H19   H     H_    0.778969 0.022296 0.778330 0.251027
H20   H     H_    0.716432 0.122032 0.818314 0.204028
H21   H     H_    0.818593 0.120829 0.724220 0.216169
H22   H     H_    0.272935 0.819973 0.371723 0.219526
H23   H     H_    0.891813 0.741866 0.403175 0.127485
H24   H     H_    0.185020 0.874271 0.278187 0.213818
H25   H     H_    0.291051 0.864496 0.188549 0.233946
H26   H     H_    0.227765 0.970275 0.218059 0.240913
H27   H     H_    0.077171 0.756057 0.734512 0.257682
H28   H     H_    0.239910 0.719810 0.679492 0.232112
H29   H     H_    0.202420 0.757787 0.579539 0.237005
H30   H     H_    0.244868 0.638263 0.632612 0.239422
H31   H     H_    0.116145 0.221312 0.282500 0.210219
H32   H     H_    0.081953 0.136260 0.230967 0.213662
H33   H     H_    0.976853 0.223213 0.216373 0.238765
H34   H     H_    0.932257 0.303460 0.676631 0.137499
H35   H     H_    0.085748 0.231652 0.132657 0.230791
H36   H     H_    0.694270 0.653012 0.191434 0.207947
H37   H     H_    0.811782 0.714620 0.125870 0.204188
H38   H     H_    0.717636 0.815201 0.125305 0.218367
H39   H     H_    0.776667 0.777631 0.023021 0.253731
H40   H     H_    0.239279 0.255570 0.935778 0.255024
H41   H     H_    0.345008 0.339082 0.747144 0.244767
H42   H     H_    0.226176 0.395377 0.795592 0.232076
H43   H     H_    0.258568 0.287108 0.776955 0.221638
H44   H     H_    0.688246 0.334998 0.055946 0.139707
H45   H     H_    0.315547 0.673543 0.915725 0.137199
H46   H     H_    0.263714 0.118954 0.576242 0.136955
H47   H     H_    0.731416 0.886347 0.424857 0.130532
H48   H     H_    0.667441 0.295232 0.959108 0.135948
N1    N     N_2   0.704395 0.133884 0.692525 -0.296292
N2    N     N_2   0.297695 0.864662 0.311447 -0.296964
N3    N     N_2   0.113785 0.703966 0.704678 -0.289246
N4    N     N_2   0.062335 0.257345 0.254863 -0.288604
N5    N     N_2   0.689106 0.703121 0.131237 -0.301073
N6    N     N_2   0.290014 0.283547 0.888009 -0.281396
O1    O     O_R   0.982940 0.138950 0.510160 -0.657766
O2    O     O_R   0.982940 0.510160 0.138950 -0.641231
O3    O     O_R   0.861050 0.017060 0.489840 -0.649301
O4    O     O_R   0.138950 0.982940 0.510160 -0.634215
O5    O     O_R   0.867700 0.025880 0.612340 -0.616498
O6    O     O_R   0.132300 0.974120 0.387660 -0.622941
O7    O     O_R   0.025880 0.612340 0.867700 -0.615508
O8    O     O_R   0.974120 0.387660 0.132300 -0.618655
O9    O     O_R   0.612340 0.867700 0.025880 -0.618327
O10   O     O_R   0.387660 0.132300 0.974120 -0.619209
O11   O     O_R   0.387660 0.974120 0.132300 -0.614482
O12   O     O_R   0.017060 0.861050 0.489840 -0.652504
O13   O     O_R   0.612340 0.025880 0.867700 -0.626161
O14   O     O_R   0.132300 0.387660 0.974120 -0.633150
O15   O     O_R   0.867700 0.612340 0.025880 -0.618590
O16   O     O_R   0.974120 0.132300 0.387660 -0.617995
O17   O     O_R   0.025880 0.867700 0.612340 -0.629037
O18   O     O_R   0.138950 0.510160 0.982940 -0.630393
O19   O     O_R   0.861050 0.489840 0.017060 -0.631412
O20   O     O_R   0.510160 0.982940 0.138950 -0.632493
O21   O     O_R   0.489840 0.017060 0.861050 -0.639964
O22   O     O_R   0.489840 0.861050 0.017060 -0.652463
O23   O     O_R   0.510160 0.138950 0.982940 -0.645137
O24   O     O_R   0.017060 0.489840 0.861050 -0.636494
Zn1   Zn    Zn3+2 0.004880 0.004880 0.583590 0.903376
Zn2   Zn    Zn3+2 0.995120 0.995120 0.416410 0.894843
Zn3   Zn    Zn3+2 0.004880 0.583590 0.004880 0.917652
Zn4   Zn    Zn3+2 0.995120 0.416410 0.995120 0.907147
Zn5   Zn    Zn3+2 0.583590 0.004880 0.004880 0.902679
Zn6   Zn    Zn3+2 0.416410 0.995120 0.995120 0.911972

loop_
_geom_bond_atom_site_label_1
_geom_bond_atom_site_label_2
_ccdc_geom_bond_type
C15   C75   S    
C7    O18   A    
C58   C85   A    
C10   O13   A    
C65   C79   A    
O15   Zn3   S    
C64   C77   A    
C41   C50   A    
C29   H16   S    
C36   C42   A    
C16   C72   S    
C93   H28   S    
C36   C48   A    
C7    C70   S    
C71   C79   A    
C11   O9    A    
C20   H7    S    
C36   C88   A    
C2    H2    S    
C13   O23   A    
O3    Zn2   S    
C1    C18   A    
C26   C78   A    
O4    Zn1   S    
C68   C81   A    
C52   C85   A    
C74   C82   A    
C54   C68   A    
C27   C60   A    
C23   H23   S    
C54   C87   A    
C19   H6    S    
C58   C71   A    
O12   Zn2   S    
C63   C76   A    
O23   Zn5   S    
O18   Zn3   S    
C60   C73   A    
C95   H37   S    
C91   H20   S    
C32   C39   A    
O2    Zn3   S    
C3    C29   A    
C93   H30   S    
O10   Zn6   S    
C69   C82   A    
C29   C62   A    
C21   H8    S    
C35   C87   A    
C19   C52   A    
C80   N3    S    
C3    C41   A    
C4    C40   A    
C27   H14   S    
C24   C57   A    
C31   C46   A    
C25   C67   A    
C35   C49   A    
C91   H21   S    
C27   C89   A    
C53   C86   A    
C95   N5    S    
C57   C70   A    
C37   C47   A    
C43   C48   A    
O24   Zn4   S    
C13   O10   A    
C59   C72   A    
C83   N6    S    
C28   C61   A    
O22   Zn6   S    
C11   O22   A    
C30   C63   A    
H36   N5    S    
C9    O20   A    
C96   H43   S    
C5    C68   S    
C35   C41   A    
C17   O4    A    
C15   O2    A    
C18   C51   A    
C79   N2    S    
C9    C65   S    
C28   H15   S    
C94   N4    S    
C33   C40   A    
O1    Zn1   S    
C57   C90   A    
C14   O7    A    
C92   N2    S    
C94   H33   S    
C6    O12   A    
H22   N2    S    
C59   C84   A    
C15   O8    A    
C1    H1    S    
C96   H41   S    
C12   H12   S    
C75   C81   A    
C23   C50   A    
O7    Zn3   S    
C21   C34   A    
C38   C78   A    
C33   C50   A    
C95   H38   S    
C31   C84   A    
C18   H5    S    
C14   C76   S    
C37   C43   A    
C33   C86   A    
C38   C44   A    
C72   C77   A    
C70   C83   A    
C61   C88   A    
C92   H26   S    
C92   H24   S    
C20   C23   A    
C81   N4    S    
C96   N6    S    
C16   O5    A    
C95   H39   S    
C8    C69   S    
C43   C89   A    
C5    O16   A    
O11   Zn6   S    
C9    O11   A    
C53   C66   A    
C26   H13   S    
C34   H34   S    
C55   C69   A    
C39   C46   A    
C56   H45   S    
C37   C90   A    
H27   N3    S    
C17   C71   S    
C60   C90   A    
C4    H4    S    
C63   C86   A    
O13   Zn5   S    
O21   Zn6   S    
C24   H10   S    
C25   C58   A    
C89   H48   S    
C55   C88   A    
C77   N1    S    
O19   Zn4   S    
C91   N1    S    
O14   Zn4   S    
C8    O19   A    
C25   H11   S    
O17   Zn1   S    
C26   C59   A    
C45   C48   A    
O5    Zn1   S    
C6    O17   A    
O6    Zn2   S    
C34   C49   A    
C39   C67   A    
C10   C64   S    
C51   C64   A    
C76   C80   A    
H18   N1    S    
C13   C73   S    
C20   C53   A    
C11   C74   S    
H40   N6    S    
C22   C55   A    
C94   H32   S    
C61   C74   A    
C24   C56   A    
C22   H9    S    
C66   C80   A    
C62   C87   A    
H31   N4    S    
O16   Zn2   S    
C94   H35   S    
C5    O1    A    
C31   C38   A    
O20   Zn5   S    
C10   O21   A    
C14   O24   A    
C92   H25   S    
C96   H42   S    
C17   O6    A    
C21   C54   A    
C2    C42   A    
C32   C85   A    
C12   C19   A    
C91   H19   S    
C93   N3    S    
C42   C47   A    
C45   H44   S    
O8    Zn4   S    
C1    C46   A    
C93   H29   S    
C82   N5    S    
C8    O15   A    
C52   C65   A    
C3    H3    S    
C6    C66   S    
C22   C45   A    
O9    Zn5   S    
C32   C44   A    
C12   C44   A    
C16   O3    A    
C2    C28   A    
C7    O14   A    
C78   H47   S    
C67   H46   S    
C51   C84   A    
C73   C83   A    
C4    C30   A    
C62   C75   A    
C40   C49   A    
C47   C56   A    
C30   H17   S    
