data_str_m4_o1_o1_f0_acs.sym.11
_audit_creation_date              2012-12-11T14:49:42-0500
_audit_creation_method            fapswitch 2.2
_symmetry_space_group_name_H-M    P1
_symmetry_Int_Tables_number       1
_space_group_crystal_system       triclinic
_cell_length_a                    10.951651
_cell_length_b                    10.934693
_cell_length_c                    18.993273
_cell_angle_alpha                 89.969539
_cell_angle_beta                  89.948253
_cell_angle_gamma                 119.839464
_cell_volume                      1972.9516882

loop_
_atom_site_label
_atom_site_type_symbol
_atom_type_description
_atom_site_fract_x
_atom_site_fract_y
_atom_site_fract_z
_atom_type_partial_charge
C1    C     C_R   0.527638 0.464727 0.645587 0.562763
C2    C     C_R   0.466254 0.529600 0.354115 0.579061
C3    C     C_R   0.473525 0.939372 0.146170 0.552559
C4    C     C_R   0.063115 0.533495 0.354120 0.588365
C5    C     C_R   0.379366 0.963747 0.541220 -0.197542
C6    C     C_R   0.632755 0.582548 0.967967 -0.197183
C7    C     C_R   0.035607 0.414659 0.540960 -0.197444
C8    C     C_R   0.425096 0.060912 0.969231 -0.173647
C9    C     C_R   0.585063 0.620472 0.540814 -0.197611
C10   C     C_R   0.958504 0.376339 0.967702 -0.203733
C11   C     C_R   0.991928 0.397986 0.038815 -0.181227
C12   C     C_R   0.939045 0.471222 0.853112 0.575332
C13   C     C_R   0.579286 0.633742 0.468216 -0.200280
C14   C     C_R   0.421018 0.044381 0.041983 -0.182334
C15   C     C_R   0.054219 0.420052 0.468326 -0.201225
C16   C     C_R   0.620314 0.588483 0.040637 -0.191793
C17   C     C_R   0.365878 0.944785 0.468612 -0.200696
C18   C     C_R   0.486024 0.986353 0.426362 0.041535
C19   C     C_R   0.490747 0.502294 0.072982 0.050325
C20   C     C_R   0.013345 0.499755 0.426328 0.039899
C21   C     C_R   0.501102 0.992669 0.073645 0.040467
C22   C     C_R   0.500014 0.513421 0.426276 0.042594
C23   C     C_R   0.535325 0.062725 0.645623 0.563671
C24   C     C_R   0.058473 0.534860 0.065961 0.024745
C25   C     C_R   0.000802 0.492409 0.922511 0.037637
C26   C     C_R   0.503692 0.489016 0.572392 0.051591
C27   C     C_R   0.503829 0.018612 0.927422 0.031996
C28   C     C_R   0.985828 0.496584 0.572461 0.051718
C29   C     C_R   0.512940 0.498707 0.926662 0.041238
C30   C     C_R   0.510971 0.014263 0.572483 0.051575
C31   C     C_R   0.618947 0.042501 0.457477 0.092938
C32   C     C_R   0.374573 0.404473 0.031782 0.104847
C33   C     C_R   0.958041 0.577535 0.457683 0.092594
C34   C     C_R   0.529540 0.466164 0.854210 0.575458
C35   C     C_R   0.595534 0.969438 0.031887 0.109729
C36   C     C_R   0.422909 0.380569 0.457674 0.093090
C37   C     C_R   0.085696 0.649409 0.021171 0.081856
C38   C     C_R   0.072569 0.629745 0.949150 0.137550
C39   C     C_R   0.410878 0.371251 0.530481 0.107929
C40   C     C_R   0.582940 0.965162 0.959147 0.090940
C41   C     C_R   0.960996 0.589780 0.530470 0.107978
C42   C     C_R   0.381704 0.416185 0.958976 0.092976
C43   C     C_R   0.628639 0.039641 0.530267 0.107377
C44   C     C_R   0.937421 0.472507 0.645626 0.563397
C45   C     C_R   0.534473 0.064426 0.854510 0.572030
C46   C     C_R   0.465160 0.527236 0.145821 0.557651
C47   C     C_R   0.470144 0.936646 0.354149 0.581908
C48   C     C_R   0.108359 0.562494 0.138565 0.555596
Cr1   Cr    Cr6+3 0.776430 0.541680 0.750000 1.049308
Cr2   Cr    Cr6+3 0.765250 0.223570 0.750000 1.050732
Cr3   Cr    Cr6+3 0.458320 0.234750 0.750000 1.049322
Cr4   Cr    Cr6+3 0.541680 0.776430 0.250000 1.045608
Cr5   Cr    Cr6+3 0.223570 0.765250 0.250000 1.023888
Cr6   Cr    Cr6+3 0.234750 0.458320 0.250000 1.049743
H1    H     H_    0.287501 0.937954 0.573012 0.134024
H2    H     H_    0.101213 0.362674 0.445147 0.145823
H3    H     H_    0.711668 0.658455 0.071642 0.130952
H4    H     H_    0.261675 0.897120 0.445643 0.146236
H5    H     H_    0.807552 0.204941 0.427437 0.231321
H6    H     H_    0.797711 0.044515 0.424637 0.223838
H7    H     H_    0.238736 0.195053 0.045105 0.211398
H8    H     H_    0.162957 0.296735 0.048384 0.227047
H9    H     H_    0.796759 0.606338 0.427993 0.231204
H10   H     H_    0.957479 0.755471 0.425167 0.223560
H11   H     H_    0.803607 0.036838 0.044837 0.208507
H12   H     H_    0.735918 0.643298 0.944186 0.151418
H13   H     H_    0.697887 0.859350 0.047377 0.229893
H14   H     H_    0.394904 0.190694 0.427905 0.231202
H15   H     H_    0.245611 0.202561 0.425365 0.223631
H16   H     H_    0.202488 0.821670 0.079221 0.271174
H17   H     H_    0.029255 0.772177 0.076058 0.251302
H18   H     H_    0.233404 0.809968 0.910171 0.239467
H19   H     H_    0.078554 0.809931 0.915851 0.253795
H20   H     H_    0.203698 0.228359 0.543799 0.206943
H21   H     H_    0.311786 0.159190 0.545140 0.230613
H22   H     H_    0.612555 0.803664 0.930536 0.229997
H23   H     H_    0.060971 0.347891 0.572584 0.133739
H24   H     H_    0.760968 0.964998 0.926877 0.226122
H25   H     H_    0.025248 0.797448 0.543533 0.206885
H26   H     H_    0.848523 0.689697 0.545137 0.230364
H27   H     H_    0.187326 0.376661 0.930851 0.231193
H28   H     H_    0.208834 0.232881 0.927672 0.225045
H29   H     H_    0.772740 0.976161 0.543114 0.206947
H30   H     H_    0.840256 0.153014 0.544475 0.230650
H31   H     H_    0.367138 0.106943 0.945776 0.148387
H32   H     H_    0.651400 0.712443 0.572366 0.133730
H33   H     H_    0.898311 0.269255 0.948316 0.144796
H34   H     H_    0.961629 0.307949 0.072902 0.143746
H35   H     H_    0.636112 0.737975 0.445018 0.146469
H36   H     H_    0.354060 0.069362 0.073522 0.139141
N1    N     N_3   0.743629 0.098955 0.414620 -0.602633
N2    N     N_3   0.943945 0.700344 0.561328 -0.586876
N3    N     N_3   0.256265 0.340891 0.917367 -0.602917
N4    N     N_3   0.756339 0.057315 0.560907 -0.587134
N5    N     N_3   0.250893 0.290478 0.063467 -0.588850
N6    N     N_3   0.902491 0.647188 0.415064 -0.603232
N7    N     N_3   0.707269 0.954831 0.062942 -0.584973
N8    N     N_3   0.353720 0.255621 0.415100 -0.603412
N9    N     N_3   0.115689 0.784175 0.047029 -0.658190
N10   N     N_3   0.125001 0.749368 0.902827 -0.587303
N11   N     N_3   0.300799 0.243907 0.561429 -0.586504
N12   N     N_3   0.652788 0.909167 0.916996 -0.603576
O1    O     O_R   0.916700 0.566820 0.669930 -0.469432
O2    O     O_R   0.566820 0.916700 0.330070 -0.479260
O3    O     O_R   0.083300 0.650120 0.169930 -0.523223
O4    O     O_R   0.349880 0.433180 0.330070 -0.480961
O5    O     O_R   0.649840 0.534790 0.674920 -0.504922
O6    O     O_R   0.884950 0.350160 0.825080 -0.518843
O7    O     O_R   0.465210 0.115050 0.674920 -0.504331
O8    O     O_R   0.649840 0.534790 0.825080 -0.519722
O9    O     O_R   0.884950 0.350160 0.674920 -0.505263
O10   O     O_R   0.465210 0.115050 0.825080 -0.521133
O11   O     O_R   0.534790 0.649840 0.174920 -0.508174
O12   O     O_R   0.650120 0.083300 0.830070 -0.478772
O13   O     O_R   0.350160 0.884950 0.325080 -0.516965
O14   O     O_R   0.115050 0.465210 0.174920 -0.494821
O15   O     O_R   0.534790 0.649840 0.325080 -0.519288
O16   O     O_R   0.350160 0.884950 0.174920 -0.542153
O17   O     O_R   0.115050 0.465210 0.325080 -0.514532
O18   O     O_3   0.666667 0.333333 0.750000 -0.277276
O19   O     O_3   0.333333 0.666667 0.250000 -0.284810
O20   O     O_R   0.433180 0.349880 0.669930 -0.469512
O21   O     O_R   0.916700 0.566820 0.830070 -0.486665
O22   O     O_R   0.650120 0.083300 0.669930 -0.469884
O23   O     O_R   0.433180 0.349880 0.830070 -0.480027
O24   O     O_R   0.566820 0.916700 0.169930 -0.462171
O25   O     O_R   0.083300 0.650120 0.330070 -0.475498
O26   O     O_R   0.349880 0.433180 0.169930 -0.474123

loop_
_geom_bond_atom_site_label_1
_geom_bond_atom_site_label_2
_ccdc_geom_bond_type
H19   N10   S    
Cr3   O10   S    
C29   C42   A    
H24   N12   S    
C42   N3    S    
C28   C41   A    
C18   C47   S    
C19   C46   S    
C3    O24   A    
Cr1   O5    S    
Cr4   O11   S    
C47   O13   A    
C31   C43   A    
Cr2   O18   S    
C14   C21   A    
C46   O26   A    
C35   N7    S    
C16   C19   A    
C9    H32   S    
C26   C39   A    
Cr1   O18   S    
C5    C17   A    
Cr1   O21   S    
C11   C24   A    
C43   N4    S    
C8    H31   S    
C9    C13   A    
C1    O20   A    
C14   H36   S    
Cr5   O25   S    
C45   O12   A    
C44   O1    A    
Cr6   O14   S    
C2    C22   S    
C4    O17   A    
C39   N11   S    
C11   H34   S    
C46   O11   A    
C17   H4    S    
C48   O14   A    
Cr4   O15   S    
C27   C45   S    
C7    C15   A    
Cr3   O7    S    
H28   N3    S    
Cr6   O17   S    
Cr2   O6    S    
C19   C32   A    
C2    O15   A    
C9    C26   A    
Cr3   O18   S    
H22   N12   S    
C15   C20   A    
C23   O7    A    
C10   H33   S    
C45   O10   A    
Cr6   O4    S    
C24   C48   S    
C23   C30   S    
Cr2   O22   S    
H10   N6    S    
C38   N10   S    
C12   O6    A    
Cr4   O24   S    
Cr5   O16   S    
H5    N1    S    
C40   N12   S    
H29   N4    S    
Cr6   O26   S    
H9    N6    S    
C28   C44   S    
C7    C28   A    
Cr2   O12   S    
Cr3   O23   S    
H26   N2    S    
C37   C38   A    
C3    O16   A    
C25   C38   A    
H27   N3    S    
Cr4   O19   S    
C48   O3    A    
C27   C40   A    
C41   N2    S    
C17   C18   A    
H30   N4    S    
H25   N2    S    
C1    O5    A    
H20   N11   S    
C20   C33   A    
C10   C25   A    
Cr6   O19   S    
C31   N1    S    
C1    C26   S    
C34   O8    A    
C30   C43   A    
C3    C21   S    
C33   N6    S    
C37   N9    S    
H16   N9    S    
C5    C30   A    
H18   N10   S    
H6    N1    S    
C24   C37   A    
C8    C27   A    
Cr4   O2    S    
C8    C14   A    
C47   O2    A    
C4    O25   A    
C13   H35   S    
C5    H1    S    
C36   C39   A    
C6    C29   A    
Cr1   O1    S    
H7    N5    S    
C23   O22   A    
C21   C35   A    
C22   C36   A    
C7    H23   S    
C12   C25   S    
C33   C41   A    
C15   H2    S    
C35   C40   A    
H11   N7    S    
Cr5   O19   S    
H15   N8    S    
C12   O21   A    
H17   N9    S    
C34   O23   A    
C29   C34   S    
Cr2   O9    S    
C2    O4    A    
C13   C22   A    
C16   H3    S    
H14   N8    S    
C10   C11   A    
H13   N7    S    
C6    C16   A    
C4    C20   S    
C44   O9    A    
Cr5   O3    S    
C6    H12   S    
C32   N5    S    
H21   N11   S    
Cr3   O20   S    
C32   C42   A    
C36   N8    S    
C18   C31   A    
H8    N5    S    
Cr5   O13   S    
Cr1   O8    S    
