data_str_m2_o10_o16_f0_pcu.sym.88
_audit_creation_date              2012-10-26T19:58:23-0400
_audit_creation_method            fapswitch 2.2
_symmetry_space_group_name_H-M    P1
_symmetry_Int_Tables_number       1
_space_group_crystal_system       triclinic
_cell_length_a                    7.482636
_cell_length_b                    8.699972
_cell_length_c                    13.285337
_cell_angle_alpha                 94.476194
_cell_angle_beta                  77.614185
_cell_angle_gamma                 103.229375
_cell_volume                      821.930108027

loop_
_atom_site_label
_atom_site_type_symbol
_atom_type_description
_atom_site_fract_x
_atom_site_fract_y
_atom_site_fract_z
_atom_type_partial_charge
C1    C     C_R   0.541341 0.799511 0.509741 0.496503
C2    C     C_R   0.334996 0.488615 0.807446 0.009001
C3    C     C_2   0.551900 0.964866 0.533545 -0.037967
C4    C     C_R   0.399410 0.495099 0.694650 0.540784
C5    C     C_2   0.430991 0.032357 0.500623 -0.135112
C6    C     C_R   0.452978 0.200259 0.501227 0.567032
C7    C     C_R   0.601168 0.513440 0.305896 0.536544
C8    C     C_R   0.846501 0.731386 0.064853 -0.127315
C9    C     C_R   0.661038 0.550960 0.196710 -0.009737
C10   C     C_R   0.159550 0.393335 0.846902 -0.106299
C11   C     C_R   0.098482 0.373892 0.952307 -0.157971
C12   C     C_R   0.403884 0.521876 0.980944 0.045835
C13   C     C_R   0.215572 0.440176 0.020811 0.013543
C14   C     C_2   0.005568 0.625021 0.615542 0.478527
C15   C     C_2   0.123648 0.439602 0.131519 0.190465
C16   C     C_2   0.683946 0.044391 0.601046 0.237696
C17   C     C_R   0.451813 0.563958 0.875864 0.010851
C18   C     C_R   0.546988 0.564511 0.039993 0.057145
C19   C     C_R   0.711804 0.679604 0.003430 0.037323
C20   C     C_R   0.739310 0.741961 0.906435 -0.101341
C21   C     C_R   0.613185 0.682630 0.842533 -0.070346
C22   C     C_R   0.535839 0.490455 0.131815 -0.081478
C23   C     C_R   0.817514 0.671379 0.162783 -0.113547
Cu1   Cu    Cu3+1 0.321300 0.483160 0.488710 1.002242
Cu2   Cu    Cu3+1 0.678700 0.516840 0.511290 1.018532
H1    H     H_    0.323592 0.963266 0.461698 0.106624
H2    H     H_    0.097930 0.740888 0.608273 0.062469
H3    H     H_    0.004633 0.345371 0.160136 0.093595
H4    H     H_    0.816772 0.010270 0.594695 0.107276
H5    H     H_    0.996300 0.393119 0.413344 0.234037
H6    H     H_    0.862248 0.832672 0.878281 0.117237
H7    H     H_    0.970345 0.822327 0.038722 0.118880
H8    H     H_    0.425870 0.388356 0.156283 0.130313
H9    H     H_    0.067656 0.334929 0.796015 0.178425
H10   H     H_    0.956665 0.308905 0.980778 0.112841
H11   H     H_    0.641778 0.733294 0.767430 0.136699
H12   H     H_    0.913117 0.722782 0.213174 0.170668
N1    N     N_2   0.947230 0.542220 0.528320 -0.153894
N2    N     N_2   0.052770 0.457780 0.471680 -0.240608
O1    O     O_R   0.383920 0.714220 0.492660 -0.526217
O2    O     O_2   0.171708 0.548691 0.190417 -0.512401
O3    O     O_2   0.640384 0.140502 0.668563 -0.477975
O4    O     O_R   0.685730 0.742660 0.511730 -0.539776
O5    O     O_R   0.275440 0.478800 0.636790 -0.490318
O6    O     O_R   0.577250 0.507240 0.655860 -0.454182
O7    O     O_R   0.314270 0.257340 0.488270 -0.515627
O8    O     O_R   0.616080 0.285780 0.507340 -0.465483
O9    O     O_R   0.422750 0.492760 0.344140 -0.471047
O10   O     O_R   0.724560 0.521200 0.363210 -0.510822
O11   O     O_2   0.942124 0.570465 0.700920 -0.511624

loop_
_geom_bond_atom_site_label_1
_geom_bond_atom_site_label_2
_ccdc_geom_bond_type
C12   C17   A    
C2    C4    S    
Cu1   Cu2   S    
C16   O3    D    
C14   H2    S    
C14   N1    S    
C6    O7    A    
Cu2   O8    S    
C19   C20   A    
Cu1   O7    S    
C7    O9    A    
Cu2   O4    S    
C11   H10   S    
C10   H9    S    
C21   H11   S    
C18   C22   A    
C20   C21   A    
C2    C17   A    
C11   C13   A    
C7    O10   A    
C15   H3    S    
C14   O11   D    
C8    C23   A    
Cu1   O5    S    
Cu1   O1    S    
H5    N2    S    
C4    O6    A    
C13   C15   S    
C5    C6    S    
Cu2   N1    S    
Cu2   O10   S    
C9    C22   A    
C8    C19   A    
C10   C11   A    
C5    H1    S    
Cu1   O9    S    
Cu2   O6    S    
Cu1   N2    S    
N1    N2    D    
C12   C13   A    
C15   O2    D    
C18   C19   A    
C6    O8    A    
C12   C18   A    
C7    C9    S    
C22   H8    S    
C9    C23   A    
C4    O5    A    
C1    O1    A    
C3    C5    D    
C16   H4    S    
C23   H12   S    
C1    O4    A    
C2    C10   A    
C17   C21   A    
C3    C16   S    
C1    C3    S    
C20   H6    S    
C8    H7    S    
