data_str_m12_o24_o24_f0_bcu.sym.53
_audit_creation_date              2012-12-11T16:07:21-0500
_audit_creation_method            fapswitch 2.2
_symmetry_space_group_name_H-M    P1
_symmetry_Int_Tables_number       1
_space_group_crystal_system       triclinic
_cell_length_a                    17.13271
_cell_length_b                    17.132761
_cell_length_c                    17.290956
_cell_angle_alpha                 90.000103
_cell_angle_beta                  89.999979
_cell_angle_gamma                 90.000061
_cell_volume                      5075.42513383

loop_
_atom_site_label
_atom_site_type_symbol
_atom_type_description
_atom_site_fract_x
_atom_site_fract_y
_atom_site_fract_z
_atom_type_partial_charge
C1    C     C_R   0.424595 0.669427 0.645739 -0.104395
C2    C     C_R   0.605167 0.698497 0.605765 -0.164307
C3    C     C_3   0.750150 0.287444 0.725147 0.479861
C4    C     C_3   0.771092 0.810824 0.363911 0.509972
C5    C     C_3   0.189183 0.228900 0.636087 0.509965
C6    C     C_3   0.712556 0.249850 0.274855 0.479868
C7    C     C_3   0.249877 0.712581 0.725121 0.479888
C8    C     C_3   0.749867 0.787429 0.774867 0.479882
C9    C     C_3   0.212554 0.250150 0.225145 0.479867
C10   C     C_3   0.689181 0.271099 0.863913 0.509965
C11   C     C_3   0.271089 0.689182 0.136095 0.509968
C12   C     C_3   0.250146 0.212559 0.774856 0.479870
C13   C     C_R   0.669432 0.424591 0.354264 -0.104445
C14   C     C_3   0.787449 0.749846 0.225149 0.479856
C15   C     C_3   0.310796 0.728885 0.863914 0.509954
C16   C     C_3   0.728904 0.310818 0.136089 0.509967
C17   C     C_3   0.761255 0.631574 0.780178 -0.941648
C18   C     C_3   0.138437 0.365248 0.299970 -0.940863
C19   C     C_3   0.572646 0.199252 0.788945 -0.966861
C20   C     C_3   0.429669 0.697175 0.136086 -0.915696
C21   C     C_3   0.238782 0.368414 0.780185 -0.941644
C22   C     C_3   0.861573 0.634755 0.299982 -0.940748
C23   C     C_3   0.427388 0.800702 0.789000 -0.966824
C24   C     C_R   0.332914 0.576350 0.647657 -0.029347
C25   C     C_3   0.570324 0.302826 0.136084 -0.915607
C26   C     C_3   0.800752 0.427352 0.211059 -0.966846
C27   C     C_3   0.302749 0.570308 0.863897 -0.915628
C28   C     C_3   0.631591 0.761191 0.219809 -0.941663
C29   C     C_3   0.365254 0.138445 0.700042 -0.940862
C30   C     C_3   0.199244 0.572653 0.211065 -0.966847
C31   C     C_3   0.697176 0.429679 0.863916 -0.915616
C32   C     C_3   0.368411 0.238800 0.219809 -0.941636
C33   C     C_3   0.634729 0.861532 0.700087 -0.940837
C34   C     C_3   0.300755 0.072651 0.288939 -0.966818
C35   C     C_R   0.607428 0.698006 0.394324 -0.137546
C36   C     C_3   0.802775 0.929691 0.636097 -0.915647
C37   C     C_3   0.131587 0.738798 0.280193 -0.941786
C38   C     C_3   0.865252 0.361561 0.799969 -0.940850
C39   C     C_3   0.699239 0.927348 0.288933 -0.966823
C40   C     C_3   0.197185 0.070320 0.636087 -0.915634
C41   C     C_3   0.868412 0.261205 0.280189 -0.941614
C42   C     C_3   0.134719 0.638487 0.799879 -0.940829
C43   C     C_3   0.261283 0.868436 0.719818 -0.941691
C44   C     C_3   0.638438 0.134750 0.200032 -0.940866
C45   C     C_3   0.072642 0.300742 0.711049 -0.966855
C46   C     C_R   0.394832 0.301501 0.605760 -0.164317
C47   C     C_3   0.929675 0.802840 0.363923 -0.915661
C48   C     C_3   0.738793 0.131588 0.719816 -0.941628
C49   C     C_3   0.361555 0.865247 0.200037 -0.940799
C50   C     C_3   0.927375 0.699285 0.711013 -0.966824
C51   C     C_3   0.070326 0.197171 0.363917 -0.915621
C52   C     C_R   0.330568 0.575409 0.354264 -0.104467
C53   C     C_R   0.667092 0.423644 0.647653 -0.029357
C54   C     C_R   0.892573 0.198006 0.105677 -0.137557
C55   C     C_R   0.105166 0.801505 0.894228 -0.164295
C56   C     C_R   0.169431 0.075409 0.145736 -0.104450
C57   C     C_R   0.576355 0.332909 0.352346 -0.029353
C58   C     C_R   0.832912 0.923649 0.852344 -0.029351
C59   C     C_R   0.107425 0.801995 0.105680 -0.137534
C60   C     C_R   0.894831 0.198499 0.894243 -0.164322
C61   C     C_R   0.830568 0.924591 0.145736 -0.104468
C62   C     C_R   0.167091 0.076355 0.852346 -0.029358
C63   C     C_R   0.924593 0.830571 0.854262 -0.104415
C64   C     C_R   0.076355 0.167091 0.147654 -0.029346
C65   C     C_R   0.198003 0.892578 0.894311 -0.137548
C66   C     C_R   0.801501 0.105168 0.105759 -0.164321
C67   C     C_R   0.075408 0.169431 0.854263 -0.104438
C68   C     C_R   0.698004 0.607425 0.605683 -0.137555
C69   C     C_R   0.923644 0.832908 0.147653 -0.029336
C70   C     C_R   0.801994 0.107428 0.894325 -0.137556
C71   C     C_R   0.198498 0.894832 0.105761 -0.164328
C72   C     C_3   0.262897 0.267262 0.336847 -0.126895
C73   C     C_3   0.732737 0.737100 0.663161 -0.126926
C74   C     C_3   0.322262 0.671540 0.248866 -0.138577
C75   C     C_3   0.671539 0.322265 0.751138 -0.138621
C76   C     C_3   0.737105 0.732739 0.336852 -0.126913
C77   C     C_3   0.267261 0.262897 0.663152 -0.126903
C78   C     C_3   0.677736 0.328462 0.248863 -0.138620
C79   C     C_R   0.301501 0.394832 0.394240 -0.164322
C80   C     C_3   0.328468 0.677730 0.751139 -0.138635
C81   C     C_3   0.828466 0.822270 0.748859 -0.138626
C82   C     C_3   0.177736 0.171538 0.251137 -0.138614
C83   C     C_3   0.767261 0.237105 0.836852 -0.126903
C84   C     C_3   0.237099 0.767262 0.163157 -0.126882
C85   C     C_3   0.171537 0.177734 0.748862 -0.138622
C86   C     C_3   0.822263 0.828462 0.251138 -0.138624
C87   C     C_3   0.232736 0.762907 0.836827 -0.126940
C88   C     C_3   0.762897 0.232738 0.163151 -0.126900
C89   C     C_R   0.368074 0.635215 0.690401 0.125334
C90   C     C_R   0.575410 0.330568 0.645736 -0.104445
C91   C     C_R   0.635224 0.368065 0.309605 0.125363
C92   C     C_R   0.681038 0.683617 0.624032 0.214411
C93   C     C_R   0.316379 0.318959 0.375978 0.214422
C94   C     C_R   0.631936 0.364776 0.690395 0.125366
C95   C     C_R   0.364775 0.631935 0.309605 0.125353
C96   C     C_R   0.318959 0.316379 0.624022 0.214420
C97   C     C_R   0.683623 0.681042 0.375983 0.214436
C98   C     C_R   0.816379 0.181041 0.124021 0.214422
C99   C     C_R   0.181036 0.816388 0.875956 0.214405
C100  C     C_R   0.135224 0.131935 0.190395 0.125360
C101  C     C_R   0.423645 0.667091 0.352347 -0.029319
C102  C     C_R   0.868071 0.864783 0.809600 0.125348
C103  C     C_R   0.183618 0.818960 0.124025 0.214433
C104  C     C_R   0.818958 0.183622 0.875983 0.214424
C105  C     C_R   0.864775 0.868065 0.190395 0.125366
C106  C     C_R   0.131934 0.135222 0.809604 0.125361
C107  C     C_3   0.771667 0.709298 0.738649 0.106240
C108  C     C_3   0.183821 0.288913 0.299391 0.100366
C109  C     C_3   0.649906 0.243110 0.788662 0.105809
C110  C     C_3   0.350527 0.710101 0.173501 0.110829
C111  C     C_3   0.228352 0.290697 0.738651 0.106264
C112  C     C_R   0.301994 0.392573 0.605678 -0.137554
C113  C     C_3   0.816183 0.711089 0.299399 0.100392
C114  C     C_3   0.350110 0.756874 0.788681 0.105841
C115  C     C_3   0.649468 0.289899 0.173498 0.110868
C116  C     C_3   0.756893 0.350092 0.211341 0.105797
C117  C     C_3   0.289865 0.649461 0.826485 0.110821
C118  C     C_3   0.709306 0.771636 0.261346 0.106222
C119  C     C_3   0.288915 0.183825 0.700614 0.100361
C120  C     C_3   0.243104 0.649910 0.211347 0.105839
C121  C     C_3   0.710102 0.350535 0.826503 0.110868
C122  C     C_3   0.290696 0.228360 0.261345 0.106256
C123  C     C_R   0.698500 0.605168 0.394243 -0.164333
C124  C     C_3   0.711077 0.816165 0.700635 0.100390
C125  C     C_3   0.256894 0.149909 0.288656 0.105792
C126  C     C_3   0.789876 0.850540 0.673507 0.110831
C127  C     C_3   0.209302 0.728360 0.238659 0.106218
C128  C     C_3   0.788914 0.316179 0.799392 0.100367
C129  C     C_3   0.743104 0.850091 0.288655 0.105830
C130  C     C_3   0.210105 0.149465 0.673499 0.110867
C131  C     C_3   0.790696 0.271642 0.238653 0.106265
C132  C     C_3   0.211073 0.683846 0.799347 0.100396
C133  C     C_3   0.271680 0.790709 0.761345 0.106245
C134  C     C_R   0.392573 0.301995 0.394321 -0.137552
C135  C     C_3   0.683822 0.211087 0.200610 0.100354
C136  C     C_3   0.149904 0.256888 0.711337 0.105812
C137  C     C_3   0.850532 0.789906 0.326507 0.110853
C138  C     C_3   0.728357 0.209305 0.761350 0.106260
C139  C     C_3   0.316175 0.788913 0.200613 0.100423
C140  C     C_3   0.850104 0.743123 0.711322 0.105825
C141  C     C_3   0.149469 0.210099 0.326502 0.110861
C142  C     C_3   0.228907 0.189181 0.363909 0.509969
C143  C     C_3   0.810803 0.771113 0.636083 0.509970
C144  C     C_3   0.287444 0.750150 0.274858 0.479830
H1    H     H_    0.460175 0.719123 0.659577 0.114719
H2    H     H_    0.576866 0.754566 0.602239 0.123054
H3    H     H_    0.767424 0.934084 0.582535 0.276801
H4    H     H_    0.784764 0.976173 0.676859 0.249022
H5    H     H_    0.865466 0.937030 0.621731 0.234125
H6    H     H_    0.133599 0.708639 0.336953 0.273577
H7    H     H_    0.120247 0.801866 0.289562 0.240183
H8    H     H_    0.083783 0.713213 0.245156 0.242436
H9    H     H_    0.859155 0.414492 0.763446 0.262111
H10   H     H_    0.879534 0.379824 0.859872 0.257923
H11   H     H_    0.912743 0.324733 0.776278 0.238757
H12   H     H_    0.652453 0.925457 0.333284 0.269328
H13   H     H_    0.719124 0.460175 0.340425 0.114730
H14   H     H_    0.740073 0.975656 0.302756 0.237742
H15   H     H_    0.671666 0.937407 0.231780 0.254838
H16   H     H_    0.232523 0.065924 0.582517 0.276799
H17   H     H_    0.215196 0.023833 0.676842 0.249013
H18   H     H_    0.134490 0.062993 0.621734 0.234122
H19   H     H_    0.866402 0.291365 0.336949 0.273567
H20   H     H_    0.879752 0.198136 0.289559 0.240181
H21   H     H_    0.916216 0.286790 0.245150 0.242394
H22   H     H_    0.140806 0.585573 0.763328 0.262113
H23   H     H_    0.120414 0.620196 0.859769 0.257897
H24   H     H_    0.283263 0.541334 0.664426 0.100337
H25   H     H_    0.087248 0.675348 0.776195 0.238770
H26   H     H_    0.291467 0.866428 0.663070 0.273562
H27   H     H_    0.198221 0.879795 0.710423 0.240173
H28   H     H_    0.286868 0.916226 0.754876 0.242416
H29   H     H_    0.585508 0.140847 0.236556 0.262112
H30   H     H_    0.620176 0.120469 0.140129 0.257927
H31   H     H_    0.675266 0.087258 0.223722 0.238757
H32   H     H_    0.074531 0.347523 0.666692 0.269330
H33   H     H_    0.024340 0.259901 0.697229 0.237751
H34   H     H_    0.062576 0.328321 0.768197 0.254840
H35   H     H_    0.580359 0.755035 0.395157 0.116891
H36   H     H_    0.934075 0.767503 0.417493 0.276788
H37   H     H_    0.976167 0.784837 0.323169 0.249021
H38   H     H_    0.936990 0.865537 0.378275 0.234123
H39   H     H_    0.708638 0.133600 0.663051 0.273568
H40   H     H_    0.801863 0.120245 0.710452 0.240183
H41   H     H_    0.713200 0.083787 0.754853 0.242398
H42   H     H_    0.414488 0.859148 0.236556 0.262120
H43   H     H_    0.379814 0.879532 0.140135 0.257897
H44   H     H_    0.324729 0.912736 0.223730 0.238774
H45   H     H_    0.925490 0.652512 0.666648 0.269333
H46   H     H_    0.423134 0.245433 0.602234 0.123055
H47   H     H_    0.975667 0.740139 0.697193 0.237753
H48   H     H_    0.937456 0.671697 0.768155 0.254837
H49   H     H_    0.065927 0.232510 0.417486 0.276797
H50   H     H_    0.023835 0.215175 0.323163 0.249010
H51   H     H_    0.063006 0.134476 0.378271 0.234124
H52   H     H_    0.280876 0.539825 0.340425 0.114733
H53   H     H_    0.716743 0.458660 0.664422 0.100364
H54   H     H_    0.919642 0.255035 0.104843 0.116886
H55   H     H_    0.076867 0.745435 0.897754 0.123055
H56   H     H_    0.219124 0.039825 0.159575 0.114730
H57   H     H_    0.541340 0.283257 0.335577 0.100358
H58   H     H_    0.783261 0.958664 0.835575 0.100346
H59   H     H_    0.080356 0.744966 0.104847 0.116890
H60   H     H_    0.923134 0.254567 0.897769 0.123054
H61   H     H_    0.780876 0.960175 0.159575 0.114734
H62   H     H_    0.216743 0.041341 0.835577 0.100361
H63   H     H_    0.960173 0.780876 0.840423 0.114722
H64   H     H_    0.041340 0.216742 0.164423 0.100361
H65   H     H_    0.255033 0.919646 0.895147 0.116879
H66   H     H_    0.745433 0.076866 0.102233 0.123053
H67   H     H_    0.039824 0.219123 0.840424 0.114728
H68   H     H_    0.755034 0.580357 0.604848 0.116882
H69   H     H_    0.958659 0.783257 0.164423 0.100368
H70   H     H_    0.744964 0.080359 0.895159 0.116882
H71   H     H_    0.254567 0.923133 0.102236 0.123046
H72   H     H_    0.209480 0.109426 0.439099 0.315785
H73   H     H_    0.890525 0.790586 0.560866 0.315786
H74   H     H_    0.267357 0.833068 0.346949 0.321187
H75   H     H_    0.833113 0.267412 0.653078 0.321147
H76   H     H_    0.790521 0.890580 0.439103 0.315783
H77   H     H_    0.109433 0.209464 0.560895 0.315784
H78   H     H_    0.732577 0.166882 0.346921 0.321138
H79   H     H_    0.245433 0.423134 0.397766 0.123052
H80   H     H_    0.166959 0.732681 0.653011 0.321133
H81   H     H_    0.666933 0.767352 0.846961 0.321134
H82   H     H_    0.232585 0.333113 0.153076 0.321143
H83   H     H_    0.609424 0.290527 0.939102 0.315782
H84   H     H_    0.290522 0.609433 0.060902 0.315795
H85   H     H_    0.333108 0.232592 0.846928 0.321139
H86   H     H_    0.767391 0.666895 0.153072 0.321143
H87   H     H_    0.390510 0.709408 0.939136 0.315797
H88   H     H_    0.709479 0.390575 0.060900 0.315784
H89   H     H_    0.791420 0.633586 0.836939 0.273561
H90   H     H_    0.539825 0.280876 0.659575 0.114730
H91   H     H_    0.698188 0.620217 0.789552 0.240168
H92   H     H_    0.786852 0.583782 0.745132 0.242413
H93   H     H_    0.085505 0.359150 0.263449 0.262114
H94   H     H_    0.120178 0.379530 0.359873 0.257924
H95   H     H_    0.175263 0.412739 0.276278 0.238762
H96   H     H_    0.574535 0.152469 0.833300 0.269329
H97   H     H_    0.524342 0.240090 0.802766 0.237748
H98   H     H_    0.562583 0.171675 0.731796 0.254845
H99   H     H_    0.434067 0.732516 0.082519 0.276793
H100  H     H_    0.476160 0.715176 0.176841 0.249026
H101  H     H_    0.458660 0.716742 0.335578 0.100365
H102  H     H_    0.436989 0.634481 0.121728 0.234131
H103  H     H_    0.208621 0.366402 0.836945 0.273571
H104  H     H_    0.301850 0.379759 0.789556 0.240188
H105  H     H_    0.213193 0.416214 0.745145 0.242397
H106  H     H_    0.914511 0.640855 0.263468 0.262100
H107  H     H_    0.879827 0.620476 0.359890 0.257900
H108  H     H_    0.824752 0.587260 0.276284 0.238756
H109  H     H_    0.425506 0.847470 0.833372 0.269335
H110  H     H_    0.475673 0.759840 0.802818 0.237752
H111  H     H_    0.437476 0.828297 0.731862 0.254830
H112  H     H_    0.244965 0.419642 0.604843 0.116881
H113  H     H_    0.565924 0.267484 0.082517 0.276794
H114  H     H_    0.523834 0.284824 0.176841 0.249006
H115  H     H_    0.563004 0.365520 0.121726 0.234124
H116  H     H_    0.847534 0.425463 0.166703 0.269332
H117  H     H_    0.759914 0.475658 0.197240 0.237750
H118  H     H_    0.828329 0.437413 0.268208 0.254839
H119  H     H_    0.267394 0.565921 0.917458 0.276797
H120  H     H_    0.284733 0.523829 0.823135 0.249023
H121  H     H_    0.365438 0.562960 0.878267 0.234125
H122  H     H_    0.633604 0.791339 0.163040 0.273564
H123  H     H_    0.754567 0.576866 0.397769 0.123049
H124  H     H_    0.620250 0.698119 0.210452 0.240172
H125  H     H_    0.583787 0.786786 0.254841 0.242416
H126  H     H_    0.359158 0.085516 0.736568 0.262113
H127  H     H_    0.379539 0.120180 0.640141 0.257926
H128  H     H_    0.412743 0.175277 0.723733 0.238759
H129  H     H_    0.152460 0.574545 0.166713 0.269339
H130  H     H_    0.240080 0.524348 0.197242 0.237748
H131  H     H_    0.171672 0.562591 0.268216 0.254842
H132  H     H_    0.732515 0.434079 0.917485 0.276795
H133  H     H_    0.715182 0.476168 0.823160 0.249008
H134  H     H_    0.419642 0.244965 0.395155 0.116887
H135  H     H_    0.634480 0.437001 0.878270 0.234122
H136  H     H_    0.366399 0.208643 0.163046 0.273568
H137  H     H_    0.379751 0.301869 0.210443 0.240180
H138  H     H_    0.416215 0.213211 0.254845 0.242401
H139  H     H_    0.640821 0.914454 0.736625 0.262111
H140  H     H_    0.620432 0.879810 0.640192 0.257906
H141  H     H_    0.587252 0.824684 0.723777 0.238767
H142  H     H_    0.347540 0.074543 0.333290 0.269331
H143  H     H_    0.259919 0.024346 0.302762 0.237753
H144  H     H_    0.328327 0.062588 0.231787 0.254837
N1    N     N_R   0.424590 0.632770 0.578330 -0.046170
N2    N     N_R   0.575410 0.632770 0.578330 -0.052206
N3    N     N_R   0.632770 0.424590 0.421670 -0.046173
N4    N     N_R   0.367230 0.575410 0.578330 -0.046865
N5    N     N_R   0.575410 0.632770 0.421670 -0.056684
N6    N     N_R   0.424590 0.367230 0.578330 -0.052203
N7    N     N_R   0.367230 0.575410 0.421670 -0.046172
N8    N     N_R   0.632770 0.424590 0.578330 -0.046874
N9    N     N_R   0.924590 0.132770 0.078330 -0.056679
N10   N     N_R   0.075410 0.867230 0.921670 -0.052205
N11   N     N_R   0.132770 0.075410 0.078330 -0.046173
N12   N     N_R   0.575410 0.367230 0.421670 -0.046873
N13   N     N_R   0.867230 0.924590 0.921670 -0.046869
N14   N     N_R   0.075410 0.867230 0.078330 -0.056684
N15   N     N_R   0.924590 0.132770 0.921670 -0.052203
N16   N     N_R   0.867230 0.924590 0.078330 -0.046174
N17   N     N_R   0.132770 0.075410 0.921670 -0.046873
N18   N     N_R   0.924590 0.867230 0.921670 -0.046171
N19   N     N_R   0.075410 0.132770 0.078330 -0.046873
N20   N     N_R   0.132770 0.924590 0.921670 -0.056679
N21   N     N_R   0.867230 0.075410 0.078330 -0.052201
N22   N     N_R   0.075410 0.132770 0.921670 -0.046172
N23   N     N_R   0.632770 0.575410 0.578330 -0.056679
N24   N     N_R   0.924590 0.867230 0.078330 -0.046876
N25   N     N_R   0.867230 0.075410 0.921670 -0.056680
N26   N     N_R   0.132770 0.924590 0.078330 -0.052201
N27   N     N_R   0.367230 0.424590 0.421670 -0.052201
N28   N     N_R   0.575410 0.367230 0.578330 -0.046173
N29   N     N_R   0.424590 0.632770 0.421670 -0.046875
N30   N     N_R   0.367230 0.424590 0.578330 -0.056680
N31   N     N_R   0.632770 0.575410 0.421670 -0.052202
N32   N     N_R   0.424590 0.367230 0.421670 -0.056679
Ni1   Ni    Ni4+2 0.500000 0.631570 0.500000 0.226419
Ni2   Ni    Ni4+2 0.500000 0.368430 0.500000 0.226410
Ni3   Ni    Ni4+2 0.631570 0.500000 0.500000 0.226407
Ni4   Ni    Ni4+2 0.368430 0.500000 0.500000 0.226409
Ni5   Ni    Ni4+2 0.000000 0.131570 0.000000 0.226411
Ni6   Ni    Ni4+2 1.000000 0.868430 0.000000 0.226419
Ni7   Ni    Ni4+2 0.131570 0.000000 0.000000 0.226410
Ni8   Ni    Ni4+2 0.868430 0.000000 0.000000 0.226406
O1    O     O_3   0.239330 0.158961 0.438266 -0.707779
O2    O     O_3   0.204742 0.282437 0.151104 -0.732220
O3    O     O_3   0.658961 0.260681 0.938272 -0.707776
O4    O     O_3   0.260662 0.658961 0.061740 -0.707771
O5    O     O_3   0.282428 0.204753 0.848900 -0.732214
O6    O     O_3   0.795267 0.717553 0.151110 -0.732222
O7    O     O_3   0.340992 0.739286 0.938285 -0.707761
O8    O     O_3   0.739325 0.341037 0.061731 -0.707774
O9    O     O_3   0.841005 0.760708 0.561715 -0.707759
O10   O     O_3   0.295262 0.782437 0.348898 -0.732265
O11   O     O_3   0.782436 0.295252 0.651105 -0.732223
O12   O     O_3   0.760666 0.841047 0.438267 -0.707769
O13   O     O_3   0.158966 0.239317 0.561728 -0.707778
O14   O     O_3   0.704747 0.217565 0.348897 -0.732215
O15   O     O_3   0.217617 0.704793 0.651065 -0.732194
O16   O     O_3   0.717598 0.795223 0.848918 -0.732201

loop_
_geom_bond_atom_site_label_1
_geom_bond_atom_site_label_2
_ccdc_geom_bond_type
C5    C136  S    
C33   H139  S    
C81   C126  S    
C78   C115  S    
C52   H52   S    
C44   H31   S    
C83   C128  S    
C23   H109  S    
C57   N12   A    
C12   O5    S    
C21   H103  S    
C9    C108  S    
C72   C142  S    
C29   C119  S    
C46   H46   S    
C7    C133  S    
C17   C107  S    
C50   C140  S    
N26   Ni7   S    
N17   N22   A    
C126  C143  S    
C119  C130  S    
C107  C140  S    
C43   C133  S    
C117  C132  S    
C74   C144  S    
C36   H4    S    
C22   C113  S    
C55   H55   S    
C49   H42   S    
N6    Ni2   S    
C67   H67   S    
C61   C105  A    
C6    O14   S    
C18   H93   S    
C59   N14   A    
C44   C135  S    
C19   C109  S    
N28   Ni2   S    
C30   H131  S    
C13   C91   A    
C82   C141  S    
C31   H132  S    
C66   N21   A    
C7    O15   S    
C27   C117  S    
N31   Ni3   S    
C123  N31   A    
C8    C81   S    
C70   H70   S    
C65   C99   A    
C121  C128  S    
C48   H40   S    
C69   C105  A    
C76   C118  S    
C82   C125  S    
C40   H18   S    
H86   O6    S    
C55   N10   A    
C38   C128  S    
C1    N1    A    
C3    C138  S    
C50   H47   S    
C7    C132  S    
H85   O5    S    
C5    C130  S    
C35   N5    A    
C33   H141  S    
N24   Ni6   S    
C113  C137  S    
C69   N24   A    
C5    C77   S    
C32   H137  S    
C16   C115  S    
C42   H23   S    
N16   N24   A    
N29   Ni1   S    
C80   C117  S    
C36   C126  S    
C88   C135  S    
C74   C110  S    
N23   Ni3   S    
C62   C106  A    
C11   C84   S    
C74   C120  S    
C48   C138  S    
C53   H53   S    
N20   Ni7   S    
C28   C118  S    
N11   N19   A    
C49   H44   S    
C30   C120  S    
C34   C125  S    
C27   H120  S    
C68   C92   A    
C18   C108  S    
C58   N13   A    
C112  H112  S    
C19   H97   S    
C22   H107  S    
C46   C96   A    
C58   H58   S    
C30   H129  S    
H75   O11   S    
C41   H20   S    
C118  C129  S    
C51   H51   S    
C70   N25   A    
N21   Ni8   S    
C62   H62   S    
C83   C138  S    
C56   H56   S    
C20   H99   S    
C1    H1    S    
C140  C143  S    
C37   H6    S    
C47   H37   S    
C120  C127  S    
N1    Ni1   S    
N27   N32   A    
C47   H36   S    
C44   H30   S    
C22   H106  S    
C111  C136  S    
C6    C78   S    
C112  N30   A    
C10   C109  S    
C50   H45   S    
H83   O3    S    
C4    C137  S    
C60   H60   S    
C72   C108  S    
H81   O16   S    
C34   H144  S    
C68   N23   A    
C66   H66   S    
C3    C75   S    
C25   H113  S    
C73   C124  S    
C62   N17   A    
C11   C110  S    
C63   N18   A    
C38   H11   S    
C63   C102  A    
C11   C120  S    
N2    Ni1   S    
C13   H13   S    
N5    N31   A    
C51   C141  S    
C35   H35   S    
N7    N29   A    
C29   H127  S    
C14   C86   S    
C51   H49   S    
C43   H27   S    
C3    C128  S    
H73   O9    S    
C39   C129  S    
C109  C138  S    
N32   Ni2   S    
C6    C135  S    
C123  H123  S    
N27   Ni4   S    
C12   C119  S    
C76   C113  S    
N3    N12   A    
C90   N28   A    
C45   H34   S    
C20   C110  S    
C11   O4    S    
C49   C139  S    
C39   H14   S    
C37   H8    S    
C85   C106  S    
C68   H68   S    
C8    C107  S    
N9    Ni5   S    
C17   H92   S    
C71   C103  A    
C53   C94   A    
C78   C116  S    
C73   C92   S    
H87   O7    S    
C79   H79   S    
C77   C96   S    
N30   Ni4   S    
C59   C103  A    
C66   C98   A    
C122  C125  S    
C48   H41   S    
C97   C123  A    
C115  C135  S    
C71   H71   S    
C34   H142  S    
N14   Ni6   S    
C85   C136  S    
C25   H115  S    
N2    N23   A    
C26   H116  S    
N17   Ni7   S    
C57   H57   S    
C38   H10   S    
C46   N6    A    
C38   H9    S    
C60   C104  A    
C88   C98   S    
C95   C101  A    
C61   H61   S    
N6    N30   A    
N8    N28   A    
C81   C140  S    
C101  H101  S    
C26   H117  S    
C124  C126  S    
C110  C139  S    
C3    O11   S    
C70   C104  A    
C73   C107  S    
C10   C83   S    
N1    N4    A    
C52   C95   A    
C10   O3    S    
C80   C89   S    
C77   C111  S    
N15   Ni5   S    
C86   C137  S    
N12   Ni2   S    
C43   H26   S    
C84   C139  S    
N8    Ni3   S    
N5    Ni1   S    
C33   C124  S    
C58   C102  A    
C50   H48   S    
C53   N8    A    
C9    C82   S    
C33   H140  S    
C63   H63   S    
N14   N26   A    
C79   N27   A    
N16   Ni8   S    
C23   H110  S    
C32   H138  S    
C16   C116  S    
C108  C141  S    
C21   C111  S    
C90   C94   A    
C21   H104  S    
C101  N29   A    
C14   O6    S    
C56   N11   A    
C134  H134  S    
C32   C122  S    
C69   H69   S    
C134  N32   A    
C8    C124  S    
C76   C97   S    
C15   C117  S    
C65   N20   A    
C85   C130  S    
N15   N25   A    
C96   C112  A    
C36   H3    S    
C49   H43   S    
C27   H119  S    
C9    C122  S    
C37   C127  S    
C61   N16   A    
N9    N21   A    
C24   N4    A    
C31   C121  S    
C26   H118  S    
C72   C93   S    
C30   H130  S    
C41   H19   S    
H76   O12   S    
C41   C131  S    
C73   C143  S    
C20   H100  S    
C40   C130  S    
N11   Ni7   S    
C28   H125  S    
C57   C91   A    
C39   H15   S    
C40   H16   S    
C6    C131  S    
C28   H124  S    
C48   H39   S    
N4    Ni4   S    
C67   C106  A    
C4    C129  S    
C67   N22   A    
C17   H89   S    
C14   C113  S    
N18   Ni6   S    
C40   H17   S    
C23   C114  S    
C2    N2    A    
C27   H121  S    
N13   N18   A    
C16   C88   S    
C127  C144  S    
H88   O8    S    
C52   N7    A    
H78   O14   S    
C71   N26   A    
C59   H59   S    
C64   C100  A    
H74   O10   S    
C42   C132  S    
N19   Ni5   S    
C19   H96   S    
C42   H22   S    
C75   C94   S    
N10   N20   A    
C7    C80   S    
C8    O16   S    
N7    Ni4   S    
C87   C133  S    
C4    O12   S    
C10   C121  S    
C24   C89   A    
C22   H108  S    
C64   H64   S    
H80   O15   S    
C12   C85   S    
C29   H126  S    
C24   H24   S    
C79   C93   A    
C25   C115  S    
C21   H105  S    
C36   H5    S    
C9    O2    S    
N10   Ni6   S    
C28   H122  S    
C90   H90   S    
N22   Ni5   S    
C64   N19   A    
C19   H98   S    
H82   O2    S    
C14   C118  S    
C41   H21   S    
H72   O1    S    
C31   H135  S    
C65   H65   S    
C32   H136  S    
C45   H33   S    
C84   C127  S    
C20   H102  S    
C143  O9    S    
C37   H7    S    
C47   H38   S    
C87   C99   S    
C81   C102  S    
C17   H91   S    
C75   C109  S    
C83   C104  S    
H77   O13   S    
C44   H29   S    
C23   H111  S    
C93   C134  A    
C45   H32   S    
C87   C132  S    
C139  C144  S    
N3    Ni3   S    
C125  C142  S    
C42   H25   S    
C34   H143  S    
C47   C137  S    
C15   C114  S    
C2    C92   A    
C54   N9    A    
C25   H114  S    
C80   C114  S    
C13   N3    A    
C86   C105  S    
C56   C100  A    
C55   C99   A    
C142  O1    S    
C18   H95   S    
C15   C87   S    
C60   N15   A    
C45   C136  S    
C1    C89   A    
C72   C122  S    
C75   C121  S    
C29   H128  S    
C82   C100  S    
C74   C95   S    
C15   O7    S    
C77   C119  S    
C51   H50   S    
C43   H28   S    
C86   C129  S    
C88   C131  S    
C78   C91   S    
C2    H2    S    
C54   H54   S    
C39   H12   S    
C5    O13   S    
C144  O10   S    
C141  C142  S    
H84   O4    S    
C116  C131  S    
C114  C133  S    
N25   Ni8   S    
C31   H133  S    
C26   C116  S    
C4    C76   S    
C18   H94   S    
C84   C103  S    
C54   C98   A    
C16   O8    S    
C35   C97   A    
C12   C111  S    
N13   Ni8   S    
