data_str_m9_o17_o19_f0_sra.sym.65
_audit_creation_date              2012-12-11T15:19:37-0500
_audit_creation_method            fapswitch 2.2
_symmetry_space_group_name_H-M    P1
_symmetry_Int_Tables_number       1
_space_group_crystal_system       triclinic
_cell_length_a                    19.988085
_cell_length_b                    6.882726
_cell_length_c                    18.184224
_cell_angle_alpha                 89.9776
_cell_angle_beta                  104.209297
_cell_angle_gamma                 90.038148
_cell_volume                      2425.11214592

loop_
_atom_site_label
_atom_site_type_symbol
_atom_type_description
_atom_site_fract_x
_atom_site_fract_y
_atom_site_fract_z
_atom_type_partial_charge
O1    O     O_R   0.312200 0.620210 0.189560 -0.536645
O2    O     O_R   0.687800 0.379790 0.810440 -0.536646
O3    O     O_R   0.187800 0.120210 0.310440 -0.536856
O4    O     O_R   0.812200 0.879790 0.689560 -0.536846
O5    O     O_R   0.171590 0.286140 0.165000 -0.535742
O6    O     O_R   0.828410 0.713860 0.835000 -0.535746
O7    O     O_R   0.328410 0.786140 0.335000 -0.535151
O8    O     O_R   0.671590 0.213860 0.665000 -0.535155
C1    C     C_R   0.145708 0.459512 0.143788 0.709971
C2    C     C_R   0.854291 0.540488 0.856212 0.709972
C3    C     C_R   0.354291 0.959550 0.356209 0.710783
C4    C     C_R   0.645709 0.040449 0.643791 0.710756
O9    O     O_R   0.310670 0.290220 0.180540 -0.544590
O10   O     O_R   0.689330 0.709780 0.819460 -0.544591
O11   O     O_R   0.189330 0.790220 0.319460 -0.544427
O12   O     O_R   0.810670 0.209780 0.680540 -0.544421
O13   O     O_R   0.327870 0.124170 0.326080 -0.532798
O14   O     O_R   0.672130 0.875830 0.673920 -0.532787
O15   O     O_R   0.172130 0.624170 0.173920 -0.533019
O16   O     O_R   0.827870 0.375830 0.826080 -0.533016
C5    C     C_R   0.332635 0.458993 0.166259 0.743497
C6    C     C_R   0.667365 0.541007 0.833741 0.743494
C7    C     C_R   0.166776 0.958683 0.333061 0.743151
C8    C     C_R   0.833225 0.041317 0.666939 0.743114
O17   O     O_3   0.255480 0.455050 0.297740 -0.364709
O18   O     O_3   0.744520 0.544950 0.702260 -0.364701
O19   O     O_3   0.244520 0.955050 0.202260 -0.364774
O20   O     O_3   0.755480 0.044950 0.797740 -0.364776
V1    V     V_3+5 0.248980 0.178550 0.241140 1.420437
V2    V     V_3+5 0.751020 0.821450 0.758860 1.420448
V3    V     V_3+5 0.251020 0.678550 0.258860 1.420985
V4    V     V_3+5 0.748980 0.321450 0.741140 1.420996
C9    C     C_R   0.952130 0.082354 0.646745 0.074987
C10   C     C_R   0.047854 0.917739 0.353227 0.075014
C11   C     C_R   0.547171 0.562732 0.851437 0.076770
C12   C     C_R   0.452829 0.437267 0.148563 0.076771
C13   C     C_R   0.882131 0.032525 0.617292 -0.091712
C14   C     C_R   0.117861 0.967476 0.382697 -0.091712
C15   C     C_R   0.618222 0.531807 0.883072 -0.089573
C16   C     C_R   0.381778 0.468192 0.116928 -0.089574
C17   C     C_R   0.857630 0.983696 0.539985 0.091228
C18   C     C_R   0.142361 0.016193 0.460012 0.091215
C19   C     C_R   0.643199 0.501971 0.961812 0.089854
C20   C     C_R   0.356801 0.498028 0.038188 0.089853
C21   C     C_R   0.905395 0.957217 0.493826 0.059587
C22   C     C_R   0.094595 0.042732 0.506162 0.059644
C23   C     C_R   0.595649 0.474882 0.008187 0.061639
C24   C     C_R   0.404351 0.525117 0.991813 0.061640
C25   C     C_R   0.976314 0.004137 0.523806 -0.081764
C26   C     C_R   0.023674 0.995851 0.476179 -0.081765
C27   C     C_R   0.523797 0.503920 0.976308 -0.082053
C28   C     C_R   0.476203 0.496079 0.023692 -0.082053
C29   C     C_R   0.000593 0.052330 0.601873 0.066984
C30   C     C_R   0.999393 0.947710 0.398107 0.066985
C31   C     C_R   0.499023 0.533567 0.896821 0.066068
C32   C     C_R   0.500977 0.466432 0.103179 0.066068
C33   C     C_R   0.884453 0.892049 0.417493 0.152835
C34   C     C_R   0.115536 0.107952 0.582487 0.152815
C35   C     C_R   0.617524 0.426270 0.086335 0.153532
C36   C     C_R   0.382476 0.573728 0.913665 0.153533
C37   C     C_R   0.927242 0.925601 0.368178 0.152275
C38   C     C_R   0.072745 0.074461 0.631803 0.152286
C39   C     C_R   0.573424 0.460960 0.134118 0.152287
C40   C     C_R   0.426576 0.539038 0.865882 0.152285
C41   C     C_1   0.583210 0.027418 0.581576 -0.195252
C42   C     C_1   0.416789 0.972581 0.418424 -0.195258
C43   C     C_1   0.916792 0.527510 0.918428 -0.194300
C44   C     C_1   0.083208 0.472490 0.081572 -0.194304
C45   C     C_1   0.530866 0.010860 0.530174 0.006272
C46   C     C_1   0.469134 0.989140 0.469826 0.006269
C47   C     C_1   0.969135 0.510904 0.969827 0.005637
C48   C     C_1   0.030865 0.489096 0.030172 0.005640
C49   C     C_3   0.970855 0.196551 0.720634 -0.776119
H1    H     H_    0.931353 0.308405 0.721976 0.209529
H2    H     H_    0.975170 0.097767 0.769847 0.198661
H3    H     H_    0.018363 0.283659 0.726682 0.219783
C50   C     C_3   0.029117 0.803685 0.279305 -0.776144
H4    H     H_    0.068619 0.691874 0.277911 0.209505
H5    H     H_    0.981615 0.716543 0.273250 0.219781
H6    H     H_    0.024781 0.902574 0.230119 0.198684
C51   C     C_3   0.526195 0.658822 0.773771 -0.777118
H7    H     H_    0.564064 0.771411 0.767480 0.206166
H8    H     H_    0.522685 0.549161 0.728240 0.200503
H9    H     H_    0.477600 0.741913 0.765647 0.219949
C52   C     C_3   0.473804 0.341175 0.226229 -0.777120
H10   H     H_    0.435936 0.228586 0.232519 0.206166
H11   H     H_    0.522400 0.258084 0.234352 0.219948
H12   H     H_    0.477314 0.450835 0.271760 0.200502
C53   C     C_3   0.780302 0.000041 0.505688 -0.772859
H13   H     H_    0.756642 0.113648 0.534463 0.190865
H14   H     H_    0.768786 0.050505 0.446102 0.217337
H15   H     H_    0.754204 0.860177 0.510859 0.206549
C54   C     C_3   0.219682 0.999665 0.494312 -0.773093
H16   H     H_    0.243264 0.885699 0.465621 0.190991
H17   H     H_    0.245839 0.139352 0.489003 0.206505
H18   H     H_    0.231204 0.949584 0.553946 0.217427
C55   C     C_3   0.719701 0.537476 0.995963 -0.779540
H19   H     H_    0.740209 0.652214 0.964621 0.196582
H20   H     H_    0.729482 0.596625 0.054212 0.219355
H21   H     H_    0.749742 0.402746 0.994260 0.203792
C56   C     C_3   0.280299 0.462523 0.004037 -0.779536
H22   H     H_    0.259791 0.347786 0.035380 0.196582
H23   H     H_    0.250258 0.597253 0.005739 0.203792
H24   H     H_    0.270518 0.403373 0.945789 0.219356
C57   C     C_3   0.822894 0.759661 0.388945 -0.776023
H25   H     H_    0.807819 0.683520 0.436102 0.219639
H26   H     H_    0.778706 0.841053 0.353424 0.208125
H27   H     H_    0.836752 0.642099 0.353513 0.207249
C58   C     C_3   0.177096 0.240349 0.611017 -0.776094
H28   H     H_    0.192256 0.316192 0.563849 0.219710
H29   H     H_    0.163198 0.358130 0.646329 0.207274
H30   H     H_    0.221245 0.159036 0.646651 0.208112
C59   C     C_3   0.682132 0.308920 0.119217 -0.778425
H31   H     H_    0.700081 0.229571 0.074650 0.219970
H32   H     H_    0.723701 0.402419 0.153042 0.208294
H33   H     H_    0.670648 0.194186 0.157363 0.206669
C60   C     C_3   0.317868 0.691076 0.880783 -0.778426
H34   H     H_    0.299919 0.770427 0.925350 0.219969
H35   H     H_    0.329351 0.805810 0.842636 0.206668
H36   H     H_    0.276299 0.597577 0.846958 0.208296
C61   C     C_3   0.891888 0.969978 0.286125 -0.785241
H37   H     H_    0.926005 0.051061 0.257207 0.219974
H38   H     H_    0.872702 0.834999 0.254545 0.209407
H39   H     H_    0.846906 0.066638 0.283822 0.207758
C62   C     C_3   0.108095 0.030204 0.713868 -0.785270
H40   H     H_    0.073971 0.949221 0.742809 0.219985
H41   H     H_    0.153068 0.933492 0.716195 0.207744
H42   H     H_    0.127292 0.165226 0.745410 0.209430
C63   C     C_3   0.606934 0.523478 0.214734 -0.782336
H43   H     H_    0.628102 0.396589 0.250595 0.210104
H44   H     H_    0.650301 0.624567 0.214672 0.206941
H45   H     H_    0.570908 0.606543 0.240350 0.219070
C64   C     C_3   0.393066 0.476518 0.785266 -0.782329
H46   H     H_    0.371898 0.603407 0.749405 0.210106
H47   H     H_    0.429093 0.393453 0.759650 0.219070
H48   H     H_    0.349700 0.375430 0.785328 0.206938

loop_
_geom_bond_atom_site_label_1
_geom_bond_atom_site_label_2
_ccdc_geom_bond_type
C34   C38   A    
C17   C53   S    
O17   V3    S    
C56   H22   S    
O19   V1    S    
C18   C54   S    
O13   V1    S    
C49   H1    S    
O3    C7    A    
O15   V3    S    
C51   H9    S    
C55   H19   S    
C11   C51   S    
C42   C46   T    
C2    C43   S    
O1    C5    A    
C57   H26   S    
C21   C33   A    
C26   C30   A    
O9    V1    S    
C51   H7    S    
C14   C18   A    
C60   H35   S    
C10   C50   S    
C11   C15   A    
O4    C8    A    
C25   C29   A    
C50   H6    S    
C34   C58   S    
O1    V3    S    
O2    V4    S    
C18   C22   A    
O3    V1    S    
C54   H17   S    
C12   C16   A    
C51   H8    S    
C1    O15   A    
C2    O16   A    
C61   H39   S    
O2    C6    A    
C64   H48   S    
O14   V2    S    
C53   H14   S    
C16   C20   A    
C27   C31   A    
C3    C42   S    
O8    C4    A    
C59   H33   S    
O11   C7    A    
O12   C8    A    
C22   C34   A    
O17   V1    S    
C49   H2    S    
O10   V2    S    
C55   H20   S    
C24   C36   A    
O5    V1    S    
C50   H5    S    
C9    C29   A    
C57   H27   S    
O7    V3    S    
C33   C57   S    
C52   H11   S    
C11   C31   A    
C27   C28   A    
O8    V4    S    
O20   V4    S    
C60   H36   S    
O18   V4    S    
C15   C19   A    
C52   H10   S    
O19   V3    S    
C9    C13   A    
C44   C48   T    
O7    C3    A    
O5    C1    A    
C12   C32   A    
C62   H42   S    
C29   C38   A    
C4    C41   S    
C21   C25   A    
C35   C59   S    
C31   C40   A    
C8    C13   S    
C32   C39   A    
O9    C5    A    
C36   C60   S    
C54   H16   S    
C53   H15   S    
C33   C37   A    
C61   H37   S    
C9    C49   S    
O6    V2    S    
C10   C30   A    
C54   H18   S    
C64   H46   S    
C49   H3    S    
C58   H30   S    
C55   H21   S    
C62   H41   S    
C59   H31   S    
O16   V4    S    
C52   H12   S    
C40   C64   S    
C3    O13   A    
C10   C14   A    
C19   C55   S    
C37   C61   S    
O6    C2    A    
C38   C62   S    
C23   C27   A    
C20   C56   S    
O11   V3    S    
C30   C37   A    
C12   C52   S    
O12   V4    S    
C7    C14   S    
C57   H25   S    
C22   C26   A    
C35   C39   A    
C36   C40   A    
C63   H45   S    
C58   H29   S    
C63   H43   S    
C1    C44   S    
C47   C48   S    
C58   H28   S    
O10   C6    A    
C62   H40   S    
C5    C16   S    
C41   C45   T    
C6    C15   S    
O20   V2    S    
C43   C47   T    
C39   C63   S    
C13   C17   A    
C45   C46   S    
C61   H38   S    
C23   C35   A    
C28   C32   A    
C24   C28   A    
C56   H23   S    
C25   C26   A    
C4    O14   A    
C64   H47   S    
C17   C21   A    
C50   H4    S    
C56   H24   S    
C63   H44   S    
C53   H13   S    
C60   H34   S    
C19   C23   A    
O4    V2    S    
C20   C24   A    
C59   H32   S    
O18   V2    S    
