data_str_m3_o14_o24_f0_pcu.sym.171
_audit_creation_date              2013-03-05T15:54:13-0500
_audit_creation_method            fapswitch 2.2
_symmetry_space_group_name_H-M    P1
_symmetry_Int_Tables_number       1
_space_group_crystal_system       triclinic
_cell_length_a                    10.504431
_cell_length_b                    10.639142
_cell_length_c                    9.902153
_cell_angle_alpha                 91.001619
_cell_angle_beta                  90.332557
_cell_angle_gamma                 91.592796
_cell_volume                      1106.02761132

loop_
_atom_site_label
_atom_site_type_symbol
_atom_site_description
_atom_site_fract_x
_atom_site_fract_y
_atom_site_fract_z
_atom_type_partial_charge
O1    O     O_R   0.500000 0.316780 0.614690 -0.655915
O2    O     O_R   0.499990 0.316750 0.385360 -0.603342
C1    C     C_R   0.523677 0.263604 0.498932 0.881917
O3    O     O_R   0.313960 0.499980 0.614650 -0.611400
O4    O     O_R   0.313940 0.499960 0.385310 -0.655688
C2    C     C_R   0.257508 0.500134 0.499561 0.915591
Zn1   Zn    Zn3+2 0.500010 0.500020 0.653130 0.938181
Zn2   Zn    Zn3+2 0.499990 0.499980 0.346870 0.961825
O5    O     O_R   0.500010 0.683250 0.614640 -0.620513
O6    O     O_R   0.500000 0.683220 0.385310 -0.629444
O7    O     O_R   0.686060 0.500040 0.614690 -0.643277
O8    O     O_R   0.686040 0.500020 0.385350 -0.597271
C3    C     C_R   0.497429 0.741556 0.502187 0.939911
C4    C     C_R   0.742527 0.500369 0.500493 0.857596
C5    C     C_3   0.040166 0.402071 0.569474 -0.215889
C6    C     C_3   0.954572 0.393710 0.441958 -0.151897
H1    H     H_    0.912866 0.306298 0.394898 0.161294
H2    H     H_    0.077532 0.321337 0.625629 0.135622
C7    C     C_3   0.877387 0.500754 0.501552 0.023240
C8    C     C_3   0.959998 0.509089 0.629456 -0.210024
C9    C     C_3   0.044045 0.607503 0.557852 0.044003
C10   C     C_3   0.959011 0.600654 0.430940 -0.246629
C11   C     C_3   0.039241 0.493470 0.371352 -0.149984
C12   C     C_3   0.122587 0.501764 0.498951 0.014541
H3    H     H_    0.924218 0.515904 0.734611 0.150112
H4    H     H_    0.921523 0.681570 0.375179 0.137483
H5    H     H_    0.075102 0.486777 0.266229 0.157044
C13   C     C_R   0.628444 0.134199 0.735976 -0.139345
H6    H     H_    0.676650 0.225105 0.728401 0.156494
C14   C     C_R   0.621367 0.079505 0.862277 -0.135792
H7    H     H_    0.661586 0.128565 0.949773 0.172137
C15   C     C_R   0.557870 0.964252 0.876032 -0.186004
H8    H     H_    0.545804 0.924140 0.974973 0.127164
C16   C     C_R   0.510590 0.899328 0.762087 -0.134256
H9    H     H_    0.455074 0.815198 0.781902 0.198750
C17   C     C_R   0.530194 0.947104 0.630345 0.098417
C18   C     C_R   0.574666 0.072011 0.620870 0.064924
C19   C     C_R   0.560190 0.133002 0.496899 -0.145539
C20   C     C_R   0.550704 0.062597 0.375612 -0.008185
H10   H     H_    0.512187 0.883106 0.288241 0.164250
C21   C     C_R   0.521456 0.936245 0.382457 -0.329232
C22   C     C_R   0.508092 0.877599 0.507357 -0.101562
H11   H     H_    0.641208 0.642912 0.128876 0.138771
C23   C     C_R   0.335117 0.333659 0.136580 -0.167116
H12   H     H_    0.329312 0.328743 0.243575 0.201476
C24   C     C_R   0.254030 0.251188 0.064609 -0.214482
H13   H     H_    0.190862 0.187213 0.117790 0.154387
C25   C     C_R   0.253437 0.251290 0.924849 -0.184690
H14   H     H_    0.189712 0.187444 0.869010 0.150795
C26   C     C_R   0.334011 0.333772 0.856254 -0.137453
H15   H     H_    0.326553 0.328875 0.749158 0.200716
C27   C     C_R   0.418508 0.417918 0.925801 0.168139
C28   C     C_R   0.418762 0.417892 0.070470 0.187121
N1    N     N_R   0.498800 0.498800 0.142780 -0.110478
C29   C     C_R   0.577751 0.578621 0.073482 -0.101244
H16   H     H_    0.641282 0.642699 0.877986 0.143904
C30   C     C_R   0.577797 0.578515 0.930298 -0.142604
N2    N     N_R   0.498760 0.498720 0.857170 -0.121677
C31   C     C_2   0.090484 0.728819 0.622554 0.351656
H17   H     H_    0.022036 0.794443 0.661790 0.058478
O9    O     O_2   0.204084 0.754820 0.631236 -0.585974
C32   C     C_2   0.574195 0.115323 0.240212 0.413720
H18   H     H_    0.521497 0.077745 0.153474 0.043690
O10   O     O_2   0.656357 0.196998 0.223682 -0.576447

loop_
_geom_bond_atom_site_label_1
_geom_bond_atom_site_label_2
_geom_bond_distance
_ccdc_geom_bond_type
C5    H2    1.110827 S    
C26   C27   1.410933 A    
C11   C12   1.532873 S    
H10   C21   1.084860 S    
C18   C19   1.407940 A    
C11   H5    1.110853 S    
O4    Zn2   1.993233 S    
C17   C18   1.401201 A    
C21   C22   1.400986 A    
Zn1   N2    2.020841 S    
C17   C22   1.428137 A    
C7    C8    1.531026 S    
Zn2   O8    1.988963 S    
C2    C12   1.417837 S    
C15   H8    1.082183 S    
C8    C9    1.536329 S    
C25   C26   1.390683 A    
C26   H15   1.063179 S    
C31   H17   1.084918 S    
C20   C21   1.373517 A    
C24   H13   1.082753 S    
C9    C10   1.537085 S    
H16   C30   1.081859 S    
C14   C15   1.388678 A    
C13   H6    1.083139 S    
C30   N2    1.366282 A    
C32   H18   1.083584 S    
C27   N2    1.377787 A    
C13   C18   1.414706 A    
C27   C28   1.432528 A    
O3    Zn1   1.988963 S    
O4    C2    1.280269 A    
C4    C7    1.416500 S    
C13   C14   1.390099 A    
C5    C12   1.531039 S    
C16   C17   1.422339 A    
O8    C4    1.282167 A    
C3    C22   1.448580 S    
C9    C31   1.498938 S    
C6    C11   1.544994 S    
O2    C1    1.293515 A    
C29   C30   1.417811 A    
C6    C7    1.528385 S    
C14   H7    1.081314 S    
O7    C4    1.279981 A    
C24   C25   1.383923 A    
C31   O9    1.219633 D    
C6    H1    1.110766 S    
C8    H3    1.110925 S    
C28   N1    1.375408 A    
Zn2   N1    2.020713 S    
C5    C6    1.545682 S    
C7    C10   1.528386 S    
C19   C20   1.405849 A    
C23   H12   1.063702 S    
O3    C2    1.281666 A    
C16   H9    1.076198 S    
C10   H4    1.110854 S    
C9    C12   1.523373 S    
H11   C29   1.081817 S    
Zn1   O5    1.992846 S    
C20   C32   1.481769 S    
O5    C3    1.284610 A    
N1    C29   1.366637 A    
C25   H14   1.082834 S    
Zn1   O7    1.993234 S    
C32   O10   1.221338 D    
O1    Zn1   1.979785 S    
C10   C11   1.547413 S    
C23   C28   1.409640 A    
Zn2   O6    1.979785 S    
O2    Zn2   1.992846 S    
C1    C19   1.451532 S    
C23   C24   1.390258 A    
C5    C8    1.547190 S    
O1    C1    1.297798 A    
O6    C3    1.304430 A    
C15   C16   1.394273 A    
