data_str_m12_o4_o9_f0_bcu.sym.109
_audit_creation_date              2012-12-11T17:10:14-0500
_audit_creation_method            fapswitch 2.2
_symmetry_space_group_name_H-M    P1
_symmetry_Int_Tables_number       1
_space_group_crystal_system       triclinic
_cell_length_a                    14.905769
_cell_length_b                    14.863292
_cell_length_c                    14.90478
_cell_angle_alpha                 109.230126
_cell_angle_beta                  110.285664
_cell_angle_gamma                 109.092819
_cell_volume                      2535.60399746

loop_
_atom_site_label
_atom_site_type_symbol
_atom_type_description
_atom_site_fract_x
_atom_site_fract_y
_atom_site_fract_z
_atom_type_partial_charge
C1    C     C_R   0.186037 0.279223 0.255094 -0.141269
C2    C     C_R   0.451943 0.449548 0.776370 0.071235
C3    C     C_R   0.566825 0.197754 0.499464 0.081238
C4    C     C_R   0.205225 0.579171 0.498180 0.071033
C5    C     C_R   0.474867 0.721443 0.407294 -0.145477
C6    C     C_R   0.814704 0.564874 0.594271 -0.133698
C7    C     C_R   0.496483 0.404568 0.196965 -0.151978
C8    C     C_R   0.707109 0.798976 0.803965 -0.163361
C9    C     C_R   0.800902 0.710209 0.806043 -0.136105
C10   C     C_R   0.405097 0.496118 0.194818 -0.141791
C11   C     C_R   0.564200 0.815364 0.591746 -0.123728
C12   C     C_R   0.525573 0.432279 0.746499 -0.145060
C13   C     C_R   0.725549 0.466627 0.410010 -0.125869
C14   C     C_R   0.548967 0.825425 0.498703 0.069209
C15   C     C_R   0.829830 0.542055 0.504618 0.051983
C16   C     C_R   0.435995 0.434812 0.132360 0.079974
C17   C     C_R   0.801665 0.803275 0.869368 0.077388
C18   C     C_R   0.106140 0.622648 0.196370 -0.124225
C19   C     C_R   0.109860 0.641788 0.296310 -0.146097
C20   C     C_R   0.026113 0.565118 0.298495 0.112033
C21   C     C_R   0.938299 0.469653 0.198817 -0.172097
C22   C     C_R   0.935046 0.450955 0.099191 -0.101066
C23   C     C_R   0.505699 0.201354 0.408538 -0.164372
C24   C     C_R   0.018916 0.527285 0.097981 -0.102563
C25   C     C_R   0.935869 0.570689 0.411023 -0.235967
C26   C     C_R   0.936128 0.585102 0.509208 0.063872
C27   C     C_R   0.038521 0.636239 0.607677 0.041680
C28   C     C_R   0.133695 0.664037 0.602494 -0.228973
C29   C     C_R   0.127080 0.618875 0.500788 0.044710
C30   C     C_R   0.030567 0.584963 0.404651 0.031974
C31   C     C_R   0.113900 0.751239 0.808662 -0.232119
C32   C     C_R   0.138342 0.762116 0.912333 0.144952
C33   C     C_R   0.100282 0.668500 0.922375 -0.175244
C34   C     C_R   0.296086 0.602709 0.590084 -0.132047
C35   C     C_R   0.039860 0.563958 0.828872 -0.149665
C36   C     C_R   0.017922 0.552825 0.725495 -0.143458
C37   C     C_R   0.053024 0.646664 0.714560 0.082490
C38   C     C_R   0.453493 0.347583 0.879008 0.163822
C39   C     C_R   0.407901 0.401355 0.832999 0.032045
C40   C     C_R   0.334459 0.425831 0.861063 -0.197688
C41   C     C_R   0.331436 0.423733 0.953236 -0.202163
C42   C     C_R   0.400971 0.395966 0.015982 0.032275
C43   C     C_R   0.449619 0.344568 0.969064 0.162051
C44   C     C_3   0.562376 0.357623 0.019875 -0.520881
C45   C     C_R   0.596023 0.290540 0.591368 -0.139569
C46   C     C_3   0.567132 0.361645 0.921938 -0.518704
C47   C     C_R   0.553322 0.927931 0.396438 0.171370
C48   C     C_R   0.595254 0.926889 0.495790 0.033972
C49   C     C_R   0.667391 0.028790 0.594466 -0.198760
C50   C     C_R   0.671241 0.124419 0.595117 -0.205450
C51   C     C_R   0.603817 0.117678 0.496840 0.032719
C52   C     C_R   0.558156 0.022395 0.397057 0.152875
C53   C     C_3   0.447787 0.959647 0.293839 -0.503188
C54   C     C_3   0.441806 0.856519 0.293542 -0.534202
C55   C     C_R   0.967865 0.073549 0.126386 0.142264
C56   C     C_R   0.202501 0.509409 0.407623 -0.153838
C57   C     C_R   0.067919 0.074308 0.171188 0.041602
C58   C     C_R   0.063685 0.972176 0.142145 -0.190896
C59   C     C_R   0.969120 0.876796 0.048973 -0.176233
C60   C     C_R   0.878249 0.883718 0.986974 0.014328
C61   C     C_R   0.873412 0.979014 0.036564 0.104475
C62   C     C_3   0.833519 0.042658 0.989556 -0.161997
C63   C     C_3   0.937796 0.145722 0.086756 -0.578892
C64   C     C_R   0.435989 0.527124 0.750712 -0.122403
C65   C     C_R   0.276185 0.185353 0.252103 -0.120267
C66   C     C_R   0.173054 0.175480 0.226638 0.069199
H1    H     H_    0.125502 0.303949 0.253014 0.114994
H2    H     H_    0.873254 0.625430 0.679415 0.127424
H3    H     H_    0.516519 0.340930 0.169585 0.103062
H4    H     H_    0.669672 0.844707 0.830899 0.106490
H5    H     H_    0.853312 0.678481 0.835851 0.098018
H6    H     H_    0.343843 0.518983 0.164944 0.088332
H7    H     H_    0.617089 0.879512 0.677211 0.093718
H8    H     H_    0.705084 0.430442 0.324897 0.092576
H9    H     H_    0.016281 0.512409 0.020770 0.094381
H10   H     H_    0.170871 0.681721 0.195158 0.104463
H11   H     H_    0.178045 0.716020 0.371916 0.115299
H12   H     H_    0.552769 0.374095 0.749624 0.110689
H13   H     H_    0.873277 0.408902 0.198337 0.113298
H14   H     H_    0.867618 0.377051 0.022921 0.110488
H15   H     H_    0.860783 0.542982 0.337648 0.125005
H16   H     H_    0.210238 0.702605 0.678707 0.126515
H17   H     H_    0.144579 0.823848 0.801272 0.128771
H18   H     H_    0.119116 0.676429 0.002518 0.110824
H19   H     H_    0.011756 0.491522 0.836775 0.114296
H20   H     H_    0.973655 0.471509 0.654061 0.120965
H21   H     H_    0.290642 0.459928 0.821960 0.131987
H22   H     H_    0.486694 0.154637 0.325162 0.110378
H23   H     H_    0.285470 0.456329 0.981830 0.126847
H24   H     H_    0.623962 0.436646 0.098512 0.201683
H25   H     H_    0.560317 0.283121 0.022528 0.192798
H26   H     H_    0.631481 0.443252 0.945671 0.203689
H27   H     H_    0.568478 0.289797 0.868766 0.191413
H28   H     H_    0.709083 0.033414 0.672792 0.125694
H29   H     H_    0.715533 0.198937 0.673915 0.123102
H30   H     H_    0.383966 0.975190 0.306801 0.200186
H31   H     H_    0.454274 0.965576 0.223697 0.201592
H32   H     H_    0.375069 0.814973 0.307312 0.195135
H33   H     H_    0.333810 0.665266 0.674639 0.088827
H34   H     H_    0.443334 0.802511 0.222440 0.196803
H35   H     H_    0.136700 0.967301 0.181203 0.133256
H36   H     H_    0.973280 0.802222 0.019140 0.129211
H37   H     H_    0.827963 0.026370 0.908904 0.130695
H38   H     H_    0.993081 0.185636 0.060643 0.192917
H39   H     H_    0.924847 0.202621 0.144726 0.196904
H40   H     H_    0.657417 0.322813 0.675798 0.084839
H41   H     H_    0.150013 0.481666 0.322082 0.118105
H42   H     H_    0.382978 0.559407 0.761545 0.097733
H43   H     H_    0.297701 0.121979 0.245037 0.109669
H44   H     H_    0.447977 0.697209 0.322045 0.112350
N1    N     N_R   0.291070 0.347930 0.293870 -0.041231
N2    N     N_R   0.708930 0.502750 0.556810 -0.042282
N3    N     N_R   0.502760 0.445970 0.293860 -0.037593
N4    N     N_R   0.652110 0.708890 0.706130 -0.037320
N5    N     N_R   0.708930 0.652070 0.706130 -0.040876
N6    N     N_R   0.445950 0.502780 0.293850 -0.038499
N7    N     N_R   0.502760 0.708900 0.556790 -0.040171
N8    N     N_R   0.652110 0.445950 0.443190 -0.039131
N9    N     N_R   0.554050 0.497220 0.706150 -0.040422
N10   N     N_R   0.497240 0.291100 0.443210 -0.038492
N11   N     N_R   0.347890 0.554050 0.556810 -0.039911
N12   N     N_R   0.554050 0.347900 0.556830 -0.038378
N13   N     N_R   0.291070 0.497250 0.443190 -0.040843
N14   N     N_R   0.497240 0.554030 0.706140 -0.040327
N15   N     N_R   0.347890 0.291110 0.293870 -0.041143
N16   N     N_R   0.445950 0.652100 0.443170 -0.039660
Ni1   Ni    Ni4+2 0.369690 0.500010 0.369700 0.212478
Ni2   Ni    Ni4+2 0.630310 0.499990 0.630300 0.211236
Ni3   Ni    Ni4+2 0.500000 0.369720 0.369720 0.212260
Ni4   Ni    Ni4+2 0.500000 0.630280 0.630280 0.212095
C67   C     C_1   0.207582 0.869544 0.008547 0.002569
N17   N     N_1   0.264254 0.956440 0.085394 -0.117646
C68   C     C_1   0.733926 0.037018 0.991949 0.076915
N18   N     N_1   0.655627 0.032568 0.993723 -0.104456

loop_
_geom_bond_atom_site_label_1
_geom_bond_atom_site_label_2
_ccdc_geom_bond_type
C41   H23   S    
C40   C41   A    
N16   Ni1   S    
C41   C42   A    
C3    C23   A    
C35   C36   A    
C57   C66   S    
C2    C12   A    
N4    N5    A    
C44   H24   S    
C20   C30   S    
C53   C54   S    
C52   C53   S    
C26   C27   A    
C29   C30   A    
N3    Ni3   S    
C18   C24   A    
C40   H21   S    
C28   C29   A    
C38   C39   A    
C11   C14   A    
C50   H29   S    
C46   H26   S    
C5    H44   S    
C31   H17   S    
C18   C19   A    
C19   H11   S    
C1    H1    S    
C6    C15   A    
C2    C39   S    
C19   C20   A    
C44   C46   S    
N6    Ni1   S    
C12   H12   S    
C5    N16   A    
N1    N15   A    
C49   H28   S    
C63   H39   S    
N7    N16   A    
N11   Ni4   S    
C4    C29   S    
C8    N4    A    
N3    N6    A    
N9    Ni2   S    
C6    H2    S    
C59   C60   A    
N9    N14   A    
C21   C22   A    
C4    C56   A    
C53   H30   S    
C25   H15   S    
N4    Ni4   S    
C54   H34   S    
N10   N12   A    
C64   H42   S    
C4    C34   A    
N11   N13   A    
C28   H16   S    
N10   Ni3   S    
C9    N5    A    
C56   N13   A    
C13   N8    A    
C2    C64   A    
C11   H7    S    
C23   N10   A    
C3    C51   S    
C15   C26   S    
C14   C48   S    
C36   H20   S    
C58   C59   A    
C64   N14   A    
C3    C45   A    
N5    Ni2   S    
C31   C37   A    
C55   C63   S    
C60   C61   A    
C65   N15   A    
C43   C44   S    
C56   H41   S    
C62   C63   S    
C12   N9    A    
N13   Ni1   S    
C47   C48   A    
C21   H13   S    
C1    C66   A    
N14   Ni4   S    
C50   C51   A    
C58   H35   S    
C13   H8    S    
N7    Ni4   S    
C65   H43   S    
C5    C14   A    
C44   H25   S    
C47   C54   S    
C9    C17   A    
C7    C16   A    
C49   C50   A    
C34   N11   A    
C23   H22   S    
C13   C15   A    
N1    Ni1   S    
C68   N18   T    
C22   C24   A    
C42   C43   A    
C67   N17   T    
C11   N7    A    
C16   C42   S    
C39   C40   A    
C10   N6    A    
C45   H40   S    
C62   C68   S    
C62   H37   S    
C25   C30   A    
C36   C37   A    
C18   H10   S    
C59   H36   S    
C6    N2    A    
C31   C32   A    
C9    H5    S    
C63   H38   S    
C7    H3    S    
C24   H9    S    
C47   C52   A    
C45   N12   A    
C34   H33   S    
C8    H4    S    
C8    C17   A    
C53   H31   S    
C32   C33   A    
C7    N3    A    
C55   C57   A    
C25   C26   A    
C22   H14   S    
C51   C52   A    
N8    Ni3   S    
C10   C16   A    
C1    N1    A    
C38   C46   S    
N2    N8    A    
C35   H19   S    
C57   C58   A    
C46   H27   S    
C27   C37   S    
C48   C49   A    
C55   C61   A    
C33   C35   A    
N12   Ni2   S    
C61   C62   S    
C33   H18   S    
N2    Ni2   S    
C17   C60   S    
N15   Ni3   S    
C38   C43   A    
C20   C21   A    
C65   C66   A    
C27   C28   A    
C54   H32   S    
C32   C67   S    
C10   H6    S    
