data_str_m2_o1_o16_f0_pcu.sym.120
_audit_creation_date              2012-12-10T17:57:23-0500
_audit_creation_method            fapswitch 2.2
_symmetry_space_group_name_H-M    P1
_symmetry_Int_Tables_number       1
_space_group_crystal_system       triclinic
_cell_length_a                    9.577263
_cell_length_b                    10.751358
_cell_length_c                    13.377711
_cell_angle_alpha                 88.532556
_cell_angle_beta                  73.111417
_cell_angle_gamma                 89.166961
_cell_volume                      1317.60655339

loop_
_atom_site_label
_atom_site_type_symbol
_atom_type_description
_atom_site_fract_x
_atom_site_fract_y
_atom_site_fract_z
_atom_type_partial_charge
C1    C     C_R   0.500621 0.737606 0.497362 0.790521
C2    C     C_R   0.430511 0.459024 0.982099 0.089024
C3    C     C_R   0.467328 0.439768 0.873376 0.077016
C4    C     C_R   0.538606 0.440652 0.034302 0.082949
C5    C     C_R   0.672567 0.382261 0.983281 0.176131
C6    C     C_R   0.696712 0.342321 0.881131 -0.270028
C7    C     C_R   0.596267 0.371525 0.826441 -0.218700
C8    C     C_R   0.518817 0.484831 0.134668 -0.268323
C9    C     C_R   0.753579 0.404856 0.138342 -0.201109
C10   C     C_R   0.372921 0.488126 0.816329 -0.158061
C11   C     C_R   0.611550 0.939222 0.419296 0.008933
C12   C     C_R   0.421633 0.495623 0.700512 0.776853
C13   C     C_R   0.611357 0.068511 0.425566 -0.217348
C14   C     C_R   0.502252 0.128938 0.501362 -0.018490
C15   C     C_R   0.393147 0.062200 0.573709 -0.216193
C16   C     C_R   0.394429 0.933608 0.571079 -0.202353
C17   C     C_R   0.501783 0.871837 0.494181 -0.035857
C18   C     C_R   0.939546 0.596388 0.456473 -0.057647
C19   C     C_R   0.086768 0.598147 0.456823 0.103809
C20   C     C_R   0.057927 0.403390 0.544415 -0.044593
C21   C     C_R   0.909608 0.403452 0.544377 -0.053936
C22   C     C_R   0.500051 0.262512 0.501854 0.776537
C23   C     C_R   0.578095 0.492279 0.300372 0.797274
C24   C     C_R   0.779564 0.364780 0.035667 -0.200071
C25   C     C_R   0.621242 0.464093 0.188555 -0.061339
C26   C     C_R   0.233013 0.535370 0.872583 -0.008535
C27   C     C_R   0.189106 0.530454 0.981276 -0.201452
C28   C     C_R   0.286357 0.494436 0.035442 -0.222113
Cu1   Cu    Cu3+1 0.359340 0.499980 0.500000 0.952395
Cu2   Cu    Cu3+1 0.640660 0.500020 0.500000 0.933861
H1    H     H_    0.834774 0.387021 0.178967 0.154980
H2    H     H_    0.691738 0.123201 0.367995 0.136294
H3    H     H_    0.308358 0.109547 0.632494 0.125974
H4    H     H_    0.311393 0.881987 0.628720 0.142096
H5    H     H_    0.895412 0.672558 0.420268 0.148889
H6    H     H_    0.099503 0.326126 0.580874 0.119073
H7    H     H_    0.841044 0.326052 0.580595 0.118387
H8    H     H_    0.795526 0.291928 0.842130 0.131461
H9    H     H_    0.882311 0.319286 0.997673 0.132578
H10   H     H_    0.424804 0.538802 0.171802 0.144610
H11   H     H_    0.245184 0.492133 0.119471 0.133887
H12   H     H_    0.080138 0.559889 0.024706 0.147536
H13   H     H_    0.619958 0.337097 0.748159 0.164425
N1    N     N_R   0.147940 0.499970 0.499970 -0.164912
N2    N     N_R   0.852060 0.500060 0.499990 -0.164128
O1    O     O_R   0.381250 0.680340 0.500010 -0.566373
O2    O     O_R   0.618820 0.680370 0.500010 -0.583057
O3    O     O_R   0.323240 0.499950 0.650980 -0.565897
O4    O     O_R   0.560810 0.499980 0.650980 -0.582878
O5    O     O_R   0.381180 0.319630 0.499990 -0.588975
O6    O     O_R   0.618750 0.319660 0.499990 -0.592882
O7    O     O_R   0.439190 0.500020 0.349020 -0.579812
O8    O     O_R   0.676760 0.500050 0.349020 -0.573530
C29   C     C_R   0.168311 0.708090 0.404624 0.158906
C30   C     C_R   0.152069 0.822000 0.456186 -0.149033
C31   C     C_R   0.213168 0.930390 0.401796 -0.132875
C32   C     C_R   0.289767 0.925912 0.295737 -0.126703
C33   C     C_R   0.298870 0.814315 0.242859 -0.201247
C34   C     C_R   0.233892 0.707175 0.296787 -0.134544
H14   H     H_    0.091467 0.826944 0.537922 0.123134
H15   H     H_    0.200920 0.017853 0.441808 0.142161
H16   H     H_    0.338054 0.009542 0.253922 0.138100
H17   H     H_    0.351715 0.811808 0.159588 0.138023
H18   H     H_    0.226543 0.624924 0.254699 0.106822
C35   C     C_R   0.131414 0.597617 0.822425 0.148057
C36   C     C_R   0.021236 0.529896 0.798968 -0.108062
C37   C     C_R   0.920715 0.590939 0.756650 -0.112536
C38   C     C_R   0.928938 0.719500 0.738409 -0.119610
C39   C     C_R   0.037752 0.787479 0.762475 -0.165250
C40   C     C_R   0.138925 0.726835 0.804318 -0.161286
H19   H     H_    0.013873 0.430294 0.813177 0.101637
H20   H     H_    0.836329 0.538881 0.737887 0.155003
H21   H     H_    0.851056 0.766387 0.705566 0.127683
H22   H     H_    0.043639 0.887178 0.748728 0.118913
H23   H     H_    0.222191 0.780460 0.823463 0.116059
C41   C     C_R   0.718912 0.880958 0.328589 0.096191
C42   C     C_R   0.672013 0.800555 0.263730 -0.130770
C43   C     C_R   0.769186 0.760146 0.170341 -0.136652
C44   C     C_R   0.913956 0.799315 0.140746 -0.122219
C45   C     C_R   0.962050 0.878417 0.204731 -0.128416
C46   C     C_R   0.865823 0.918309 0.298574 -0.161743
H24   H     H_    0.559381 0.772293 0.283496 0.129517
H25   H     H_    0.731463 0.701050 0.119457 0.142058
H26   H     H_    0.988208 0.770316 0.067357 0.127819
H27   H     H_    0.073026 0.911467 0.180147 0.143281
H28   H     H_    0.904961 0.981070 0.346366 0.130682

loop_
_geom_bond_atom_site_label_1
_geom_bond_atom_site_label_2
_ccdc_geom_bond_type
Cu2   O6    S    
Cu2   N2    S    
C12   O3    A    
C12   O4    A    
C32   C33   A    
C9    C25   A    
C32   H16   S    
C42   C43   A    
C26   C27   A    
Cu1   Cu2   S    
C37   H20   S    
C3    C7    A    
C11   C41   S    
C5    C6    A    
C1    O1    A    
C16   C17   A    
C15   C16   A    
C28   H11   S    
C24   H9    S    
C31   C32   A    
C18   C19   A    
C13   H2    S    
C16   H4    S    
C43   H25   S    
C38   C39   A    
C6    H8    S    
C7    H13   S    
C18   H5    S    
C46   H28   S    
C4    C8    A    
Cu1   O5    S    
C10   C26   A    
C36   C37   A    
C30   H14   S    
C8    C25   A    
C20   N1    A    
C23   O8    A    
C21   N2    A    
C29   C34   A    
Cu2   O8    S    
Cu1   O3    S    
C37   C38   A    
Cu2   O2    S    
C41   C42   A    
C43   C44   A    
C1    O2    A    
C33   C34   A    
C2    C4    A    
C45   H27   S    
C36   H19   S    
C30   C31   A    
C34   H18   S    
C39   H22   S    
C10   C12   S    
C19   C29   S    
Cu2   O4    S    
Cu1   N1    S    
C18   N2    A    
C40   H23   S    
C19   N1    A    
C33   H17   S    
C29   C30   A    
C11   C17   A    
C14   C15   A    
C26   C35   S    
C45   C46   A    
C41   C46   A    
C9    C24   A    
C6    C7    A    
C1    C17   S    
C22   O5    A    
Cu1   O1    S    
C14   C22   S    
C2    C3    A    
C38   H21   S    
C3    C10   A    
C11   C13   A    
C27   H12   S    
C23   O7    A    
C44   H26   S    
C5    C24   A    
C42   H24   S    
C23   C25   S    
C39   C40   A    
C9    H1    S    
C44   C45   A    
C20   H6    S    
C4    C5    A    
C21   H7    S    
C20   C21   A    
C35   C36   A    
C27   C28   A    
C31   H15   S    
C2    C28   A    
C8    H10   S    
C13   C14   A    
C15   H3    S    
C35   C40   A    
C22   O6    A    
Cu1   O7    S    
