data_str_m4_o17_o17_f0_acs.sym.93
_audit_creation_date              2012-12-11T14:30:22-0500
_audit_creation_method            fapswitch 2.2
_symmetry_space_group_name_H-M    P1
_symmetry_Int_Tables_number       1
_space_group_crystal_system       triclinic
_cell_length_a                    12.618062
_cell_length_b                    12.617872
_cell_length_c                    27.134862
_cell_angle_alpha                 89.998107
_cell_angle_beta                  90.002097
_cell_angle_gamma                 120.002032
_cell_volume                      3741.34820987

loop_
_atom_site_label
_atom_site_type_symbol
_atom_type_description
_atom_site_fract_x
_atom_site_fract_y
_atom_site_fract_z
_atom_type_partial_charge
C1    C     C_R   0.558076 0.456924 0.822241 0.564331
C2    C     C_R   0.456918 0.558083 0.177755 0.564193
C3    C     C_R   0.003055 0.307672 0.474800 -0.130570
C4    C     C_R   0.305949 0.999490 0.025478 -0.130715
C5    C     C_R   0.692382 0.695362 0.474785 -0.130610
C6    C     C_R   0.305743 0.998904 0.525678 -0.130709
C7    C     C_R   0.999313 0.305881 0.974519 -0.130650
C8    C     C_R   0.692973 0.694460 0.525733 -0.130762
C9    C     C_R   0.306665 0.000923 0.974529 -0.130590
C10   C     C_R   0.001582 0.307109 0.525750 -0.130720
C11   C     C_R   0.694102 0.693484 0.974510 -0.130671
C12   C     C_R   0.441879 0.898792 0.322260 0.564048
C13   C     C_R   0.101157 0.543079 0.177757 0.564183
C14   C     C_R   0.993886 0.495969 0.974142 0.029827
C15   C     C_R   0.501841 0.005558 0.525942 0.029820
C16   C     C_R   0.504012 0.497964 0.974135 0.029832
C17   C     C_R   0.994517 0.496336 0.525963 0.029832
C18   C     C_R   0.502081 0.006157 0.974150 0.029833
C19   C     C_R   0.503663 0.498226 0.525966 0.029842
C20   C     C_R   0.495647 0.993320 0.474234 0.029835
C21   C     C_R   0.898907 0.441984 0.677781 0.564520
C22   C     C_R   0.006120 0.502082 0.025852 0.029827
C23   C     C_R   0.497641 0.504439 0.474257 0.029844
C24   C     C_R   0.495962 0.993926 0.025860 0.029854
C25   C     C_R   0.006753 0.502347 0.474253 0.029834
C26   C     C_R   0.497892 0.504091 0.025844 0.029836
C27   C     C_R   0.990646 0.687121 0.974473 -0.110145
C28   C     C_R   0.696849 0.010075 0.525498 -0.110100
C29   C     C_R   0.312848 0.303576 0.974466 -0.110162
C30   C     C_R   0.989554 0.686597 0.525466 -0.110098
C31   C     C_R   0.696402 0.009259 0.974476 -0.110160
C32   C     C_R   0.543077 0.101154 0.822242 0.564303
C33   C     C_R   0.313298 0.303082 0.525490 -0.110145
C34   C     C_R   0.687499 0.991465 0.474443 -0.110247
C35   C     C_R   0.009260 0.696426 0.025528 -0.110132
C36   C     C_R   0.304067 0.312431 0.474433 -0.110265
C37   C     C_R   0.687096 0.990655 0.025531 -0.110170
C38   C     C_R   0.008164 0.695837 0.474411 -0.110226
C39   C     C_R   0.303551 0.312877 0.025522 -0.110183
C40   C     C_R   0.961128 0.575195 0.897475 -0.170777
C41   C     C_R   0.614243 0.039077 0.602539 -0.170558
C42   C     C_R   0.424790 0.385970 0.897470 -0.170780
C43   C     C_R   0.558020 0.456932 0.677781 0.564494
C44   C     C_R   0.960779 0.575133 0.602533 -0.170568
C45   C     C_R   0.614029 0.038834 0.897479 -0.170784
C46   C     C_R   0.424822 0.385738 0.602546 -0.170558
C47   C     C_R   0.575220 0.961364 0.397494 -0.171043
C48   C     C_R   0.038841 0.614043 0.102522 -0.170791
C49   C     C_R   0.386218 0.424776 0.397496 -0.171039
C50   C     C_R   0.575176 0.961147 0.102525 -0.170822
C51   C     C_R   0.038481 0.613742 0.397485 -0.171058
C52   C     C_R   0.385951 0.424824 0.102517 -0.170808
C53   C     C_R   0.044458 0.520181 0.128241 0.028436
C54   C     C_R   0.898848 0.441927 0.822241 0.564342
C55   C     C_R   0.475477 0.955277 0.371823 0.028340
C56   C     C_R   0.479808 0.524307 0.128235 0.028455
C57   C     C_R   0.044779 0.520175 0.371838 0.028305
C58   C     C_R   0.475732 0.955578 0.128247 0.028540
C59   C     C_R   0.479811 0.524606 0.371841 0.028327
C60   C     C_R   0.520170 0.044193 0.628307 0.028560
C61   C     C_R   0.955559 0.475745 0.871753 0.028498
C62   C     C_R   0.523958 0.479848 0.628327 0.028639
C63   C     C_R   0.520175 0.044456 0.871758 0.028474
C64   C     C_R   0.955872 0.476066 0.628326 0.028636
C65   C     C_R   0.543073 0.101110 0.677774 0.564449
C66   C     C_R   0.524265 0.479833 0.871750 0.028486
C67   C     C_R   0.983377 0.587528 0.948415 0.007850
C68   C     C_R   0.604249 0.016723 0.551609 0.007939
C69   C     C_R   0.412450 0.395895 0.948408 0.007874
C70   C     C_R   0.983133 0.587478 0.551604 0.007921
C71   C     C_R   0.604111 0.016591 0.948420 0.007858
C72   C     C_R   0.412472 0.395744 0.551617 0.007944
C73   C     C_R   0.587535 0.983516 0.448443 0.007774
C74   C     C_R   0.016583 0.604125 0.051582 0.007855
C75   C     C_R   0.396031 0.412473 0.448448 0.007790
C76   C     C_R   0.456915 0.558136 0.322265 0.564025
C77   C     C_R   0.587508 0.983397 0.051587 0.007860
C78   C     C_R   0.016335 0.603919 0.448436 0.007778
C79   C     C_R   0.395855 0.412500 0.051576 0.007865
C80   C     C_R   0.981385 0.392775 0.896876 0.233208
C81   C     C_R   0.411114 0.017728 0.603257 0.233175
C82   C     C_R   0.607253 0.588626 0.896873 0.233195
C83   C     C_R   0.982572 0.393613 0.603308 0.233204
C84   C     C_R   0.411408 0.018700 0.896885 0.233192
C85   C     C_R   0.606475 0.588971 0.603298 0.233198
C86   C     C_R   0.392099 0.980399 0.397025 0.233190
C87   C     C_R   0.441923 0.898850 0.177759 0.564227
C88   C     C_R   0.018684 0.411405 0.103114 0.233191
C89   C     C_R   0.588234 0.608110 0.397066 0.233178
C90   C     C_R   0.392768 0.981429 0.103130 0.233255
C91   C     C_R   0.019895 0.411771 0.397070 0.233199
C92   C     C_R   0.588568 0.607339 0.103104 0.233183
C93   C     C_R   0.992613 0.398242 0.948313 0.024648
C94   C     C_R   0.405170 0.006283 0.551827 0.024611
C95   C     C_R   0.601754 0.594409 0.948307 0.024651
C96   C     C_R   0.994009 0.399075 0.551875 0.024575
C97   C     C_R   0.405663 0.007503 0.948322 0.024670
C98   C     C_R   0.101220 0.543082 0.322265 0.563997
C99   C     C_R   0.600984 0.594948 0.551867 0.024583
C100  C     C_R   0.397555 0.991435 0.448466 0.024717
C101  C     C_R   0.007444 0.405647 0.051677 0.024658
C102  C     C_R   0.593791 0.602624 0.448506 0.024724
C103  C     C_R   0.398250 0.992689 0.051689 0.024565
C104  C     C_R   0.008850 0.406224 0.448511 0.024712
C105  C     C_R   0.594321 0.601859 0.051668 0.024664
C106  C     C_R   0.000779 0.306608 0.025469 -0.130648
C107  C     C_R   0.304875 0.997417 0.474728 -0.130600
C108  C     C_R   0.693356 0.694241 0.025459 -0.130667
Cr1   Cr    Cr6+3 0.487630 0.241180 0.750000 1.071956
Cr2   Cr    Cr6+3 0.753550 0.512370 0.750000 1.071954
Cr3   Cr    Cr6+3 0.758820 0.246450 0.750000 1.071913
Cr4   Cr    Cr6+3 0.241180 0.487630 0.250000 1.072122
Cr5   Cr    Cr6+3 0.512370 0.753550 0.250000 1.072107
Cr6   Cr    Cr6+3 0.246450 0.758820 0.250000 1.072067
H1    H     H_    0.056596 0.696675 0.121708 0.134427
H2    H     H_    0.696652 0.056567 0.878294 0.134338
H3    H     H_    0.942280 0.639594 0.621640 0.134425
H4    H     H_    0.359919 0.303333 0.878286 0.134302
H5    H     H_    0.016926 0.775310 0.044688 0.100932
H6    H     H_    0.758968 0.984340 0.455237 0.101233
H7    H     H_    0.224669 0.241654 0.044683 0.100856
H8    H     H_    0.015114 0.774340 0.455186 0.101353
H9    H     H_    0.758288 0.982943 0.044691 0.100884
H10   H     H_    0.225533 0.240901 0.455215 0.101215
H11   H     H_    0.776032 0.018317 0.544610 0.100631
H12   H     H_    0.640395 0.944164 0.378250 0.134195
H13   H     H_    0.982936 0.758320 0.955315 0.100922
H14   H     H_    0.242397 0.223846 0.544591 0.100522
H15   H     H_    0.775279 0.016910 0.955317 0.100916
H16   H     H_    0.981132 0.757457 0.544559 0.100576
H17   H     H_    0.241643 0.224674 0.955308 0.100888
H18   H     H_    0.999897 0.229974 0.043711 0.118259
H19   H     H_    0.228823 0.997791 0.456527 0.118281
H20   H     H_    0.769978 0.770004 0.043700 0.118260
H21   H     H_    0.002816 0.231292 0.456620 0.118255
H22   H     H_    0.230271 0.000514 0.043712 0.118053
H23   H     H_    0.303337 0.359925 0.121705 0.134316
H24   H     H_    0.768775 0.771477 0.456597 0.118237
H25   H     H_    0.228917 0.997518 0.543970 0.118420
H26   H     H_    0.000222 0.230149 0.956274 0.118251
H27   H     H_    0.768349 0.771331 0.544032 0.118267
H28   H     H_    0.230063 0.000100 0.956285 0.118261
H29   H     H_    0.003131 0.231770 0.544057 0.118305
H30   H     H_    0.769838 0.770123 0.956264 0.118291
H31   H     H_    0.072829 0.296756 0.116903 0.309452
H32   H     H_    0.223147 0.925475 0.383238 0.309530
H33   H     H_    0.703183 0.776145 0.116893 0.309453
H34   H     H_    0.055498 0.696040 0.378221 0.134250
H35   H     H_    0.075105 0.297947 0.383344 0.309448
H36   H     H_    0.224016 0.927730 0.116870 0.309444
H37   H     H_    0.702076 0.777135 0.383324 0.309455
H38   H     H_    0.295985 0.071220 0.617084 0.309424
H39   H     H_    0.927340 0.224007 0.883073 0.309467
H40   H     H_    0.775043 0.704402 0.617126 0.309431
H41   H     H_    0.296812 0.072884 0.883066 0.309457
H42   H     H_    0.929587 0.225093 0.617165 0.309484
H43   H     H_    0.776047 0.703264 0.883089 0.309445
H44   H     H_    0.640032 0.943356 0.121708 0.134301
H45   H     H_    0.303908 0.359513 0.378237 0.134226
H46   H     H_    0.697126 0.057400 0.621667 0.134468
H47   H     H_    0.943344 0.640054 0.878290 0.134336
H48   H     H_    0.360306 0.302816 0.621663 0.134376
O1    O     O_R   0.460870 0.120930 0.805240 -0.449494
O2    O     O_R   0.120930 0.460870 0.194760 -0.449538
O3    O     O_R   0.539130 0.660060 0.305240 -0.449195
O4    O     O_R   0.339940 0.879070 0.194760 -0.449447
O5    O     O_R   0.498910 0.350470 0.801870 -0.514954
O6    O     O_R   0.851560 0.501090 0.698130 -0.515052
O7    O     O_R   0.649530 0.148440 0.801870 -0.514942
O8    O     O_R   0.498910 0.350470 0.698130 -0.515032
O9    O     O_R   0.851560 0.501090 0.801870 -0.514954
O10   O     O_R   0.649530 0.148440 0.698130 -0.515045
O11   O     O_R   0.350470 0.498910 0.301870 -0.514837
O12   O     O_R   0.660060 0.539130 0.694760 -0.449782
O13   O     O_R   0.501090 0.851560 0.198130 -0.514972
O14   O     O_R   0.148440 0.649530 0.301870 -0.514887
O15   O     O_R   0.350470 0.498910 0.198130 -0.514950
O16   O     O_R   0.501090 0.851560 0.301870 -0.514854
O17   O     O_R   0.148440 0.649530 0.198130 -0.514936
O18   O     O_3   0.666667 0.333333 0.750000 -0.274834
O19   O     O_3   0.333333 0.666667 0.250000 -0.274917
O20   O     O_3   0.007930 0.312526 0.129119 -0.665381
O21   O     O_3   0.303676 0.990791 0.371088 -0.665382
O22   O     O_3   0.687442 0.695484 0.129106 -0.665409
O23   O     O_R   0.879070 0.339940 0.805240 -0.449471
O24   O     O_3   0.009715 0.313009 0.371163 -0.665354
O25   O     O_3   0.304752 0.992318 0.129161 -0.665360
O26   O     O_3   0.687000 0.696675 0.371153 -0.665411
O27   O     O_3   0.312179 0.006624 0.629328 -0.665339
O28   O     O_3   0.992205 0.304701 0.870864 -0.665326
O29   O     O_3   0.694187 0.687941 0.629396 -0.665349
O30   O     O_3   0.312521 0.007924 0.870879 -0.665315
O31   O     O_3   0.993947 0.305990 0.629419 -0.665336
O32   O     O_3   0.695387 0.687496 0.870865 -0.665334
O33   O     O_R   0.460870 0.120930 0.694760 -0.449740
O34   O     O_R   0.660060 0.539130 0.805240 -0.449456
O35   O     O_R   0.879070 0.339940 0.694760 -0.449818
O36   O     O_R   0.120930 0.460870 0.305240 -0.449165
O37   O     O_R   0.539130 0.660060 0.194760 -0.449520
O38   O     O_R   0.339940 0.879070 0.305240 -0.449300

loop_
_geom_bond_atom_site_label_1
_geom_bond_atom_site_label_2
_ccdc_geom_bond_type
H33   O22   S    
C3    C104  A    
C12   O16   A    
C32   O7    A    
C4    C103  A    
C35   C74   A    
C89   C102  A    
C45   C71   A    
C35   H5    S    
C45   H2    S    
C91   C104  A    
H40   O29   S    
C58   C87   S    
C15   C94   A    
C88   C101  A    
C5    H24   S    
C29   H17   S    
Cr1   O8    S    
C44   C64   A    
C106  H18   S    
C21   O6    A    
H32   O21   S    
C46   C62   A    
C18   C24   A    
C84   C97   A    
C44   H3    S    
C76   O11   A    
C28   C68   A    
C8    C99   A    
Cr5   O3    S    
C7    H26   S    
C43   O12   A    
C87   O4    A    
C90   O25   S    
C1    O5    A    
C61   C80   A    
C32   O1    A    
C101  C106  A    
C33   C36   A    
C30   C38   A    
Cr3   O10   S    
C59   C89   A    
C6    H25   S    
C21   C64   S    
Cr1   O5    S    
C33   C72   A    
C37   H9    S    
Cr2   O6    S    
Cr5   O19   S    
C6    C94   A    
C40   C67   A    
C6    C107  A    
C49   C75   A    
C44   C70   A    
C8    H27   S    
C51   C57   A    
C18   C97   A    
C10   C96   A    
C52   C79   A    
C52   H23   S    
C11   H30   S    
C14   C93   A    
C29   C69   A    
C4    H22   S    
Cr2   O9    S    
C31   C71   A    
Cr5   O16   S    
C28   C34   A    
H35   O24   S    
Cr6   O38   S    
C34   H6    S    
C19   C72   A    
H37   O26   S    
C27   H13   S    
C7    C93   A    
C26   C105  A    
Cr4   O36   S    
C30   C70   A    
C43   O8    A    
Cr6   O4    S    
C41   C68   A    
C13   C53   S    
H39   O28   S    
Cr2   O12   S    
C16   C26   A    
C15   C20   A    
Cr4   O2    S    
C62   C85   A    
Cr3   O23   S    
C98   O36   A    
C65   O10   A    
H43   O32   S    
C50   C58   A    
C48   C74   A    
C1    O34   A    
C47   C73   A    
Cr1   O1    S    
C84   O30   S    
C23   C75   A    
H36   O25   S    
C19   C99   A    
C42   H4    S    
C38   C78   A    
C27   C35   A    
C30   H16   S    
C37   C77   A    
H31   O20   S    
C45   C63   A    
C33   H14   S    
C50   H44   S    
C40   C61   A    
C25   C78   A    
Cr3   O7    S    
C39   C79   A    
C83   O31   S    
C19   C23   A    
C64   C83   A    
C108  H20   S    
H38   O27   S    
C85   C99   A    
C36   C75   A    
C66   C82   A    
C41   H46   S    
C98   O14   A    
C60   C81   A    
C24   C77   A    
C88   O20   S    
C20   C100  A    
Cr2   O18   S    
C14   C67   A    
C29   C39   A    
C1    C66   S    
C12   O38   A    
C7    C106  A    
C76   O3    A    
C17   C96   A    
C105  C108  A    
C22   C101  A    
C81   O27   S    
C38   H8    S    
C58   C90   A    
C48   H1    S    
C2    O15   A    
C91   O24   S    
C60   C65   S    
C92   O22   S    
Cr3   O18   S    
C89   O26   S    
C85   O29   S    
C22   C74   A    
C47   H12   S    
C50   C77   A    
C86   C100  A    
C28   H11   S    
C13   O2    A    
C47   C55   A    
C80   O28   S    
C11   C95   A    
C18   C71   A    
C5    C102  A    
C100  C107  A    
C9    C97   A    
C82   C95   A    
C57   C91   A    
C36   H10   S    
C46   C72   A    
C54   O9    A    
C16   C69   A    
C41   C60   A    
C21   O35   A    
C39   H7    S    
C5    C8    A    
C9    H28   S    
C25   C104  A    
Cr4   O19   S    
C54   C61   S    
C48   C53   A    
C32   C63   S    
Cr6   O19   S    
C87   O13   A    
C15   C68   A    
C26   C79   A    
C49   C59   A    
Cr5   O13   S    
C63   C84   A    
C24   C103  A    
C17   C25   A    
C14   C22   A    
C55   C86   A    
H42   O31   S    
C80   C93   A    
C51   C78   A    
C40   H47   S    
C107  H19   S    
C3    C10   A    
C13   O17   A    
Cr3   O35   S    
Cr2   O34   S    
C81   C94   A    
C16   C95   A    
Cr1   O18   S    
C86   O21   S    
C51   H34   S    
C83   C96   A    
C59   C76   S    
Cr6   O14   S    
C20   C73   A    
Cr1   O33   S    
C53   C88   A    
C3    H21   S    
C10   H29   S    
C42   C69   A    
C57   C98   S    
C90   C103  A    
C82   O32   S    
C12   C55   S    
C27   C67   A    
H41   O30   S    
C34   C73   A    
C23   C102  A    
C31   C37   A    
C92   C105  A    
C56   C92   A    
C31   H15   S    
Cr6   O17   S    
C46   H48   S    
C11   C108  A    
C42   C66   A    
C49   H45   S    
C2    C56   S    
Cr5   O37   S    
C4    C9    A    
C17   C70   A    
C54   O23   A    
C52   C56   A    
C43   C62   S    
Cr4   O11   S    
Cr4   O15   S    
C65   O33   A    
C2    O37   A    
