data_str_m12_o9_o24_f0_bcu.sym.44
_audit_creation_date              2012-12-11T17:47:29-0500
_audit_creation_method            fapswitch 2.2
_symmetry_space_group_name_H-M    P1
_symmetry_Int_Tables_number       1
_space_group_crystal_system       triclinic
_cell_length_a                    15.117678
_cell_length_b                    15.069265
_cell_length_c                    15.197188
_cell_angle_alpha                 109.889743
_cell_angle_beta                  108.906111
_cell_angle_gamma                 108.692787
_cell_volume                      2694.87376553

loop_
_atom_site_label
_atom_site_type_symbol
_atom_type_description
_atom_site_fract_x
_atom_site_fract_y
_atom_site_fract_z
_atom_type_partial_charge
C1    C     C_R   0.979947 0.254915 0.067204 -0.116791
C2    C     C_R   0.077266 0.142995 0.162284 -0.260409
C3    C     C_R   0.098602 0.108182 0.769508 -0.219737
C4    C     C_R   0.992186 0.911113 0.313309 -0.217136
C5    C     C_R   0.071591 0.085060 0.841521 -0.158877
C6    C     C_R   0.058653 0.975284 0.288156 -0.145441
C7    C     C_R   0.670102 0.252515 0.100322 -0.218854
C8    C     C_R   0.271687 0.793930 0.865801 -0.345083
C9    C     C_R   0.710033 0.330181 0.205911 -0.217167
C10   C     C_R   0.203086 0.700219 0.765276 -0.180126
C11   C     C_R   0.772229 0.321234 0.290224 0.112354
C12   C     C_R   0.090852 0.802892 0.005642 -0.172303
C13   C     C_R   0.114536 0.694720 0.690224 0.130879
C14   C     C_R   0.774667 0.224198 0.268650 -0.185018
C15   C     C_R   0.100467 0.785126 0.712722 -0.284884
C16   C     C_R   0.312492 0.761331 0.224789 -0.144253
C17   C     C_R   0.700110 0.202129 0.787491 -0.164163
C18   C     C_R   0.734246 0.146342 0.163154 -0.354864
C19   C     C_R   0.172884 0.879809 0.808518 -0.262770
C20   C     C_R   0.690687 0.164988 0.077794 0.578686
C21   C     C_R   0.258555 0.886819 0.887738 0.643848
C22   C     C_R   0.858929 0.425718 0.486994 -0.265842
C23   C     C_R   0.318411 0.791146 0.325434 0.061551
C24   C     C_R   0.026752 0.586421 0.498774 -0.264865
C25   C     C_R   0.944532 0.511505 0.586137 0.072638
C26   C     C_R   0.943728 0.500120 0.400113 0.067005
C27   C     C_R   0.028727 0.593698 0.591623 0.046072
C28   C     C_R   0.856858 0.419088 0.392906 0.043505
C29   C     C_R   0.153173 0.116623 0.941723 0.016378
C30   C     C_R   0.016470 0.014131 0.222527 0.074615
C31   C     C_R   0.282749 0.162136 0.881637 0.615304
C32   C     C_R   0.848262 0.939510 0.223050 0.618890
C33   C     C_R   0.217396 0.048827 0.532330 -0.137181
C34   C     C_R   0.696015 0.145671 0.691162 0.057290
C35   C     C_R   0.851476 0.944864 0.539668 -0.149752
C36   C     C_R   0.296017 0.033580 0.510644 -0.173835
C37   C     C_R   0.760613 0.933662 0.549903 -0.134782
C38   C     C_R   0.315173 0.949376 0.514901 0.141829
C39   C     C_R   0.702147 0.979843 0.510442 0.114306
C40   C     C_R   0.215752 0.410083 0.914435 -0.188244
C41   C     C_R   0.773128 0.590061 0.037491 -0.146478
C42   C     C_R   0.255892 0.882836 0.543528 -0.194284
C43   C     C_R   0.731807 0.032275 0.455857 -0.183195
C44   C     C_R   0.171719 0.892744 0.555990 -0.152346
C45   C     C_R   0.311206 0.499651 0.957397 0.047718
C46   C     C_R   0.825399 0.047744 0.450400 -0.043179
C47   C     C_R   0.154275 0.977195 0.553364 -0.123679
C48   C     C_R   0.885877 0.005373 0.493632 -0.136006
C49   C     C_R   0.506304 0.032420 0.596212 -0.264173
C50   C     C_R   0.510214 0.878088 0.435211 -0.246634
C51   C     C_R   0.603456 0.045592 0.601237 0.074116
C52   C     C_R   0.412974 0.868846 0.428025 0.065988
C53   C     C_R   0.605681 0.967565 0.519150 0.023384
C54   C     C_R   0.411031 0.946106 0.511684 0.017985
C55   C     C_R   0.203890 0.147203 0.789523 -0.320826
C56   C     C_R   0.673980 0.497876 0.968731 0.033980
C57   C     C_R   0.886904 0.891826 0.279315 -0.274916
C58   C     C_R   0.065838 0.046493 0.161303 0.067995
C59   C     C_R   0.127434 0.101797 0.023030 0.067079
C60   C     C_R   0.259121 0.155371 0.961480 -0.248929
C61   C     C_R   0.914806 0.003453 0.198070 -0.348880
C62   C     C_R   0.081193 0.975129 0.085643 0.027414
C63   C     C_R   0.097504 0.166033 0.086588 0.055942
C64   C     C_R   0.003194 0.589231 0.302225 -0.170101
C65   C     C_R   0.940533 0.411170 0.687917 -0.130746
C66   C     C_3   0.462778 0.394555 0.885413 -0.110670
C67   C     C_R   0.956911 0.498452 0.309506 0.068043
C68   C     C_3   0.514784 0.595502 0.020757 -0.152626
C69   C     C_3   0.418409 0.464381 0.853017 -0.184117
C70   C     C_3   0.557943 0.525659 0.052485 -0.169140
C71   C     C_3   0.403577 0.497158 0.952018 0.153495
C72   C     C_3   0.574016 0.494089 0.954284 0.161469
C73   C     C_3   0.445742 0.427191 0.984157 -0.084970
C74   C     C_3   0.531900 0.563330 0.921815 -0.152255
C75   C     C_R   0.306387 0.590593 0.010090 -0.134122
C76   C     C_R   0.685762 0.407729 0.945075 -0.124922
C77   C     C_R   0.925403 0.409435 0.216631 -0.120822
C78   C     C_R   0.954116 0.503821 0.680769 0.045460
C79   C     C_R   0.015973 0.590959 0.782778 -0.115451
C80   C     C_R   0.216734 0.750006 0.310869 -0.128196
C81   C     C_R   0.790647 0.204478 0.696806 -0.143725
C82   C     C_R   0.080731 0.271707 0.989543 -0.119989
C83   C     C_R   0.985053 0.794718 0.078904 -0.131227
C84   C     C_R   0.062107 0.237340 0.057928 0.042526
C85   C     C_R   0.050621 0.861511 0.056754 0.071703
C86   C     C_3   0.370044 0.090050 0.808264 0.122513
C87   C     C_3   0.456650 0.063368 0.853446 -0.204565
C88   C     C_3   0.435126 0.951890 0.779216 -1.000611
C89   C     C_R   0.120241 0.009532 0.025327 -0.210013
C90   C     C_3   0.684223 0.849033 0.076966 0.139084
C91   C     C_3   0.575392 0.844587 0.032865 -0.257193
C92   C     C_3   0.507878 0.772239 0.911027 -1.071263
C93   C     C_3   0.720965 0.040709 0.962815 0.135830
C94   C     C_3   0.729619 0.012419 0.860473 -0.239990
C95   C     C_3   0.779754 0.938880 0.846070 -1.048467
C96   C     C_3   0.413808 0.998554 0.059753 0.159490
C97   C     C_3   0.395479 0.963124 0.138444 -0.301057
C98   C     C_3   0.500957 0.005841 0.236573 -1.020685
H1    H     H_    0.946442 0.238206 0.115608 0.089801
H2    H     H_    0.158992 0.947315 0.821842 0.161769
H3    H     H_    0.795698 0.361832 0.483012 0.131733
H4    H     H_    0.093579 0.648043 0.504443 0.130894
H5    H     H_    0.988935 0.051885 0.823773 0.144241
H6    H     H_    0.136664 0.981800 0.306691 0.137305
H7    H     H_    0.409925 0.375572 0.013755 0.127424
H8    H     H_    0.570627 0.614328 0.893151 0.124885
H9    H     H_    0.321613 0.173417 0.035634 0.172446
H10   H     H_    0.883313 0.035999 0.150317 0.117590
H11   H     H_    0.091061 0.986080 0.566681 0.113604
H12   H     H_    0.155998 0.833112 0.990766 0.120051
H13   H     H_    0.959220 0.019364 0.490855 0.117060
H14   H     H_    0.204013 0.114817 0.530870 0.119770
H15   H     H_    0.896952 0.909336 0.570139 0.115180
H16   H     H_    0.344331 0.089319 0.494034 0.117831
H17   H     H_    0.735743 0.889164 0.588061 0.110228
H18   H     H_    0.272173 0.820273 0.551711 0.121197
H19   H     H_    0.685896 0.066366 0.423239 0.130651
H20   H     H_    0.121524 0.836530 0.569990 0.127701
H21   H     H_    0.851390 0.093029 0.413321 0.116648
H22   H     H_    0.132708 0.957587 0.967779 0.159965
H23   H     H_    0.634204 0.268017 0.037241 0.145727
H24   H     H_    0.058682 0.194261 0.214641 0.133282
H25   H     H_    0.358195 0.439591 0.771789 0.118284
H26   H     H_    0.617497 0.550702 0.134197 0.118498
H27   H     H_    0.444275 0.313454 0.828197 0.130729
H28   H     H_    0.533985 0.674915 0.081411 0.125566
H29   H     H_    0.024278 0.670821 0.355210 0.103787
H30   H     H_    0.898729 0.329137 0.622916 0.096509
H31   H     H_    0.363024 0.673467 0.041042 0.085804
H32   H     H_    0.624194 0.324279 0.899886 0.093774
H33   H     H_    0.885130 0.327008 0.195178 0.118706
H34   H     H_    0.330848 0.790709 0.925719 0.145846
H35   H     H_    0.034755 0.673468 0.807051 0.132442
H36   H     H_    0.190138 0.746656 0.366664 0.115742
H37   H     H_    0.821495 0.182326 0.643562 0.115956
H38   H     H_    0.148305 0.284469 0.977158 0.133465
H39   H     H_    0.935756 0.808715 0.112593 0.121951
H40   H     H_    0.224284 0.163654 0.732825 0.139619
H41   H     H_    0.834808 0.838347 0.294998 0.151979
H42   H     H_    0.038877 0.097683 0.699105 0.156824
H43   H     H_    0.018897 0.868723 0.350980 0.165039
H44   H     H_    0.378810 0.112083 0.747713 0.117949
H45   H     H_    0.705667 0.403926 0.221425 0.138770
H46   H     H_    0.291802 0.016093 0.767491 0.141191
H47   H     H_    0.531277 0.125095 0.868378 0.202633
H48   H     H_    0.465372 0.068117 0.930275 0.224148
H49   H     H_    0.353619 0.888917 0.750481 0.269838
H50   H     H_    0.493224 0.932295 0.822810 0.282333
H51   H     H_    0.445985 0.950808 0.710631 0.270202
H52   H     H_    0.674700 0.768470 0.060642 0.113114
H53   H     H_    0.724780 0.874665 0.033765 0.079213
H54   H     H_    0.530467 0.817664 0.071945 0.189268
H55   H     H_    0.589110 0.927093 0.053382 0.189228
H56   H     H_    0.213258 0.629467 0.749607 0.143509
H57   H     H_    0.449457 0.691404 0.889945 0.282289
H58   H     H_    0.557900 0.764020 0.872259 0.265213
H59   H     H_    0.461984 0.807359 0.876894 0.275669
H60   H     H_    0.669080 0.965262 0.955841 0.135536
H61   H     H_    0.802458 0.079597 0.030170 0.095657
H62   H     H_    0.649115 0.971581 0.789950 0.206641
H63   H     H_    0.780379 0.087285 0.864760 0.215244
H64   H     H_    0.729690 0.862116 0.839611 0.267687
H65   H     H_    0.861288 0.979242 0.914953 0.277191
H66   H     H_    0.786013 0.920271 0.771859 0.266207
H67   H     H_    0.820128 0.214827 0.333179 0.137541
H68   H     H_    0.470310 0.086629 0.105670 0.153525
H69   H     H_    0.453497 0.961387 0.022016 0.087838
H70   H     H_    0.346384 0.994681 0.165471 0.222017
H71   H     H_    0.351234 0.873812 0.098276 0.178054
H72   H     H_    0.550760 0.973150 0.213061 0.279353
H73   H     H_    0.484814 0.981273 0.293168 0.272670
H74   H     H_    0.546058 0.095342 0.278481 0.272190
H75   H     H_    0.377607 0.781356 0.207232 0.109795
H76   H     H_    0.647078 0.172676 0.815857 0.127082
H77   H     H_    0.502895 0.093600 0.656371 0.130540
H78   H     H_    0.031236 0.781450 0.656800 0.145642
H79   H     H_    0.511706 0.819104 0.371093 0.137196
H80   H     H_    0.190431 0.328706 0.857865 0.130314
H81   H     H_    0.788783 0.672218 0.077065 0.094271
H82   H     H_    0.747445 0.078247 0.151147 0.160352
N1    N     N_R   0.947560 0.293820 0.002910 -0.042614
N2    N     N_R   0.789450 0.443190 0.997090 -0.038104
N3    N     N_R   0.945970 0.443180 0.152110 -0.040009
N4    N     N_R   0.054030 0.556820 0.847890 -0.044165
N5    N     N_R   0.151530 0.706170 0.208880 -0.041012
N6    N     N_R   0.848470 0.293830 0.791120 -0.040152
N7    N     N_R   0.004980 0.293810 0.946140 -0.047433
N8    N     N_R   0.995020 0.706190 0.053860 -0.039349
N9    N     N_R   0.052440 0.706180 0.997090 -0.041943
N10   N     N_R   0.208960 0.706170 0.152110 -0.041044
N11   N     N_R   0.791040 0.293830 0.847890 -0.036100
N12   N     N_R   0.154330 0.443160 0.946140 -0.038352
N13   N     N_R   0.845670 0.556840 0.053860 -0.038871
N14   N     N_R   0.002190 0.556820 0.208880 -0.040080
N15   N     N_R   0.997810 0.443180 0.791120 -0.041459
N16   N     N_R   0.210550 0.556810 0.002910 -0.035474
Ni1   Ni    Ni4+2 0.869690 0.369690 0.000000 0.232510
Ni2   Ni    Ni4+2 0.130310 0.630310 0.000000 0.205967
Ni3   Ni    Ni4+2 0.001390 0.369680 0.869810 0.212247
Ni4   Ni    Ni4+2 0.998610 0.630320 0.130190 0.213814
O1    O     O_3   0.382034 0.179095 0.893086 -0.693008
O2    O     O_3   0.743982 0.919947 0.188826 -0.678084
O3    O     O_3   0.674520 0.108707 0.974531 -0.694560
O4    O     O_3   0.317853 0.983331 0.985049 -0.700874

loop_
_geom_bond_atom_site_label_1
_geom_bond_atom_site_label_2
_ccdc_geom_bond_type
C16   H75   S    
C58   C62   A    
C87   C88   S    
C5    H5    S    
C93   C94   S    
C56   C76   A    
C87   H48   S    
C45   C71   S    
C88   H51   S    
C14   C18   A    
C67   C77   A    
C24   C27   A    
C83   H39   S    
C90   H52   S    
C36   H16   S    
C1    H1    S    
C12   H12   S    
C97   C98   S    
C9    H45   S    
C97   H71   S    
N5    N10   A    
C17   N11   A    
C1    C84   A    
C15   C19   A    
C12   N9    A    
C35   H15   S    
N10   Ni2   S    
C34   C51   S    
N3    Ni1   S    
C22   H3    S    
C15   H78   S    
C26   C67   S    
N12   N16   A    
C19   C21   A    
C24   C26   A    
C32   C61   A    
C91   H55   S    
C40   N12   A    
C59   C89   A    
C91   H54   S    
C11   C14   A    
C66   C69   S    
C69   H25   S    
C68   C74   S    
C49   C54   A    
C62   C89   A    
C33   C36   A    
C80   H36   S    
C79   N4    A    
C57   H41   S    
C93   H61   S    
C77   H33   S    
N12   Ni3   S    
N6    N11   A    
C69   C71   S    
C61   H10   S    
C41   N13   A    
C76   H32   S    
C66   C72   S    
C29   C59   S    
C49   C51   A    
C22   C25   A    
C64   N14   A    
C4    C57   A    
C8    H34   S    
C50   C52   A    
C80   N5    A    
C89   H22   S    
C96   O4    S    
C34   C81   A    
C6    H6    S    
C23   C80   A    
N15   Ni3   S    
C44   C47   A    
C98   H74   S    
C75   N16   A    
C93   O3    S    
N1    Ni1   S    
C22   C28   A    
C82   H38   S    
C21   O4    S    
C10   H56   S    
C93   H60   S    
N2    Ni1   S    
C42   C44   A    
C32   C57   A    
C7    H23   S    
C76   N2    A    
C35   C48   A    
C26   C28   A    
C52   C54   A    
C81   H37   S    
C5    C29   A    
C2    H24   S    
N1    N7    A    
C40   C45   A    
C79   H35   S    
C62   C85   S    
C46   C48   A    
C50   C53   A    
C86   H46   S    
C25   C78   S    
C64   C67   A    
C94   H63   S    
C50   H79   S    
C65   N15   A    
C72   C74   S    
C95   H64   S    
C91   C92   S    
C71   C73   S    
C1    N1    A    
C78   C79   A    
C39   C43   A    
C56   C72   S    
C47   H11   S    
C66   C73   S    
N9    Ni2   S    
N7    Ni3   S    
C92   H59   S    
C51   C53   A    
C31   C60   A    
C65   H30   S    
C41   C56   A    
C96   H68   S    
C95   H65   S    
C74   H8    S    
C24   H4    S    
C73   H7    S    
C38   C54   S    
C29   C60   A    
C44   H20   S    
C64   H29   S    
C96   C97   S    
C70   C73   S    
C8    C21   A    
C88   H50   S    
C96   H69   S    
C69   C74   S    
C92   H58   S    
C33   H14   S    
C14   H67   S    
C9    C11   A    
C86   O1    S    
C55   H40   S    
C60   H9    S    
C16   N10   A    
C43   H19   S    
C40   H80   S    
C98   H73   S    
C12   C85   A    
N16   Ni2   S    
C6    C30   A    
C16   C23   A    
C82   C84   A    
C13   C15   A    
C33   C47   A    
N14   Ni4   S    
N6    Ni3   S    
C4    C6    A    
C17   C34   A    
C90   C91   S    
C97   H70   S    
C68   H28   S    
C81   N6    A    
C49   H77   S    
C17   H76   S    
C86   H44   S    
C42   H18   S    
C7    C9    A    
C2    C63   A    
C94   H62   S    
C65   C78   A    
C87   H47   S    
C83   C85   A    
C86   C87   S    
C59   C63   A    
C41   H81   S    
C8    C10   A    
C13   C27   S    
N11   Ni1   S    
C20   O3    S    
C90   H53   S    
C3    C5    A    
C10   C13   A    
C19   H2    S    
C2    C58   A    
C38   C42   A    
C37   H17   S    
C25   C27   A    
N13   Ni4   S    
C63   C84   S    
C3    C55   A    
C66   H27   S    
C82   N7    A    
C45   C75   A    
C36   C38   A    
N2    N13   A    
C35   C37   A    
C4    H43   S    
C95   H66   S    
C23   C52   S    
C39   C53   S    
C11   C28   S    
C68   C71   S    
C30   C58   S    
C77   N3    A    
C88   H49   S    
C46   H21   S    
N4    N15   A    
C92   H57   S    
C18   C20   A    
N5    Ni4   S    
C32   O2    S    
C94   C95   S    
C83   N8    A    
C43   C46   A    
C31   O1    S    
C18   H82   S    
C98   H72   S    
C70   H26   S    
C48   H13   S    
N4    Ni2   S    
C37   C39   A    
C7    C20   A    
C30   C61   A    
N3    N14   A    
C68   C70   S    
N8    Ni4   S    
N8    N9    A    
C70   C72   S    
C3    H42   S    
C31   C55   A    
C75   H31   S    
C90   O2    S    
