data_str_m9_o10_o29_f0_sra.sym.9
_audit_creation_date              2012-12-11T14:08:48-0500
_audit_creation_method            fapswitch 2.2
_symmetry_space_group_name_H-M    P1
_symmetry_Int_Tables_number       1
_space_group_crystal_system       triclinic
_cell_length_a                    27.938451
_cell_length_b                    7.201382
_cell_length_c                    17.16152
_cell_angle_alpha                 90.073727
_cell_angle_beta                  100.917664
_cell_angle_gamma                 90.021163
_cell_volume                      3390.32164486

loop_
_atom_site_label
_atom_site_type_symbol
_atom_type_description
_atom_site_fract_x
_atom_site_fract_y
_atom_site_fract_z
_atom_type_partial_charge
O1    O     O_R   0.000700 0.436510 0.857920 -0.542747
O2    O     O_R   0.999300 0.563490 0.142080 -0.545619
O3    O     O_R   0.999300 0.936510 0.642080 -0.543108
O4    O     O_R   0.000700 0.063490 0.357920 -0.541962
O5    O     O_R   0.930080 0.766380 0.721890 -0.533860
O6    O     O_R   0.069920 0.233620 0.278110 -0.529555
O7    O     O_R   0.069920 0.266380 0.778110 -0.534116
O8    O     O_R   0.930080 0.733620 0.221890 -0.535944
C1    C     C_R   0.910916 0.597975 0.708075 0.844153
C2    C     C_R   0.089299 0.402324 0.289016 0.851372
C3    C     C_R   0.089087 0.098134 0.792123 0.844397
C4    C     C_R   0.910627 0.902194 0.210783 0.835815
O9    O     O_R   0.996180 0.766230 0.862310 -0.517447
O10   O     O_R   0.003820 0.233770 0.137690 -0.518576
O11   O     O_R   0.003820 0.266230 0.637690 -0.517868
O12   O     O_R   0.996180 0.733770 0.362310 -0.520346
O13   O     O_R   0.065870 0.936460 0.783500 -0.536850
O14   O     O_R   0.934130 0.063540 0.216500 -0.534493
O15   O     O_R   0.934130 0.436460 0.716500 -0.536636
O16   O     O_R   0.065870 0.563540 0.283500 -0.539276
C5    C     C_R   0.998488 0.596572 0.894499 0.807754
C6    C     C_R   0.000967 0.403351 0.105330 0.825853
C7    C     C_R   0.001499 0.096473 0.605525 0.805724
C8    C     C_R   0.998830 0.903503 0.394581 0.819130
O17   O     O_3   0.022790 0.603020 0.723980 -0.383557
O18   O     O_3   0.977210 0.396980 0.276020 -0.385365
O19   O     O_3   0.977210 0.103020 0.776020 -0.382556
O20   O     O_3   0.022790 0.896980 0.223980 -0.385231
V1    V     V_3+5 0.995770 0.877900 0.754830 1.567333
V2    V     V_3+5 0.004230 0.122100 0.245170 1.569095
V3    V     V_3+5 0.004230 0.377900 0.745170 1.566503
V4    V     V_3+5 0.995770 0.622100 0.254830 1.554698
C9    C     C_2   0.001799 0.082655 0.519549 -0.276901
C10   C     C_2   0.998630 0.917346 0.480593 -0.274183
C11   C     C_2   0.998131 0.582691 0.980494 -0.285343
C12   C     C_2   0.001111 0.417224 0.019259 -0.265213
H1    H     H_    0.004476 0.211394 0.487736 0.183635
H2    H     H_    0.995935 0.788617 0.512402 0.182663
H3    H     H_    0.995569 0.711461 0.012475 0.176645
H4    H     H_    0.003669 0.288462 0.987280 0.183650
C13   C     C_R   0.676496 0.810340 0.080441 0.640518
C14   C     C_R   0.316734 0.157113 0.980332 0.633151
C15   C     C_R   0.323805 0.302174 0.412027 0.623656
C16   C     C_R   0.682731 0.657089 0.524445 0.635998
O21   O     O_2   0.702737 0.693381 0.043756 -0.484114
O22   O     O_2   0.289717 0.284935 0.009774 -0.495069
O23   O     O_2   0.299700 0.143465 0.420177 -0.478611
O24   O     O_2   0.709814 0.783378 0.494290 -0.488852
N1    N     N_R   0.700587 0.933407 0.134599 -0.564508
N2    N     N_R   0.295709 0.056703 0.915009 -0.561964
N3    N     N_R   0.298817 0.445056 0.370792 -0.560491
N4    N     N_R   0.703931 0.556370 0.589423 -0.563353
C17   C     C_R   0.676042 0.064435 0.169392 0.663583
C18   C     C_R   0.323153 0.942343 0.877375 0.630983
C19   C     C_R   0.322484 0.598149 0.350096 0.643761
C20   C     C_R   0.676574 0.443328 0.627758 0.631462
C21   C     C_R   0.776792 0.855610 0.226447 -0.145686
C22   C     C_R   0.226540 0.131646 0.806868 -0.141497
C23   C     C_R   0.223139 0.414384 0.271092 -0.127631
C24   C     C_R   0.773798 0.631446 0.696275 -0.144645
C25   C     C_R   0.827882 0.848171 0.246465 -0.086241
C26   C     C_R   0.176370 0.139803 0.775084 -0.085168
C27   C     C_R   0.172156 0.401292 0.249899 -0.083554
C28   C     C_R   0.824078 0.639843 0.726991 -0.088357
C29   C     C_R   0.832265 0.981756 0.116306 -0.085541
C30   C     C_R   0.159823 0.034060 0.903529 -0.091614
C31   C     C_R   0.166960 0.431403 0.390821 -0.091541
C32   C     C_R   0.839499 0.532113 0.598013 -0.089964
C33   C     C_R   0.781041 0.991222 0.099539 -0.140229
C34   C     C_R   0.210288 0.023050 0.932253 -0.154201
C35   C     C_R   0.218108 0.442930 0.409341 -0.143293
C36   C     C_R   0.788933 0.520737 0.570390 -0.148846
C37   C     C_R   0.753251 0.927631 0.153851 0.372954
C38   C     C_R   0.243796 0.071759 0.884714 0.367103
C39   C     C_R   0.246242 0.434881 0.350115 0.379541
C40   C     C_R   0.755945 0.570401 0.618742 0.368426
C41   C     C_R   0.599329 0.958526 0.089399 -0.086616
C42   C     C_R   0.396310 0.031669 0.970642 -0.078856
C43   C     C_R   0.399523 0.476647 0.421911 -0.080297
C44   C     C_R   0.603149 0.534999 0.535940 -0.079033
C45   C     C_R   0.625006 0.811464 0.060272 -0.065614
C46   C     C_R   0.366662 0.132415 0.014588 -0.037374
C47   C     C_R   0.374147 0.320061 0.444475 -0.082122
C48   C     C_R   0.632578 0.634749 0.491400 -0.030227
C49   C     C_R   0.598173 0.676031 0.009542 -0.034325
C50   C     C_R   0.388423 0.206565 0.089910 0.003442
C51   C     C_R   0.400528 0.186032 0.496582 -0.069160
C52   C     C_R   0.610356 0.710696 0.416762 0.005738
C53   C     C_R   0.624381 0.082130 0.147436 -0.044159
C54   C     C_R   0.374734 0.941508 0.899225 -0.043069
C55   C     C_R   0.374203 0.611391 0.369777 -0.072723
C56   C     C_R   0.624964 0.443393 0.606712 -0.041644
C57   C     C_R   0.856498 0.910849 0.190944 -0.085681
C58   C     C_R   0.142243 0.090414 0.823582 -0.085329
C59   C     C_R   0.143250 0.411142 0.310103 -0.080069
C60   C     C_R   0.857685 0.589738 0.677660 -0.084042
H5    H     H_    0.762286 0.045352 0.043045 0.138407
H6    H     H_    0.223899 0.977340 0.992541 0.146296
H7    H     H_    0.236541 0.458188 0.470542 0.131898
H8    H     H_    0.774832 0.474313 0.510304 0.146322
C61   C     C_R   0.476508 0.909997 0.957581 0.051887
C62   C     C_R   0.521740 0.121697 0.090280 0.018569
C63   C     C_R   0.523015 0.414126 0.549509 0.055615
C64   C     C_R   0.477311 0.639465 0.422391 0.020899
C65   C     C_R   0.469657 0.117998 0.067547 0.080713
C66   C     C_R   0.525060 0.868898 0.996267 0.109250
C67   C     C_R   0.529403 0.629637 0.442283 0.082031
C68   C     C_R   0.474252 0.375934 0.510844 0.110486
C69   C     C_R   0.447497 0.020325 0.998401 0.046190
C70   C     C_R   0.548652 0.982602 0.059241 0.032145
C71   C     C_R   0.551873 0.526626 0.509460 0.046632
C72   C     C_R   0.450317 0.497598 0.451491 0.021798
C73   C     C_R   0.456207 0.846278 0.879719 -0.090283
C74   C     C_R   0.547729 0.255769 0.143286 -0.079716
C75   C     C_R   0.543618 0.346655 0.626552 -0.093725
C76   C     C_R   0.451448 0.780930 0.373559 -0.088285
C77   C     C_R   0.405222 0.856645 0.851658 -0.096327
C78   C     C_R   0.597650 0.227191 0.176433 -0.083970
C79   C     C_R   0.594654 0.358008 0.654431 -0.080233
C80   C     C_R   0.400812 0.760429 0.343634 -0.127620
O25   O     O_2   0.300270 0.826857 0.820332 -0.498382
O26   O     O_2   0.702180 0.181732 0.222239 -0.484174
O27   O     O_2   0.699558 0.328293 0.684727 -0.499409
O28   O     O_2   0.295614 0.739048 0.313119 -0.477609
C81   C     C_R   0.549249 0.708965 0.977352 -0.106085
C82   C     C_R   0.439034 0.197311 0.114864 -0.169764
C83   C     C_R   0.449843 0.214629 0.527388 -0.088832
C84   C     C_R   0.559558 0.707235 0.393883 -0.168165
H9    H     H_    0.252758 0.169334 0.770419 0.148563
H10   H     H_    0.754824 0.807209 0.268072 0.169402
H11   H     H_    0.747963 0.669990 0.733306 0.144067
H12   H     H_    0.245426 0.407049 0.225883 0.163422
H13   H     H_    0.529188 0.603105 0.939705 0.111388
H14   H     H_    0.454186 0.244778 0.174263 0.098006
H15   H     H_    0.469423 0.107760 0.564886 0.116058
H16   H     H_    0.543749 0.757673 0.335270 0.101682
C85   C     C_2   0.858110 0.043004 0.052502 0.366466
H17   H     H_    0.838415 0.121041 0.002442 0.073592
O29   O     O_2   0.900638 0.003309 0.053043 -0.534847
C86   C     C_2   0.127515 0.988489 0.960625 0.358892
H18   H     H_    0.142727 0.920146 0.016162 0.072188
O30   O     O_2   0.084442 0.030729 0.948402 -0.536578
C87   C     C_2   0.140626 0.439454 0.458572 0.375913
H19   H     H_    0.161024 0.463541 0.518156 0.074140
O31   O     O_2   0.096602 0.417886 0.449876 -0.537499
C88   C     C_2   0.871239 0.485791 0.540108 0.360996
H20   H     H_    0.855566 0.417248 0.484744 0.068811
O32   O     O_2   0.914343 0.527604 0.551475 -0.535823
C89   C     C_2   0.617779 0.493181 0.990821 0.497516
H21   H     H_    0.603749 0.427145 0.934190 0.069025
O33   O     O_2   0.646909 0.408429 0.039996 -0.511376
C90   C     C_2   0.360689 0.284864 0.148071 0.486369
H22   H     H_    0.376325 0.397414 0.186892 0.040601
O34   O     O_2   0.322205 0.216552 0.157516 -0.490594
C91   C     C_2   0.378820 0.018295 0.525649 0.559830
H23   H     H_    0.396677 0.884841 0.524016 0.012034
O35   O     O_2   0.343382 0.029906 0.557444 -0.453238
C92   C     C_2   0.637686 0.784688 0.357294 0.480602
H24   H     H_    0.622227 0.897000 0.318386 0.053455
O36   O     O_2   0.675567 0.712924 0.346941 -0.501261
C93   C     C_2   0.162203 0.196975 0.690514 0.371106
H25   H     H_    0.189655 0.253071 0.659952 0.070938
O37   O     O_2   0.120723 0.178927 0.653191 -0.540830
C94   C     C_2   0.848822 0.777318 0.327021 0.370638
H26   H     H_    0.825875 0.699838 0.359960 0.078025
O38   O     O_2   0.890776 0.809454 0.359055 -0.544199
C95   C     C_2   0.838918 0.698157 0.811373 0.372926
H27   H     H_    0.811883 0.756127 0.842355 0.078184
O39   O     O_2   0.880483 0.678818 0.848119 -0.540614
C96   C     C_2   0.151785 0.377860 0.163864 0.342444
H28   H     H_    0.176084 0.380073 0.121384 0.093191
O40   O     O_2   0.108433 0.354100 0.138808 -0.548686
C97   C     C_2   0.385492 0.796680 0.768888 0.501810
H29   H     H_    0.393915 0.659768 0.748752 0.051536
O41   O     O_2   0.361316 0.903174 0.721913 -0.468221
C98   C     C_2   0.621266 0.356707 0.239285 0.509790
H30   H     H_    0.624171 0.503046 0.225942 0.042253
O42   O     O_2   0.635691 0.301152 0.306839 -0.496014
C99   C     C_2   0.614627 0.298591 0.737172 0.468970
H31   H     H_    0.606528 0.161320 0.757214 0.055975
O43   O     O_2   0.638623 0.405860 0.784240 -0.500427
C100  C     C_2   0.376944 0.893810 0.282684 0.527878
H32   H     H_    0.378422 0.041727 0.295092 0.014611
O44   O     O_2   0.357191 0.838691 0.217131 -0.487983
C101  C     C_2   0.488315 0.798635 0.822158 0.328657
H33   H     H_    0.477568 0.693526 0.777031 0.093129
O45   O     O_2   0.526579 0.881510 0.823190 -0.529495
C102  C     C_2   0.525530 0.438588 0.157270 0.326271
H34   H     H_    0.534622 0.506825 0.214571 0.028347
O46   O     O_2   0.498003 0.517560 0.103814 -0.526948
C103  C     C_2   0.511779 0.294699 0.683872 0.329280
H35   H     H_    0.522702 0.186938 0.727569 0.094744
O47   O     O_2   0.473585 0.376799 0.684304 -0.524659
C104  C     C_2   0.475150 0.960604 0.359432 0.319269
H36   H     H_    0.464924 0.033024 0.303378 0.029634
O48   O     O_2   0.505487 0.032164 0.411362 -0.526578

loop_
_geom_bond_atom_site_label_1
_geom_bond_atom_site_label_2
_ccdc_geom_bond_type
O17   V3    S    
C104  O48   D    
C22   C26   A    
N1    C17   A    
O1    C5    A    
C50   C82   A    
C25   C94   S    
O13   V1    S    
O3    C7    A    
C11   C12   D    
C14   C46   A    
C44   C48   A    
O4    V2    S    
C31   C87   S    
C51   C83   A    
C93   H25   S    
C34   C38   A    
C74   C102  S    
C95   O39   D    
C97   H29   S    
C42   C54   A    
O7    C3    A    
C85   O29   D    
C66   C81   A    
C41   C53   A    
C32   C60   A    
C68   C72   A    
C43   C72   A    
C63   C71   A    
C94   H26   S    
C56   C79   A    
C86   O30   D    
C67   C84   A    
C18   C54   A    
C28   C95   S    
C17   O26   S    
C89   O33   D    
O16   V4    S    
C73   C101  S    
O4    C8    A    
C25   C57   A    
C101  O45   D    
C26   C93   S    
C91   O35   D    
C96   H28   S    
C22   H9    S    
C61   C69   A    
C87   H19   S    
C27   C59   A    
O1    V3    S    
C15   C47   A    
O19   V1    S    
C62   C65   A    
O2    V4    S    
C14   O22   S    
C21   C37   A    
O3    V1    S    
C100  H32   S    
C19   C55   A    
C64   C76   A    
C49   C81   A    
C75   C103  S    
C1    O15   A    
C102  O46   D    
C2    O16   A    
C7    C9    S    
O2    C6    A    
C31   C35   A    
C33   C37   A    
C63   C68   A    
O14   V2    S    
C52   C92   S    
C43   C55   A    
O8    C4    A    
C30   C58   A    
C76   C104  S    
C16   N4    A    
O11   C7    A    
C104  H36   S    
O15   V3    S    
O12   C8    A    
C31   C59   A    
C41   C70   A    
C79   C99   S    
O10   V2    S    
C24   H11   S    
C13   N1    A    
C93   O37   D    
C88   O32   D    
C97   O41   D    
C23   H12   S    
O7    V3    S    
N4    C20   A    
C103  H35   S    
O8    V4    S    
C20   O27   S    
C21   H10   S    
C12   H4    S    
C86   H18   S    
C28   C60   A    
C54   C77   A    
C95   H27   S    
C64   C72   A    
O18   V4    S    
C27   C96   S    
N4    C40   S    
C46   C50   A    
C35   H7    S    
C24   C40   A    
C8    C10   S    
C76   C80   A    
C102  H34   S    
C44   C56   A    
C11   H3    S    
C103  O47   D    
O5    C1    A    
C63   C75   A    
C62   C74   A    
C50   C90   S    
C42   C46   A    
C1    C60   S    
C41   C45   A    
C32   C36   A    
C13   C45   A    
C9    C10   D    
O9    C5    A    
C36   C40   A    
N2    C18   A    
C53   C78   A    
O11   V3    S    
N2    C38   S    
C74   C78   A    
C14   N2    A    
C73   C77   A    
C65   C82   A    
C3    C58   S    
C98   H30   S    
O6    V2    S    
C18   O25   S    
C90   O34   D    
C75   C79   A    
C26   C58   A    
C17   C53   A    
C92   H24   S    
N1    C37   S    
C4    C57   S    
C62   C70   A    
O9    V1    S    
O5    V1    S    
C23   C39   A    
C32   C88   S    
C22   C38   A    
C9    H1    S    
C88   H20   S    
C66   C70   A    
C81   H13   S    
C61   C66   A    
C87   O31   D    
C65   C69   A    
C19   O28   S    
C3    O13   A    
C77   C97   S    
C10   H2    S    
C67   C71   A    
C48   C52   A    
N3    C39   S    
C16   C48   A    
C47   C51   A    
C36   H8    S    
C21   C25   A    
C5    C11   S    
C51   C91   S    
O12   V4    S    
C49   C89   S    
C6    C12   S    
C85   H17   S    
C23   C27   A    
C24   C28   A    
O10   C6    A    
C94   O38   D    
C29   C85   S    
C52   C84   A    
C89   H21   S    
C35   C39   A    
C92   O36   D    
C15   N3    A    
C101  H33   S    
C30   C34   A    
C96   O40   D    
C2    C59   S    
C29   C33   A    
C44   C71   A    
O20   V2    S    
C29   C57   A    
C80   C100  S    
C42   C69   A    
N3    C19   A    
C68   C83   A    
C61   C73   A    
C83   H15   S    
C100  O44   D    
O6    C2    A    
C78   C98   S    
C99   H31   S    
C43   C47   A    
C16   O24   S    
C20   C56   A    
C30   C86   S    
C90   H22   S    
C82   H14   S    
C84   H16   S    
C4    O14   A    
C91   H23   S    
C13   O21   S    
C55   C80   A    
C15   O23   S    
C64   C67   A    
C45   C49   A    
C34   H6    S    
C98   O42   D    
C99   O43   D    
C33   H5    S    
