data_str_m3_o10_o17_f0_pcu.sym.88
_audit_creation_date              2012-12-10T16:52:10-0500
_audit_creation_method            fapswitch 2.2
_symmetry_space_group_name_H-M    P1
_symmetry_Int_Tables_number       1
_space_group_crystal_system       triclinic
_cell_length_a                    7.756373
_cell_length_b                    8.537004
_cell_length_c                    14.90834
_cell_angle_alpha                 91.125902
_cell_angle_beta                  86.058471
_cell_angle_gamma                 93.774858
_cell_volume                      982.588417675

loop_
_atom_site_label
_atom_site_type_symbol
_atom_type_description
_atom_site_fract_x
_atom_site_fract_y
_atom_site_fract_z
_atom_type_partial_charge
C1    C     C_R   0.545847 0.794758 0.497277 0.971942
C2    C     C_R   0.595817 0.630538 0.812325 -0.075596
C3    C     C_R   0.491025 0.494511 0.232226 -0.096533
C4    C     C_R   0.508975 0.505489 0.767774 -0.096533
C5    C     C_R   0.579078 0.618761 0.186428 -0.289562
C6    C     C_R   0.420922 0.381239 0.813572 -0.289562
C7    C     C_R   0.582383 0.622233 0.093943 0.134007
C8    C     C_R   0.417617 0.377767 0.906056 0.134007
C9    C     C_R   0.497222 0.498351 0.046901 0.047593
C10   C     C_R   0.502778 0.501649 0.953099 0.047593
C11   C     C_R   0.407289 0.371070 0.093552 0.075795
C12   C     C_R   0.454153 0.205242 0.502723 0.971942
C13   C     C_R   0.592711 0.628930 0.906448 0.075795
C14   C     C_R   0.670538 0.747664 0.048145 -0.214512
C15   C     C_R   0.329462 0.252336 0.951855 -0.214512
C16   C     C_R   0.318260 0.235249 0.238914 0.107276
C17   C     C_R   0.409754 0.102583 0.253572 -0.177601
C18   C     C_R   0.325984 0.972398 0.297232 -0.114891
C19   C     C_R   0.151334 0.974618 0.327225 -0.103073
C20   C     C_R   0.059756 0.106589 0.312918 -0.176886
C21   C     C_R   0.142643 0.236457 0.268486 -0.132893
C22   C     C_R   0.681740 0.764751 0.761086 0.107276
C23   C     C_R   0.675873 0.751263 0.955147 -0.211118
C24   C     C_R   0.857358 0.763543 0.731514 -0.132894
C25   C     C_R   0.940244 0.893410 0.687082 -0.176886
C26   C     C_R   0.848666 0.025382 0.672775 -0.103074
C27   C     C_R   0.674016 0.027601 0.702768 -0.114891
C28   C     C_R   0.590246 0.897417 0.746428 -0.177602
C29   C     C_R   0.324127 0.248737 0.044853 -0.211117
C30   C     C_2   0.569833 0.958259 0.494311 -0.380805
C31   C     C_2   0.430167 0.041741 0.505689 -0.380804
C32   C     C_R   0.503184 0.503472 0.672673 0.894541
C33   C     C_R   0.496816 0.496528 0.327327 0.894541
C34   C     C_R   0.404183 0.369462 0.187675 -0.075596
H1    H     H_    0.645104 0.713003 0.223391 0.136810
H2    H     H_    0.986498 0.619306 0.566638 0.196298
H3    H     H_    0.544911 0.099486 0.230299 0.128082
H4    H     H_    0.396564 0.870044 0.308207 0.135962
H5    H     H_    0.087048 0.874100 0.361509 0.141166
H6    H     H_    0.924364 0.107998 0.335876 0.132367
H7    H     H_    0.070145 0.337401 0.256661 0.137454
H8    H     H_    0.929855 0.662599 0.743339 0.137454
H9    H     H_    0.075636 0.892002 0.664124 0.132367
H10   H     H_    0.912952 0.125900 0.638491 0.141167
H11   H     H_    0.603436 0.129956 0.691793 0.135962
H12   H     H_    0.354896 0.286997 0.776609 0.136810
H13   H     H_    0.455089 0.900514 0.769700 0.128082
H14   H     H_    0.735682 0.843065 0.084335 0.147273
H15   H     H_    0.264318 0.156935 0.915665 0.147273
H16   H     H_    0.745690 0.850321 0.922034 0.167196
H17   H     H_    0.254310 0.149679 0.077966 0.167196
H18   H     H_    0.701575 0.009359 0.482909 0.174550
H19   H     H_    0.298425 0.990640 0.517091 0.174550
H20   H     H_    0.013502 0.380693 0.433362 0.196298
N1    N     N_2   0.950330 0.457950 0.475660 -0.184536
N2    N     N_2   0.049670 0.542050 0.524340 -0.184536
O1    O     O_R   0.389250 0.738570 0.505970 -0.623667
O2    O     O_R   0.610750 0.261430 0.494030 -0.623667
O3    O     O_R   0.678390 0.711620 0.490370 -0.626734
O4    O     O_R   0.321610 0.288380 0.509630 -0.626735
O5    O     O_R   0.355420 0.513510 0.639950 -0.621707
O6    O     O_R   0.644580 0.486490 0.360050 -0.621707
O7    O     O_R   0.644560 0.486560 0.624350 -0.626404
O8    O     O_R   0.355440 0.513440 0.375650 -0.626404
Zn1   Zn    Zn3+2 0.306940 0.517990 0.510420 0.928207
Zn2   Zn    Zn3+2 0.693060 0.482010 0.489580 0.928207

loop_
_geom_bond_atom_site_label_1
_geom_bond_atom_site_label_2
_ccdc_geom_bond_type
C14   C23   A    
C2    C22   S    
C2    C4    A    
N1    N2    D    
C8    C10   A    
C28   H13   S    
C16   C21   A    
H2    N2    S    
C1    O1    A    
C14   H14   S    
C7    C14   A    
C24   H8    S    
C9    C10   A    
C19   C20   A    
C3    C5    A    
C12   O2    A    
O8    Zn1   S    
C27   H11   S    
C1    O3    A    
C17   C18   A    
C18   H4    S    
O7    Zn2   S    
C26   H10   S    
C12   C31   S    
C17   H3    S    
C31   H19   S    
C11   C29   A    
C9    C11   A    
C25   H9    S    
C26   C27   A    
C4    C32   S    
C19   H5    S    
C33   O8    A    
C21   H7    S    
C5    H1    S    
C24   C25   A    
C1    C30   S    
C22   C28   A    
C32   O5    A    
C15   C29   A    
C8    C15   A    
C5    C7    A    
C15   H15   S    
O3    Zn2   S    
C30   C31   D    
C20   H6    S    
C22   C24   A    
C16   C17   A    
O6    Zn2   S    
N2    Zn1   S    
C12   O4    A    
O5    Zn1   S    
N1    Zn2   S    
C20   C21   A    
C13   C23   A    
C4    C6    A    
C18   C19   A    
C29   H17   S    
C27   C28   A    
C7    C9    A    
C2    C13   A    
C3    C33   S    
H20   N1    S    
C33   O6    A    
C23   H16   S    
C6    C8    A    
C6    H12   S    
C3    C34   A    
C16   C34   S    
C25   C26   A    
O2    Zn2   S    
C11   C34   A    
C32   O7    A    
O1    Zn1   S    
C30   H18   S    
O4    Zn1   S    
C10   C13   A    
