data_str_m2_o10_o16_f0_pcu.sym.21
_audit_creation_date              2012-10-26T19:58:18-0400
_audit_creation_method            fapswitch 2.2
_symmetry_space_group_name_H-M    P1
_symmetry_Int_Tables_number       1
_space_group_crystal_system       triclinic
_cell_length_a                    7.465452
_cell_length_b                    8.690375
_cell_length_c                    13.437552
_cell_angle_alpha                 94.052549
_cell_angle_beta                  78.519322
_cell_angle_gamma                 102.983384
_cell_volume                      832.203983721

loop_
_atom_site_label
_atom_site_type_symbol
_atom_type_description
_atom_site_fract_x
_atom_site_fract_y
_atom_site_fract_z
_atom_type_partial_charge
C1    C     C_R   0.545236 0.800045 0.502901 0.552411
C2    C     C_R   0.348688 0.409491 0.797380 -0.010455
C3    C     C_2   0.570999 0.967881 0.503714 -0.147688
C4    C     C_R   0.400574 0.466482 0.691349 0.544441
C5    C     C_2   0.429159 0.032074 0.495886 -0.152756
C6    C     C_R   0.454851 0.199926 0.496916 0.545577
C7    C     C_R   0.599430 0.511168 0.306473 0.541444
C8    C     C_R   0.886563 0.590083 0.044835 -0.131350
C9    C     C_R   0.654594 0.519841 0.196131 -0.000982
C10   C     C_R   0.163034 0.340722 0.837074 -0.151676
C11   C     C_R   0.105961 0.312026 0.940342 -0.140027
C12   C     C_R   0.424327 0.419258 0.967888 0.017142
C13   C     C_R   0.232036 0.359007 0.006206 -0.122979
C14   C     C_1   0.743173 0.335528 0.740838 0.218745
C15   C     C_R   0.484296 0.423512 0.861018 0.020199
C16   C     C_R   0.560986 0.471977 0.030687 0.021698
C17   C     C_R   0.750715 0.531249 0.985078 0.030417
C18   C     C_R   0.806551 0.515875 0.880649 -0.153957
C19   C     C_R   0.677817 0.438952 0.822499 -0.000855
C20   C     C_R   0.516564 0.467904 0.136814 -0.128640
C21   C     C_R   0.839194 0.582614 0.149980 -0.142454
Cu1   Cu    Cu3+1 0.321300 0.483160 0.488710 0.963579
Cu2   Cu    Cu3+1 0.678700 0.516840 0.511290 0.975976
H1    H     H_    0.946508 0.625332 0.195005 0.131795
H2    H     H_    0.960678 0.260526 0.970314 0.135800
H3    H     H_    0.708069 0.038944 0.510534 0.152914
H4    H     H_    0.292206 0.960942 0.488783 0.135018
H5    H     H_    0.011414 0.618327 0.579228 0.239339
H6    H     H_    0.988412 0.381390 0.420963 0.237156
H7    H     H_    0.953289 0.547872 0.846239 0.117591
H8    H     H_    0.031140 0.635950 0.009964 0.125164
H9    H     H_    0.375708 0.421712 0.175213 0.121226
H10   H     H_    0.061943 0.310571 0.788032 0.149386
H11   H     H_    0.174838 0.343577 0.085889 0.105106
N1    N     N_2   0.947230 0.542220 0.528320 -0.248108
N2    N     N_2   0.052770 0.457780 0.471680 -0.249274
N3    N     N_1   0.795347 0.251517 0.676376 -0.290672
O1    O     O_R   0.383920 0.714220 0.492660 -0.505018
O2    O     O_R   0.685730 0.742660 0.511730 -0.494961
O3    O     O_R   0.275440 0.478800 0.636790 -0.502846
O4    O     O_R   0.577250 0.507240 0.655860 -0.495192
O5    O     O_R   0.314270 0.257340 0.488270 -0.497369
O6    O     O_R   0.616080 0.285780 0.507340 -0.492588
O7    O     O_R   0.422750 0.492760 0.344140 -0.510407
O8    O     O_R   0.724560 0.521200 0.363210 -0.511867

loop_
_geom_bond_atom_site_label_1
_geom_bond_atom_site_label_2
_ccdc_geom_bond_type
C2    C4    S    
C18   H7    S    
Cu1   N2    S    
C9    C20   A    
C8    C17   A    
Cu2   O4    S    
C12   C15   A    
C16   C20   A    
Cu1   O3    S    
C8    C21   A    
C10   C11   A    
C13   H11   S    
C7    O7    A    
C14   N3    T    
C15   C19   A    
C2    C15   A    
C11   C13   A    
H6    N2    S    
C9    C21   A    
Cu1   O5    S    
C12   C16   A    
C1    O1    A    
Cu2   O8    S    
C7    O8    A    
C17   C18   A    
C10   H10   S    
Cu2   N1    S    
C6    O6    A    
C6    O5    A    
C5    C6    S    
Cu2   O2    S    
C4    O4    A    
C1    O2    A    
Cu1   O1    S    
C4    O3    A    
Cu2   O6    S    
C12   C13   A    
C18   C19   A    
C20   H9    S    
C21   H1    S    
C7    C9    S    
C11   H2    S    
Cu1   Cu2   S    
C3    C5    D    
C5    H4    S    
C8    H8    S    
C14   C19   S    
C3    H3    S    
Cu1   O7    S    
N1    N2    D    
H5    N1    S    
C16   C17   A    
C1    C3    S    
C2    C10   A    
