data_str_m3_o22_o29_f0_pcu.sym.121
_audit_creation_date              2012-12-10T19:16:15-0500
_audit_creation_method            fapswitch 2.2
_symmetry_space_group_name_H-M    P1
_symmetry_Int_Tables_number       1
_space_group_crystal_system       triclinic
_cell_length_a                    10.640864
_cell_length_b                    9.794207
_cell_length_c                    27.131278
_cell_angle_alpha                 91.009097
_cell_angle_beta                  95.219449
_cell_angle_gamma                 89.975112
_cell_volume                      2815.42687447

loop_
_atom_site_label
_atom_site_type_symbol
_atom_type_description
_atom_site_fract_x
_atom_site_fract_y
_atom_site_fract_z
_atom_type_partial_charge
C1    C     C_R   0.258036 0.500087 0.501835 0.968206
C2    C     C_R   0.542098 0.599563 0.274498 -0.082370
C3    C     C_R   0.595052 0.480598 0.255966 0.286989
C4    C     C_R   0.643023 0.459688 0.104319 -0.059935
C5    C     C_R   0.546018 0.385291 0.123324 -0.084827
C6    C     C_R   0.459855 0.311866 0.091083 -0.182969
C7    C     C_R   0.728851 0.535322 0.136630 -0.014492
C8    C     C_R   0.535422 0.493225 0.354081 -0.108996
C9    C     C_R   0.543045 0.502291 0.647006 -0.240255
C10   C     C_R   0.608022 0.354693 0.972178 -0.000497
C11   C     C_R   0.738780 0.561963 0.981456 -0.064336
C12   C     C_R   0.508093 0.498610 0.406010 0.953456
C13   C     C_R   0.679224 0.456359 0.951171 0.057772
C14   C     C_R   0.578276 0.234901 0.944719 -0.128174
C15   C     C_R   0.591104 0.225985 0.894067 0.466573
C16   C     C_R   0.635623 0.342375 0.870037 -0.168924
C17   C     C_R   0.686375 0.454128 0.899524 -0.088557
C18   C     C_R   0.739623 0.566354 0.877306 -0.103308
C19   C     C_R   0.730341 0.573070 0.825692 0.639489
C20   C     C_R   0.627145 0.356174 0.818150 0.637188
C21   C     C_R   0.521687 0.557281 0.732799 -0.199876
C22   C     C_R   0.473359 0.563238 0.683298 0.445088
C23   C     C_R   0.742421 0.500359 0.502096 0.802568
C24   C     C_R   0.660452 0.441644 0.660622 -0.350046
C25   C     C_R   0.708557 0.436954 0.710030 0.517215
C26   C     C_R   0.637154 0.493258 0.746308 0.068451
C27   C     C_R   0.575912 0.372242 0.021217 -0.056370
C28   C     C_R   0.653953 0.459165 0.052936 0.050851
C29   C     C_R   0.743261 0.545794 0.033490 0.104269
C30   C     C_R   0.470279 0.308147 0.040148 0.351068
C31   C     C_R   0.828775 0.603753 0.117574 -0.117717
C32   C     C_R   0.787667 0.677677 0.958009 0.401687
C33   C     C_R   0.790777 0.675233 0.906604 -0.153083
C34   C     C_R   0.502154 0.501077 0.594359 0.958940
C35   C     C_R   0.836983 0.606556 0.066687 -0.079454
C36   C     C_3   0.073204 0.648046 0.510973 -0.367125
C37   C     C_3   0.082433 0.411733 0.545933 -0.394275
C38   C     C_3   0.930642 0.648686 0.511701 -0.395251
C39   C     C_3   0.937694 0.410284 0.545478 -0.364403
C40   C     C_3   0.058702 0.440292 0.453481 -0.321622
C41   C     C_3   0.121217 0.500238 0.503019 0.085476
C42   C     C_3   0.878664 0.501233 0.503154 0.163057
C43   C     C_3   0.915059 0.446050 0.452766 -0.431601
C44   C     C_3   0.376047 0.082494 0.473934 0.315972
C45   C     C_3   0.372900 0.917191 0.477426 0.295771
C46   C     C_3   0.605097 0.078911 0.473170 -0.261815
C47   C     C_3   0.597397 0.918218 0.469156 -0.278915
C48   C     C_3   0.514371 0.082909 0.549867 -0.353385
C49   C     C_3   0.523482 0.921919 0.549652 -0.336676
C50   C     C_R   0.533253 0.392316 0.174177 0.554489
C51   C     C_R   0.712915 0.538986 0.187327 0.524889
C52   C     C_R   0.621157 0.369268 0.286664 -0.077039
C53   C     C_R   0.592320 0.375833 0.335556 -0.154801
C54   C     C_R   0.513010 0.606078 0.323500 -0.202709
H1    H     H_    0.472460 0.698392 0.337225 0.221350
H2    H     H_    0.662948 0.277503 0.272456 0.153591
H3    H     H_    0.900445 0.656014 0.141812 0.201470
H4    H     H_    0.714178 0.396893 0.632356 0.198595
H5    H     H_    0.827508 0.763336 0.889029 0.248749
H6    H     H_    0.918900 0.653544 0.053735 0.207065
H7    H     H_    0.098325 0.713971 0.480643 0.245625
H8    H     H_    0.117187 0.305166 0.542159 0.181745
H9    H     H_    0.117562 0.692574 0.546378 0.216145
H10   H     H_    0.124918 0.453735 0.581912 0.238488
H11   H     H_    0.905247 0.690512 0.547927 0.188093
H12   H     H_    0.909889 0.448729 0.581763 0.205864
H13   H     H_    0.521729 0.685863 0.250680 0.162315
H14   H     H_    0.889493 0.717510 0.482205 0.190675
H15   H     H_    0.903071 0.303287 0.540300 0.186074
H16   H     H_    0.088889 0.497214 0.421513 0.204949
H17   H     H_    0.086172 0.331481 0.449392 0.230441
H18   H     H_    0.299665 0.119328 0.496229 0.043625
H19   H     H_    0.304350 0.894986 0.504950 0.050462
H20   H     H_    0.608780 0.123559 0.436219 0.202396
H21   H     H_    0.577667 0.886214 0.429725 0.208282
H22   H     H_    0.600354 0.126904 0.570624 0.206357
H23   H     H_    0.618381 0.890350 0.566178 0.193328
H24   H     H_    0.466920 0.596775 0.761631 0.216588
H25   H     H_    0.546322 0.146683 0.963248 0.236995
N1    N     N_R   0.615134 0.469681 0.204763 -0.359999
N2    N     N_R   0.671290 0.471191 0.797690 -0.339978
N3    N     N_3   0.499750 0.138610 0.498940 -0.112377
N4    N     N_3   0.499750 0.861390 0.498940 -0.114933
O1    O     O_R   0.314910 0.616040 0.499990 -0.560739
O2    O     O_R   0.314910 0.383960 0.499990 -0.591586
O3    O     O_R   0.500140 0.616020 0.428740 -0.556684
O4    O     O_R   0.500140 0.383980 0.428740 -0.541242
O5    O     O_R   0.685320 0.616040 0.499970 -0.646989
O6    O     O_R   0.685320 0.383960 0.499970 -0.648926
O7    O     O_R   0.500090 0.616050 0.571230 -0.594319
O8    O     O_R   0.500090 0.383950 0.571230 -0.636814
O9    O     O_2   0.438603 0.324283 0.192932 -0.526053
O10   O     O_2   0.569436 0.260362 0.787922 -0.433098
O11   O     O_2   0.793591 0.611537 0.218899 -0.538341
O12   O     O_2   0.775454 0.682718 0.803490 -0.470875
Zn1   Zn    Zn3+2 0.500150 0.654960 0.499980 0.999486
Zn2   Zn    Zn3+2 0.500150 0.345040 0.499980 0.978925
S1    S     S_3+6 0.818653 0.839786 0.987635 0.042767
O13   O     O_2   0.956188 0.850346 0.005638 -0.274864
O14   O     O_2   0.788320 0.951751 0.951278 -0.242253
O15   O     O_3   0.729777 0.862462 0.035331 -0.542961
H26   H     H_    0.752629 0.954484 0.049010 0.386188
S2    S     S_3+6 0.855142 0.356617 0.725791 0.082043
O16   O     O_2   0.936222 0.447547 0.760741 -0.227575
O17   O     O_2   0.832873 0.224081 0.750695 -0.214582
O18   O     O_3   0.929787 0.325201 0.674731 -0.579617
H27   H     H_    0.012633 0.286756 0.687047 0.411677
H28   H     H_    0.875999 0.513402 0.422452 0.180239
H29   H     H_    0.875114 0.342000 0.444854 0.180932
S3    S     S_3+6 0.326919 0.156905 0.411573 0.092743
O19   O     O_2   0.430071 0.139100 0.377773 -0.299889
O20   O     O_2   0.209621 0.094233 0.386271 -0.195098
O21   O     O_3   0.284062 0.321157 0.411638 -0.565685
H30   H     H_    0.266589 0.344930 0.376309 0.368037
S4    S     S_3+6 0.294326 0.832034 0.420832 0.061613
O22   O     O_2   0.158887 0.876984 0.418286 -0.301693
O23   O     O_2   0.354279 0.878527 0.376036 -0.258716
O24   O     O_3   0.278570 0.662786 0.413542 -0.558690
H31   H     H_    0.238275 0.648150 0.379472 0.362458
H32   H     H_    0.433579 0.115867 0.570507 0.182340
H33   H     H_    0.454532 0.880552 0.573937 0.220480
H34   H     H_    0.696793 0.108279 0.493653 0.157590
H35   H     H_    0.691084 0.874791 0.481728 0.164726
H36   H     H_    0.380695 0.261147 0.105362 0.212492
S5    S     S_3+6 0.320020 0.631192 0.670146 0.022004
O25   O     O_2   0.306959 0.702299 0.621376 -0.360475
O26   O     O_2   0.226782 0.515773 0.668834 -0.303599
O27   O     O_3   0.288780 0.743083 0.715158 -0.490928
H37   H     H_    0.199177 0.768625 0.707366 0.407982
S6    S     S_3+6 0.550563 0.066827 0.864136 0.142938
O28   O     O_2   0.427694 0.080823 0.832627 -0.178945
O29   O     O_2   0.652659 0.024405 0.832204 -0.200978
O30   O     O_3   0.533559 0.944859 0.905961 -0.499815
H38   H     H_    0.529533 0.857840 0.886702 0.386543
S7    S     S_3+6 0.334133 0.250323 0.002576 0.074310
O31   O     O_2   0.322950 0.319098 0.953283 -0.213810
O32   O     O_2   0.340861 0.098257 0.994580 -0.254334
O33   O     O_3   0.203874 0.287298 0.031102 -0.501386
H39   H     H_    0.185336 0.204082 0.049381 0.377164
H40   H     H_    0.616495 0.289796 0.359020 0.178243

loop_
_geom_bond_atom_site_label_1
_geom_bond_atom_site_label_2
_ccdc_geom_bond_type
C10   C27   A    
S7    O33   S    
C21   C26   A    
O5    Zn1   S    
O15   H26   S    
C40   H17   S    
C53   H40   S    
C48   H22   S    
C6    H36   S    
C20   O10   S    
O27   H37   S    
C37   H8    S    
S7    O31   D    
C48   H32   S    
C52   C53   A    
C1    O1    A    
C23   C42   S    
C40   H16   S    
C28   C29   A    
C38   C42   S    
C44   N3    S    
C5    C6    A    
C9    C22   A    
O18   H27   S    
C15   C16   A    
C45   H19   S    
C18   C19   A    
O1    Zn1   S    
O24   H31   S    
C20   N2    A    
S2    O16   D    
C34   O8    A    
S6    O28   D    
C40   C43   S    
C32   S1    S    
C16   C17   A    
S4    O23   D    
C21   H24   S    
S5    O27   S    
C23   O6    A    
C47   N4    S    
C36   H9    S    
C16   C20   A    
S5    O25   D    
C33   H5    S    
C46   N3    S    
C21   C22   A    
C27   C30   A    
C36   C41   S    
C45   N4    S    
C4    C7    A    
C3    N1    S    
C4    C28   A    
C39   C42   S    
C1    O2    A    
C7    C31   A    
C24   C25   A    
C2    H13   S    
C10   C14   A    
C8    C54   A    
C25   S2    S    
C22   S5    S    
C25   C26   A    
S3    O19   D    
O6    Zn2   S    
C35   H6    S    
S6    O29   D    
C34   O7    A    
C45   S4    S    
C47   H35   S    
C48   N3    S    
C38   H11   S    
C8    C12   S    
S4    O24   S    
C49   H33   S    
C17   C18   A    
C39   H15   S    
S2    O17   D    
C14   H25   S    
O8    Zn2   S    
S3    O21   S    
O3    Zn1   S    
C50   O9    S    
C48   C49   S    
C6    C30   A    
C38   H14   S    
C11   C32   A    
C30   S7    S    
C26   N2    S    
S1    O14   D    
C23   O5    A    
C2    C54   A    
O30   H38   S    
C39   H12   S    
C31   C35   A    
C5    C50   A    
S6    O30   S    
C42   C43   S    
C36   H7    S    
C46   H20   S    
C37   H10   S    
C19   O12   S    
C44   C45   S    
O21   H30   S    
C1    C41   S    
C54   H1    S    
S7    O32   D    
C46   C47   S    
C40   C41   S    
C12   O4    A    
C4    C5    A    
C10   C13   A    
C50   N1    A    
C8    C53   A    
C3    C52   A    
C9    C24   A    
O7    Zn1   S    
C12   O3    A    
S1    O15   S    
C29   C35   A    
C13   C17   A    
C32   C33   A    
C49   N4    S    
C36   C38   S    
C2    C3    A    
C7    C51   A    
C37   C39   S    
C11   C13   A    
C31   H3    S    
S4    O22   D    
C9    C34   S    
C15   S6    S    
N4    Zn1   S    
C51   N1    A    
N3    Zn2   S    
C49   H23   S    
C44   H18   S    
S2    O18   S    
C43   H28   S    
C37   C41   S    
C18   C33   A    
S3    O20   D    
O2    Zn2   S    
O33   H39   S    
C51   O11   S    
C47   H21   S    
C11   C29   A    
C24   H4    S    
S1    O13   D    
C27   C28   A    
S5    O26   D    
C14   C15   A    
C46   H34   S    
C43   H29   S    
C19   N2    A    
C52   H2    S    
O4    Zn2   S    
C44   S3    S    
