data_str_m4_o1_o1_f0_acs.sym.56
_audit_creation_date              2012-12-11T14:49:48-0500
_audit_creation_method            fapswitch 2.2
_symmetry_space_group_name_H-M    P1
_symmetry_Int_Tables_number       1
_space_group_crystal_system       monoclinic
_cell_length_a                    10.914316
_cell_length_b                    10.914317
_cell_length_c                    18.946405
_cell_angle_alpha                 90.0
_cell_angle_beta                  90.0
_cell_angle_gamma                 120.000181
_cell_volume                      1954.56331513

loop_
_atom_site_label
_atom_site_type_symbol
_atom_type_description
_atom_site_fract_x
_atom_site_fract_y
_atom_site_fract_z
_atom_type_partial_charge
C1    C     C_R   0.530733 0.463770 0.644627 0.591799
C2    C     C_R   0.468408 0.529408 0.353695 0.566939
C3    C     C_R   0.470592 0.938999 0.146304 0.566939
C4    C     C_R   0.061001 0.531592 0.353695 0.566938
C5    C     C_R   0.379568 0.991261 0.538760 0.211900
C6    C     C_R   0.611694 0.620432 0.961240 0.211900
C7    C     C_R   0.008739 0.388307 0.538760 0.211900
C8    C     C_R   0.379568 0.991262 0.961240 0.211900
C9    C     C_R   0.611694 0.620432 0.538760 0.211900
C10   C     C_R   0.008739 0.388307 0.961240 0.211900
C11   C     C_R   0.028887 0.394620 0.035136 0.220507
C12   C     C_R   0.933037 0.469267 0.855373 0.591798
C13   C     C_R   0.605380 0.634268 0.464864 0.220507
C14   C     C_R   0.365733 0.971113 0.035136 0.220507
C15   C     C_R   0.028888 0.394620 0.464864 0.220507
C16   C     C_R   0.605381 0.634267 0.035136 0.220506
C17   C     C_R   0.365733 0.971113 0.464864 0.220507
C18   C     C_R   0.486157 0.997856 0.424385 0.035293
C19   C     C_R   0.511699 0.513843 0.075615 0.035293
C20   C     C_R   0.002144 0.488301 0.424385 0.035293
C21   C     C_R   0.486157 0.997856 0.075615 0.035293
C22   C     C_R   0.511699 0.513843 0.424385 0.035293
C23   C     C_R   0.536230 0.066962 0.644627 0.591798
C24   C     C_R   0.002144 0.488301 0.075615 0.035293
C25   C     C_R   0.969564 0.480140 0.929698 0.047666
C26   C     C_R   0.519860 0.489423 0.570302 0.047667
C27   C     C_R   0.510576 0.030436 0.929698 0.047666
C28   C     C_R   0.969564 0.480140 0.570302 0.047667
C29   C     C_R   0.519859 0.489424 0.929698 0.047667
C30   C     C_R   0.510577 0.030436 0.570302 0.047667
C31   C     C_R   0.617972 0.051580 0.456453 -0.204763
C32   C     C_R   0.433608 0.382029 0.043547 -0.204763
C33   C     C_R   0.948420 0.566391 0.456453 -0.204763
C34   C     C_R   0.530733 0.463770 0.855373 0.591799
C35   C     C_R   0.617972 0.051580 0.043547 -0.204763
C36   C     C_R   0.433609 0.382028 0.456453 -0.204764
C37   C     C_R   0.948420 0.566391 0.043547 -0.204763
C38   C     C_R   0.936593 0.565777 0.971489 -0.195405
C39   C     C_R   0.434223 0.370816 0.528511 -0.195405
C40   C     C_R   0.629184 0.063406 0.971488 -0.195405
C41   C     C_R   0.936593 0.565776 0.528511 -0.195405
C42   C     C_R   0.434222 0.370817 0.971488 -0.195405
C43   C     C_R   0.629184 0.063407 0.528511 -0.195405
C44   C     C_R   0.933037 0.469267 0.644627 0.591798
C45   C     C_R   0.536230 0.066962 0.855373 0.591797
C46   C     C_R   0.468408 0.529408 0.146304 0.566940
C47   C     C_R   0.470592 0.938999 0.353695 0.566939
C48   C     C_R   0.061001 0.531592 0.146304 0.566939
Cr1   Cr    Cr6+3 0.776430 0.541680 0.750000 1.105597
Cr2   Cr    Cr6+3 0.765250 0.223570 0.750000 1.105596
Cr3   Cr    Cr6+3 0.458320 0.234750 0.750000 1.105597
Cr4   Cr    Cr6+3 0.541680 0.776430 0.250000 1.107394
Cr5   Cr    Cr6+3 0.223570 0.765250 0.250000 1.107394
Cr6   Cr    Cr6+3 0.234750 0.458320 0.250000 1.107394
H1    H     H_    0.206729 0.997695 0.553461 0.322577
H2    H     H_    0.139704 0.299735 0.465377 0.332666
H3    H     H_    0.700268 0.839969 0.034624 0.332665
H4    H     H_    0.160031 0.860297 0.465377 0.332665
H5    H     H_    0.711644 0.075437 0.426209 0.173877
H6    H     H_    0.363791 0.288356 0.073791 0.173877
H7    H     H_    0.924562 0.636206 0.426208 0.173877
H8    H     H_    0.711644 0.075436 0.073791 0.173877
H9    H     H_    0.363793 0.288356 0.426208 0.173877
H10   H     H_    0.924563 0.636207 0.073791 0.173877
H11   H     H_    0.898205 0.631201 0.948649 0.174200
H12   H     H_    0.790967 0.793271 0.946540 0.322577
H13   H     H_    0.368798 0.267003 0.551351 0.174199
H14   H     H_    0.732997 0.101794 0.948649 0.174200
H15   H     H_    0.898204 0.631201 0.551351 0.174200
H16   H     H_    0.368796 0.267004 0.948649 0.174200
H17   H     H_    0.732997 0.101795 0.551351 0.174200
H18   H     H_    0.002306 0.209035 0.553461 0.322577
H19   H     H_    0.206730 0.997695 0.946540 0.322577
H20   H     H_    0.790966 0.793271 0.553461 0.322577
H21   H     H_    0.002305 0.209035 0.946539 0.322577
H22   H     H_    0.139703 0.299734 0.034623 0.332666
H23   H     H_    0.700267 0.839969 0.465377 0.332665
H24   H     H_    0.160031 0.860298 0.034623 0.332665
O1    O     O_R   0.916700 0.566820 0.669930 -0.512437
O2    O     O_R   0.566820 0.916700 0.330070 -0.505748
O3    O     O_R   0.083300 0.650120 0.169930 -0.505747
O4    O     O_R   0.349880 0.433180 0.330070 -0.505747
O5    O     O_R   0.649840 0.534790 0.674920 -0.455119
O6    O     O_R   0.884950 0.350160 0.825080 -0.455118
O7    O     O_R   0.465210 0.115050 0.674920 -0.455119
O8    O     O_R   0.649840 0.534790 0.825080 -0.455119
O9    O     O_R   0.884950 0.350160 0.674920 -0.455119
O10   O     O_R   0.465210 0.115050 0.825080 -0.455119
O11   O     O_R   0.534790 0.649840 0.174920 -0.444344
O12   O     O_R   0.650120 0.083300 0.830070 -0.512437
O13   O     O_R   0.350160 0.884950 0.325080 -0.444344
O14   O     O_R   0.115050 0.465210 0.174920 -0.444344
O15   O     O_R   0.534790 0.649840 0.325080 -0.444344
O16   O     O_R   0.350160 0.884950 0.174920 -0.444344
O17   O     O_R   0.115050 0.465210 0.325080 -0.444344
O18   O     O_3   0.666667 0.333333 0.750000 -0.326754
O19   O     O_3   0.333333 0.666667 0.250000 -0.300470
O20   O     O_3   0.268131 0.972430 0.580930 -0.683316
O21   O     O_3   0.704301 0.731870 0.919070 -0.683316
O22   O     O_3   0.027571 0.295701 0.580930 -0.683316
O23   O     O_R   0.433180 0.349880 0.669930 -0.512438
O24   O     O_3   0.268131 0.972431 0.919070 -0.683316
O25   O     O_3   0.704300 0.731870 0.580930 -0.683316
O26   O     O_3   0.027570 0.295701 0.919070 -0.683316
O27   O     O_3   0.079854 0.316147 0.068126 -0.678248
O28   O     O_3   0.683854 0.763708 0.431874 -0.678248
O29   O     O_3   0.236292 0.920146 0.068126 -0.678247
O30   O     O_3   0.079855 0.316147 0.431874 -0.678248
O31   O     O_3   0.683855 0.763708 0.068126 -0.678248
O32   O     O_3   0.236292 0.920145 0.431874 -0.678247
O33   O     O_R   0.916700 0.566820 0.830070 -0.512437
O34   O     O_R   0.650120 0.083300 0.669930 -0.512437
O35   O     O_R   0.433180 0.349880 0.830070 -0.512438
O36   O     O_R   0.566820 0.916700 0.169930 -0.505748
O37   O     O_R   0.083300 0.650120 0.330070 -0.505747
O38   O     O_R   0.349880 0.433180 0.169930 -0.505748

loop_
_geom_bond_atom_site_label_1
_geom_bond_atom_site_label_2
_ccdc_geom_bond_type
C15   O30   S    
H22   O27   S    
C29   C42   A    
Cr4   O19   S    
C4    O37   A    
C17   O32   S    
Cr3   O7    S    
C19   C46   S    
Cr2   O6    S    
C46   O11   A    
C34   O35   A    
C23   O34   A    
Cr3   O35   S    
C31   C43   A    
C14   C21   A    
H23   O28   S    
C9    C26   A    
C26   C39   A    
C5    C17   A    
C11   C24   A    
C42   H16   S    
C48   O3    A    
C12   O6    A    
Cr5   O3    S    
C34   O8    A    
C31   H5    S    
C9    C13   A    
H2    O30   S    
Cr2   O12   S    
H3    O31   S    
Cr6   O38   S    
Cr5   O13   S    
C43   H17   S    
Cr6   O19   S    
C35   H8    S    
C36   H9    S    
C2    O15   A    
Cr3   O18   S    
Cr1   O33   S    
C27   C45   S    
C7    C15   A    
C18   C47   S    
Cr4   O11   S    
C47   O13   A    
C47   O2    A    
C19   C32   A    
C16   O31   S    
C24   C37   A    
C36   C39   A    
C15   C20   A    
C7    O22   S    
C40   H14   S    
C24   C48   S    
C23   C30   S    
C45   O10   A    
Cr5   O19   S    
C29   C34   S    
C28   C44   S    
C7    C28   A    
Cr1   O1    S    
H24   O29   S    
H12   O21   S    
Cr6   O14   S    
C37   C38   A    
C25   C38   A    
C4    O17   A    
C38   H11   S    
C27   C40   A    
C9    O25   S    
Cr2   O34   S    
C17   C18   A    
Cr4   O15   S    
C11   O27   S    
C45   O12   A    
Cr6   O17   S    
Cr2   O9    S    
C20   C33   A    
C10   C25   A    
C14   O29   S    
C23   O7    A    
H21   O26   S    
C30   C43   A    
C3    C21   S    
C1    O5    A    
C32   H6    S    
C44   O9    A    
C1    O23   A    
Cr6   O4    S    
C37   H10   S    
C41   H15   S    
C5    C30   A    
H18   O22   S    
H19   O24   S    
C8    C14   A    
Cr5   O16   S    
H4    O32   S    
C39   H13   S    
Cr1   O8    S    
C44   O1    A    
C13   O28   S    
C3    O36   A    
Cr3   O10   S    
C21   C35   A    
Cr4   O36   S    
Cr3   O23   S    
C22   C36   A    
C46   O38   A    
C12   C25   S    
C33   C41   A    
C6    O21   S    
Cr1   O5    S    
C10   O26   S    
C35   C40   A    
C2    C22   S    
Cr2   O18   S    
C1    C26   S    
C16   C19   A    
H1    O20   S    
C13   C22   A    
C3    O16   A    
Cr1   O18   S    
C2    O4    A    
C10   C11   A    
C6    C16   A    
C4    C20   S    
C6    C29   A    
C5    O20   S    
C33   H7    S    
C48   O14   A    
C8    C27   A    
C32   C42   A    
C18   C31   A    
Cr4   O2    S    
C8    O24   S    
C12   O33   A    
C28   C41   A    
Cr5   O37   S    
H20   O25   S    
