data_str_m4_o7_o7_f0_acs.sym.95
_audit_creation_date              2012-12-11T16:26:35-0500
_audit_creation_method            fapswitch 2.2
_symmetry_space_group_name_H-M    P1
_symmetry_Int_Tables_number       1
_space_group_crystal_system       triclinic
_cell_length_a                    14.090759
_cell_length_b                    14.09064
_cell_length_c                    31.688336
_cell_angle_alpha                 90.000038
_cell_angle_beta                  89.999734
_cell_angle_gamma                 120.0
_cell_volume                      5448.72855088

loop_
_atom_site_label
_atom_site_type_symbol
_atom_type_description
_atom_site_fract_x
_atom_site_fract_y
_atom_site_fract_z
_atom_type_partial_charge
C1    C     C_R   0.567717 0.444321 0.810325 0.535409
C2    C     C_R   0.444315 0.567727 0.189670 0.535351
C3    C     C_3   0.804763 0.122604 0.639241 0.022405
C4    C     C_3   0.859769 0.062304 0.620087 -0.278882
C5    C     C_3   0.953079 0.137348 0.590645 -0.500027
C6    C     C_3   0.305440 0.378228 0.812621 0.021136
C7    C     C_3   0.231576 0.412906 0.835615 -0.281116
C8    C     C_3   0.188859 0.467431 0.805464 -0.473450
C9    C     C_3   0.877399 0.682157 0.639243 0.022400
C10   C     C_3   0.937692 0.797464 0.620089 -0.278884
C11   C     C_3   0.862644 0.815725 0.590648 -0.500026
C12   C     C_3   0.621518 0.927030 0.812719 0.021069
C13   C     C_R   0.433953 0.879199 0.309876 0.541201
C14   C     C_3   0.586468 0.818519 0.835803 -0.281168
C15   C     C_3   0.532047 0.721189 0.805690 -0.473587
C16   C     C_3   0.317840 0.195243 0.639246 0.022394
C17   C     C_3   0.202532 0.140230 0.620094 -0.278884
C18   C     C_3   0.184267 0.046921 0.590652 -0.500024
C19   C     C_3   0.682157 0.877399 0.360754 0.022383
C20   C     C_3   0.797469 0.937696 0.379903 -0.278891
C21   C     C_3   0.815742 0.862649 0.409341 -0.500027
C22   C     C_3   0.927358 0.621860 0.187436 0.021281
C23   C     C_3   0.818836 0.587864 0.164557 -0.280858
C24   C     C_R   0.123401 0.555681 0.189672 0.535369
C25   C     C_3   0.721639 0.532822 0.194708 -0.473350
C26   C     C_3   0.195235 0.317842 0.360758 0.022401
C27   C     C_3   0.140227 0.202534 0.379910 -0.278887
C28   C     C_3   0.046916 0.184264 0.409352 -0.500028
C29   C     C_3   0.694576 0.072622 0.187433 0.021194
C30   C     C_3   0.768576 0.181221 0.164499 -0.281107
C31   C     C_3   0.811284 0.278363 0.194700 -0.473368
C32   C     C_3   0.122614 0.804765 0.360758 0.022384
C33   C     C_3   0.062321 0.859780 0.379912 -0.278894
C34   C     C_3   0.137371 0.953100 0.409349 -0.500023
C35   C     C_1   0.004111 0.539907 0.018855 -0.024173
C36   C     C_3   0.378536 0.305547 0.187344 0.021136
C37   C     C_3   0.413330 0.231809 0.164323 -0.281029
C38   C     C_3   0.467941 0.189139 0.194452 -0.473517
C39   C     C_1   0.517066 0.998828 0.481041 -0.026570
C40   C     C_1   0.459902 0.464409 0.018808 -0.024189
C41   C     C_1   0.001202 0.518246 0.481045 -0.026570
C42   C     C_1   0.535795 0.995982 0.018868 -0.024184
C43   C     C_1   0.481744 0.482947 0.481046 -0.026569
C44   C     C_1   0.518261 0.001218 0.518952 -0.026568
C45   C     C_R   0.879199 0.433953 0.690123 0.541225
C46   C     C_1   0.995351 0.535525 0.981205 -0.024175
C47   C     C_1   0.482940 0.481751 0.518956 -0.026569
C48   C     C_1   0.540173 0.004739 0.981219 -0.024186
C49   C     C_1   0.998812 0.517051 0.518956 -0.026569
C50   C     C_1   0.464288 0.460023 0.981159 -0.024183
C51   C     C_R   0.931622 0.469534 0.851424 0.005066
C52   C     C_R   0.534254 0.058388 0.650123 0.033746
C53   C     C_R   0.530403 0.462131 0.851401 0.005099
C54   C     C_R   0.941621 0.475869 0.650125 0.033744
C55   C     C_R   0.537914 0.068412 0.851431 0.005081
C56   C     C_R   0.555685 0.123414 0.810331 0.535381
C57   C     C_R   0.524133 0.465751 0.650125 0.033746
C58   C     C_R   0.475871 0.941624 0.349874 0.033743
C59   C     C_R   0.068256 0.537867 0.148601 0.005042
C60   C     C_R   0.465747 0.524132 0.349876 0.033740
C61   C     C_R   0.469635 0.931796 0.148613 0.005062
C62   C     C_R   0.058381 0.534250 0.349875 0.033745
C63   C     C_R   0.462095 0.530470 0.148577 0.005014
C64   C     C_R   0.971406 0.577996 0.866145 0.262525
C65   C     C_R   0.617102 0.044951 0.630661 0.265774
C66   C     C_R   0.421933 0.393442 0.866112 0.262450
C67   C     C_R   0.566047 0.445245 0.690123 0.541213
C68   C     C_R   0.955063 0.572156 0.630664 0.265770
C69   C     C_R   0.606563 0.028600 0.866157 0.262510
C70   C     C_R   0.427843 0.382905 0.630665 0.265770
C71   C     C_R   0.572158 0.955064 0.369334 0.265770
C72   C     C_R   0.028458 0.606551 0.133900 0.262497
C73   C     C_R   0.382898 0.427847 0.369337 0.265771
C74   C     C_R   0.578103 0.971552 0.133903 0.262445
C75   C     C_R   0.044950 0.617100 0.369337 0.265768
C76   C     C_R   0.393489 0.421982 0.133870 0.262562
C77   C     C_R   0.993184 0.600428 0.909254 -0.090628
C78   C     C_R   0.876590 0.432275 0.810330 0.535371
C79   C     C_R   0.608675 0.020543 0.587137 -0.101876
C80   C     C_R   0.399454 0.392853 0.909213 -0.090659
C81   C     C_R   0.979479 0.588140 0.587140 -0.101872
C82   C     C_R   0.607216 0.006843 0.909268 -0.090644
C83   C     C_R   0.411856 0.391336 0.587141 -0.101872
C84   C     C_R   0.588147 0.979485 0.412857 -0.101870
C85   C     C_R   0.006503 0.607108 0.090804 -0.090608
C86   C     C_R   0.391326 0.411863 0.412861 -0.101877
C87   C     C_R   0.600603 0.993521 0.090807 -0.090632
C88   C     C_R   0.020539 0.608669 0.412862 -0.101872
C89   C     C_R   0.554755 0.120803 0.690123 0.541230
C90   C     C_R   0.392860 0.399523 0.090765 -0.090597
C91   C     C_R   0.982732 0.518196 0.936732 -0.010959
C92   C     C_R   0.518235 0.006700 0.564101 -0.003009
C93   C     C_R   0.481640 0.464706 0.936688 -0.010966
C94   C     C_R   0.993328 0.511544 0.564105 -0.003010
C95   C     C_R   0.535470 0.017354 0.936745 -0.010971
C96   C     C_R   0.488451 0.481776 0.564105 -0.003010
C97   C     C_R   0.511557 0.993341 0.435892 -0.003011
C98   C     C_R   0.016797 0.535232 0.063325 -0.010926
C99   C     C_R   0.481768 0.488457 0.435897 -0.003008
C100  C     C_R   0.445244 0.566047 0.309877 0.541229
C101  C     C_R   0.518447 0.983298 0.063339 -0.010958
C102  C     C_R   0.006684 0.518223 0.435896 -0.003011
C103  C     C_R   0.464594 0.481762 0.063279 -0.010952
C104  C     C_R   0.955440 0.414968 0.921327 -0.136294
C105  C     C_R   0.429645 0.003642 0.584854 -0.135871
C106  C     C_R   0.584868 0.540654 0.921287 -0.136326
C107  C     C_R   0.996382 0.426011 0.584858 -0.135872
C108  C     C_R   0.459568 0.044688 0.921338 -0.136314
C109  C     C_R   0.573989 0.570364 0.584856 -0.135871
C110  C     C_R   0.426025 0.996399 0.415140 -0.135871
C111  C     C_R   0.432285 0.876609 0.189676 0.535386
C112  C     C_R   0.044097 0.459293 0.078721 -0.136272
C113  C     C_R   0.570358 0.573990 0.415144 -0.135870
C114  C     C_R   0.415235 0.956060 0.078744 -0.136323
C115  C     C_R   0.003618 0.429630 0.415142 -0.135873
C116  C     C_R   0.540456 0.585030 0.078672 -0.136284
C117  C     C_R   0.929848 0.390552 0.879007 -0.175054
C118  C     C_R   0.436912 0.027416 0.627760 -0.179482
C119  C     C_R   0.609334 0.539414 0.878977 -0.175042
C120  C     C_R   0.972599 0.409500 0.627764 -0.179483
C121  C     C_R   0.460743 0.070253 0.879016 -0.175042
C122  C     C_R   0.120801 0.554754 0.309877 0.541209
C123  C     C_R   0.590502 0.563094 0.627762 -0.179478
C124  C     C_R   0.409509 0.972609 0.372235 -0.179485
C125  C     C_R   0.069864 0.460563 0.121024 -0.175081
C126  C     C_R   0.563090 0.590500 0.372238 -0.179494
C127  C     C_R   0.390744 0.930271 0.121047 -0.175066
C128  C     C_R   0.027397 0.436901 0.372236 -0.179486
C129  C     C_R   0.539254 0.609469 0.120986 -0.175109
C130  C     C_3   0.072880 0.694508 0.812690 0.021129
C131  C     C_3   0.181371 0.768298 0.835727 -0.281060
C132  C     C_3   0.278697 0.810968 0.805620 -0.473519
Cr1   Cr    Cr6+3 0.504240 0.249200 0.750000 1.044338
Cr2   Cr    Cr6+3 0.744960 0.495760 0.750000 1.044368
Cr3   Cr    Cr6+3 0.750800 0.255040 0.750000 1.044385
Cr4   Cr    Cr6+3 0.249200 0.504240 0.250000 1.044367
Cr5   Cr    Cr6+3 0.495760 0.744960 0.250000 1.044303
Cr6   Cr    Cr6+3 0.255040 0.750800 0.250000 1.044297
H1    H     H_    0.982684 0.664246 0.078858 0.123441
H2    H     H_    0.664305 0.982971 0.921223 0.123452
H3    H     H_    0.742189 0.063907 0.213582 0.166016
H4    H     H_    0.624035 0.074394 0.202489 0.113412
H5    H     H_    0.839171 0.178681 0.150070 0.177643
H6    H     H_    0.721744 0.193534 0.138972 0.154686
H7    H     H_    0.741930 0.281720 0.209839 0.140424
H8    H     H_    0.861046 0.355500 0.176872 0.148262
H9    H     H_    0.863468 0.271753 0.219466 0.163081
H10   H     H_    0.170810 0.855442 0.333577 0.172791
H11   H     H_    0.182751 0.803945 0.383539 0.123355
H12   H     H_    0.032814 0.892379 0.354248 0.158108
H13   H     H_    0.984845 0.657920 0.570806 0.104418
H14   H     H_    0.989516 0.799601 0.397933 0.169427
H15   H     H_    0.166034 0.921436 0.435584 0.143864
H16   H     H_    0.092216 0.990958 0.423281 0.142725
H17   H     H_    0.209028 0.016751 0.391673 0.146652
H18   H     H_    0.322334 0.257772 0.213500 0.166044
H19   H     H_    0.450792 0.376153 0.202398 0.113361
H20   H     H_    0.340266 0.161190 0.149867 0.177626
H21   H     H_    0.472422 0.278839 0.138806 0.154701
H22   H     H_    0.540519 0.258509 0.209648 0.140449
H23   H     H_    0.495556 0.139674 0.176555 0.148237
H24   H     H_    0.318501 0.335718 0.921162 0.123462
H25   H     H_    0.409180 0.136677 0.219176 0.163054
H26   H     H_    0.098072 0.405612 0.131404 0.163219
H27   H     H_    0.341286 0.973011 0.357078 0.119264
H28   H     H_    0.594136 0.692643 0.131367 0.163316
H29   H     H_    0.026988 0.368273 0.357078 0.119252
H30   H     H_    0.307600 0.902109 0.131433 0.163280
H31   H     H_    0.631716 0.658723 0.357081 0.119247
H32   H     H_    0.368287 0.027014 0.642917 0.119264
H33   H     H_    0.657926 0.984851 0.429190 0.104415
H34   H     H_    0.901639 0.307402 0.868616 0.163288
H35   H     H_    0.658729 0.631717 0.642918 0.119269
H36   H     H_    0.405829 0.098494 0.868623 0.163338
H37   H     H_    0.972999 0.341276 0.642921 0.119259
H38   H     H_    0.692487 0.594369 0.868593 0.163292
H39   H     H_    0.050715 0.402408 0.057563 0.125528
H40   H     H_    0.369397 0.012507 0.432505 0.117730
H41   H     H_    0.597236 0.648589 0.057508 0.125557
H42   H     H_    0.987509 0.356892 0.432506 0.117731
H43   H     H_    0.351745 0.949501 0.057595 0.125538
H44   H     H_    0.335794 0.318543 0.078820 0.123439
H45   H     H_    0.643092 0.630623 0.432509 0.117729
H46   H     H_    0.356913 0.987546 0.567488 0.117729
H47   H     H_    0.948711 0.351419 0.942484 0.125549
H48   H     H_    0.630623 0.643096 0.567491 0.117730
H49   H     H_    0.402776 0.051466 0.942495 0.125559
H50   H     H_    0.012483 0.369376 0.567494 0.117729
H51   H     H_    0.648384 0.597526 0.942442 0.125545
H52   H     H_    0.064431 0.742270 0.786534 0.166027
H53   H     H_    0.074607 0.623945 0.797633 0.113373
H54   H     H_    0.178873 0.838915 0.850157 0.177646
H55   H     H_    0.015180 0.673086 0.429196 0.104418
H56   H     H_    0.193426 0.721314 0.861263 0.154674
H57   H     H_    0.281998 0.741594 0.790473 0.140480
H58   H     H_    0.355740 0.860542 0.823525 0.148250
H59   H     H_    0.272369 0.863325 0.780856 0.163060
H60   H     H_    0.855441 0.170796 0.666423 0.172791
H61   H     H_    0.803949 0.182747 0.616462 0.123338
H62   H     H_    0.892376 0.032802 0.645750 0.158119
H63   H     H_    0.799585 0.989495 0.602069 0.169431
H64   H     H_    0.921406 0.165998 0.564409 0.143864
H65   H     H_    0.990939 0.092193 0.576715 0.142727
H66   H     H_    0.681543 0.017300 0.078855 0.123456
H67   H     H_    0.016732 0.209013 0.608317 0.146645
H68   H     H_    0.257728 0.321955 0.786474 0.166034
H69   H     H_    0.375992 0.450517 0.797558 0.113425
H70   H     H_    0.160983 0.339796 0.850059 0.177659
H71   H     H_    0.278515 0.472020 0.861137 0.154639
H72   H     H_    0.258208 0.540095 0.790300 0.140477
H73   H     H_    0.139235 0.494895 0.823338 0.148239
H74   H     H_    0.136537 0.408664 0.780715 0.163088
H75   H     H_    0.829204 0.684638 0.666424 0.172798
H76   H     H_    0.817262 0.621198 0.616463 0.123338
H77   H     H_    0.326911 0.342083 0.429194 0.104415
H78   H     H_    0.967188 0.859571 0.645753 0.158119
H79   H     H_    0.010502 0.810094 0.602072 0.169431
H80   H     H_    0.833998 0.755402 0.564412 0.143863
H81   H     H_    0.907795 0.898741 0.576718 0.142726
H82   H     H_    0.790978 0.807709 0.608320 0.146654
H83   H     H_    0.677790 0.935298 0.786615 0.166062
H84   H     H_    0.549384 0.925471 0.797592 0.113475
H85   H     H_    0.659387 0.820932 0.850385 0.177672
H86   H     H_    0.527180 0.806541 0.861227 0.154571
H87   H     H_    0.459677 0.718071 0.790342 0.140512
H88   H     H_    0.673089 0.015179 0.570803 0.104417
H89   H     H_    0.504150 0.644129 0.823636 0.148226
H90   H     H_    0.591019 0.727349 0.781085 0.163126
H91   H     H_    0.315361 0.144566 0.666427 0.172793
H92   H     H_    0.378795 0.196060 0.616465 0.123343
H93   H     H_    0.140428 0.107621 0.645759 0.158111
H94   H     H_    0.189902 0.200412 0.602078 0.169432
H95   H     H_    0.244584 0.078598 0.564414 0.143863
H96   H     H_    0.101248 0.009054 0.576725 0.142728
H97   H     H_    0.192289 0.983271 0.608322 0.146652
H98   H     H_    0.684631 0.829197 0.333574 0.172787
H99   H     H_    0.017018 0.681381 0.921207 0.123458
H100  H     H_    0.621205 0.817267 0.383537 0.123352
H101  H     H_    0.859568 0.967197 0.354237 0.158105
H102  H     H_    0.810098 0.010504 0.397923 0.169428
H103  H     H_    0.755435 0.834009 0.435582 0.143864
H104  H     H_    0.898765 0.907799 0.423263 0.142729
H105  H     H_    0.807711 0.790976 0.391668 0.146646
H106  H     H_    0.936281 0.677977 0.213699 0.165951
H107  H     H_    0.925313 0.549252 0.202342 0.113185
H108  H     H_    0.821485 0.661364 0.150439 0.177592
H109  H     H_    0.806512 0.529284 0.138798 0.154899
H110  H     H_    0.342074 0.326923 0.570809 0.104418
H111  H     H_    0.717986 0.459537 0.209437 0.140376
H112  H     H_    0.644568 0.506231 0.176938 0.148349
H113  H     H_    0.728447 0.590974 0.219791 0.162905
H114  H     H_    0.144557 0.315361 0.333577 0.172787
H115  H     H_    0.196051 0.378797 0.383539 0.123346
H116  H     H_    0.107621 0.140429 0.354245 0.158112
H117  H     H_    0.200411 0.189908 0.397927 0.169431
H118  H     H_    0.078590 0.244579 0.435591 0.143867
H119  H     H_    0.009049 0.101244 0.423278 0.142729
H120  H     H_    0.983269 0.192288 0.391682 0.146641
O1    O     O_R   0.480350 0.140770 0.796330 -0.518826
O2    O     O_R   0.140770 0.480350 0.203670 -0.518838
O3    O     O_R   0.519650 0.660420 0.296330 -0.542839
O4    O     O_R   0.339580 0.859230 0.203670 -0.518792
O5    O     O_R   0.514930 0.348530 0.793250 -0.455053
O6    O     O_R   0.833600 0.485070 0.706750 -0.457902
O7    O     O_R   0.651470 0.166400 0.793250 -0.455041
O8    O     O_R   0.514930 0.348530 0.706750 -0.457917
O9    O     O_R   0.833600 0.485070 0.793250 -0.455023
O10   O     O_R   0.651470 0.166400 0.706750 -0.457886
O11   O     O_R   0.348530 0.514930 0.293250 -0.457889
O12   O     O_R   0.660420 0.519650 0.703670 -0.542842
O13   O     O_R   0.485070 0.833600 0.206750 -0.455069
O14   O     O_R   0.166400 0.651470 0.293250 -0.457935
O15   O     O_R   0.348530 0.514930 0.206750 -0.455023
O16   O     O_R   0.485070 0.833600 0.293250 -0.457931
O17   O     O_R   0.166400 0.651470 0.206750 -0.455018
O18   O     O_3   0.666667 0.333333 0.750000 -0.258518
O19   O     O_3   0.333333 0.666667 0.250000 -0.258493
O20   O     O_3   0.981679 0.661155 0.839863 -0.562380
O21   O     O_3   0.699918 0.047335 0.655233 -0.565088
O22   O     O_3   0.338819 0.320475 0.839834 -0.562392
O23   O     O_R   0.859230 0.339580 0.796330 -0.518841
O24   O     O_3   0.952673 0.652587 0.655235 -0.565108
O25   O     O_3   0.679410 0.018258 0.839877 -0.562402
O26   O     O_3   0.347414 0.300088 0.655237 -0.565126
O27   O     O_3   0.652585 0.952671 0.344762 -0.565150
O28   O     O_3   0.018404 0.679569 0.160182 -0.562364
O29   O     O_3   0.300079 0.347418 0.344765 -0.565109
O30   O     O_3   0.661183 0.981576 0.160172 -0.562412
O31   O     O_3   0.047341 0.699922 0.344767 -0.565163
O32   O     O_3   0.320641 0.338819 0.160159 -0.562407
O33   O     O_R   0.480350 0.140770 0.703670 -0.542837
O34   O     O_R   0.660420 0.519650 0.796330 -0.518831
O35   O     O_R   0.859230 0.339580 0.703670 -0.542837
O36   O     O_R   0.140770 0.480350 0.296330 -0.542842
O37   O     O_R   0.519650 0.660420 0.203670 -0.518784
O38   O     O_R   0.339580 0.859230 0.296330 -0.542845

loop_
_geom_bond_atom_site_label_1
_geom_bond_atom_site_label_2
_ccdc_geom_bond_type
C62   C128  A    
C55   C56   S    
C55   C121  A    
C16   O26   S    
C65   C79   A    
C48   C95   S    
C54   C120  A    
C106  C119  A    
Cr2   O18   S    
C64   C77   A    
C60   C73   A    
C108  H49   S    
C19   C20   S    
Cr3   O23   S    
C111  O13   A    
C91   C104  A    
C75   O31   S    
C84   H33   S    
C6    O22   S    
C19   H98   S    
C22   H106  S    
C72   C85   A    
Cr5   O13   S    
C18   H95   S    
Cr1   O8    S    
C111  O4    A    
Cr6   O14   S    
C131  H54   S    
C130  H53   S    
C36   O32   S    
C104  H47   S    
Cr5   O19   S    
C26   C27   S    
C37   C38   S    
C129  H28   S    
C15   H87   S    
C68   C81   A    
Cr1   O33   S    
C14   H86   S    
C36   C37   S    
Cr2   O34   S    
C87   H66   S    
C33   H12   S    
C30   C31   S    
C119  H38   S    
C70   O26   S    
C58   C71   A    
C39   C97   S    
C54   C68   A    
C63   C76   A    
C110  H40   S    
C109  H48   S    
C71   O27   S    
C19   O27   S    
Cr5   O16   S    
C3    H60   S    
C30   H6    S    
C41   C102  S    
C6    H69   S    
Cr3   O18   S    
C1    C53   S    
C86   H77   S    
C82   H2    S    
C69   C82   A    
C22   O28   S    
C110  C124  A    
C1    O5    A    
C31   H8    S    
C25   H111  S    
C89   O33   A    
C38   H23   S    
C116  C129  A    
C90   H44   S    
C64   O20   S    
C16   C17   S    
C52   C118  A    
C83   H110  S    
C65   O21   S    
C132  H57   S    
C3    H61   S    
C47   C96   S    
C66   O22   S    
Cr4   O11   S    
C102  C115  A    
C88   C102  A    
C57   C70   A    
C35   C98   S    
C9    C10   S    
C85   H1    S    
C79   H88   S    
C76   O32   S    
C115  H42   S    
C44   C92   S    
C122  O14   A    
C59   C72   A    
C21   H105  S    
C31   H9    S    
C32   O31   S    
C23   C25   S    
C69   O25   S    
Cr1   O18   S    
C87   C101  A    
C77   H99   S    
C101  C114  A    
C67   O12   A    
C52   C89   S    
Cr6   O17   S    
C57   C67   S    
C97   C110  A    
C8    H72   S    
Cr4   O15   S    
C2    O37   A    
Cr5   O37   S    
C41   C49   T    
C123  H35   S    
C17   H94   S    
C32   H10   S    
C33   C34   S    
C68   O24   S    
C100  O11   A    
C34   H16   S    
C17   H93   S    
C90   C103  A    
C94   C107  A    
C98   C112  A    
C99   C113  A    
C32   H11   S    
C75   C88   A    
Cr6   O4    S    
C14   H85   S    
C7    C8    S    
C72   O28   S    
Cr6   O38   S    
C95   C108  A    
C19   H100  S    
C5    H64   S    
C67   O8    A    
C56   O7    A    
C18   H97   S    
C109  C123  A    
C45   O6    A    
C113  C126  A    
C8    H73   S    
C9    H75   S    
C34   H17   S    
C107  H50   S    
C33   H14   S    
C114  H43   S    
C115  C128  A    
C1    O34   A    
C15   H89   S    
C31   H7    S    
C37   H20   S    
C130  O20   S    
C74   C87   A    
C78   O23   A    
Cr4   O2    S    
C29   C30   S    
C53   C66   A    
C93   C106  A    
C57   C123  A    
C70   C83   A    
C25   H112  S    
C73   O29   S    
C120  H37   S    
C3    O21   S    
C121  H36   S    
C74   O30   S    
C29   H3    S    
C26   H114  S    
C18   H96   S    
C17   C18   S    
C85   C98   A    
C61   C127  A    
C128  H29   S    
C42   C48   T    
C100  O3    A    
C86   C99   A    
C11   H80   S    
C12   H84   S    
C79   C92   A    
C6    C7    S    
Cr4   O36   S    
C13   O16   A    
C108  C121  A    
C122  O36   A    
C36   H19   S    
C38   H25   S    
C12   C14   S    
C45   C54   S    
C29   O30   S    
C28   H120  S    
Cr6   O19   S    
C13   C58   S    
Cr3   O10   S    
C49   C94   S    
C62   C75   A    
C131  H56   S    
C59   C125  A    
C84   C97   A    
C29   H4    S    
C3    C4    S    
C61   C111  S    
C42   C101  S    
C11   H81   S    
C107  C120  A    
C62   C122  S    
C114  C127  A    
C2    C63   S    
C36   H18   S    
C21   H103  S    
C71   C84   A    
C34   H15   S    
Cr2   O9    S    
Cr1   O5    S    
C24   O2    A    
C77   C91   A    
C13   O38   A    
Cr2   O6    S    
C82   C95   A    
C22   C23   S    
C45   O35   A    
C88   H55   S    
C51   C64   A    
C28   H118  S    
C43   C99   S    
C4    C5    S    
C60   C100  S    
C26   H115  S    
C127  H30   S    
C5    H65   S    
C22   H107  S    
C7    H70   S    
C53   C119  A    
C50   C93   S    
C39   C44   T    
C46   C91   S    
C9    H76   S    
Cr2   O12   S    
C20   H101  S    
C66   C80   A    
C96   C109  A    
C104  C117  A    
C58   C124  A    
C15   H90   S    
C89   O10   A    
C32   C33   S    
C37   H21   S    
C23   H108  S    
C60   C126  A    
C130  C131  S    
Cr3   O35   S    
C51   C78   S    
C38   H22   S    
C26   O29   S    
C126  H31   S    
C20   H102  S    
C16   H91   S    
C78   O9    A    
C2    O15   A    
C7    H71   S    
C81   C94   A    
C25   H113  S    
C117  H34   S    
C10   H78   S    
C4    H63   S    
C113  H45   S    
C27   H117  S    
C55   C69   A    
C24   C59   S    
C40   C50   T    
C83   C96   A    
C16   H92   S    
C132  H59   S    
C51   C117  A    
C9    O24   S    
Cr4   O19   S    
C63   C129  A    
C105  H46   S    
C23   H109  S    
C105  C118  A    
C27   H116  S    
C12   H83   S    
C6    H68   S    
C10   C11   S    
C30   H5    S    
C12   O25   S    
C5    H67   S    
C124  H27   S    
C56   O1    A    
C130  H52   S    
C92   C105  A    
C4    H62   S    
C125  H26   S    
C81   H13   S    
C20   C21   S    
C10   H79   S    
C28   H119  S    
C80   H24   S    
C116  H41   S    
C27   C28   S    
Cr3   O7    S    
C118  H32   S    
C14   C15   S    
C21   H104  S    
C73   C86   A    
C103  C116  A    
C106  H51   S    
C112  C125  A    
C80   C93   A    
C8    H74   S    
C35   C46   T    
C43   C47   T    
C11   H82   S    
Cr1   O1    S    
C132  H58   S    
C52   C65   A    
C131  C132  S    
C61   C74   A    
C76   C90   A    
C112  H39   S    
C40   C103  S    
C24   O17   A    
Cr5   O3    S    
