data_str_m9_o11_o18_f0_sra.sym.190
_audit_creation_date              2012-12-11T14:21:12-0500
_audit_creation_method            fapswitch 2.2
_symmetry_space_group_name_H-M    P1
_symmetry_Int_Tables_number       1
_space_group_crystal_system       triclinic
_cell_length_a                    21.945953
_cell_length_b                    7.205594
_cell_length_c                    14.897494
_cell_angle_alpha                 89.997293
_cell_angle_beta                  106.86488
_cell_angle_gamma                 89.999354
_cell_volume                      2254.47578007

loop_
_atom_site_label
_atom_site_type_symbol
_atom_type_description
_atom_site_fract_x
_atom_site_fract_y
_atom_site_fract_z
_atom_type_partial_charge
O1    O     O_R   0.584770 0.505770 0.002090 -0.541501
O2    O     O_R   0.415230 0.005770 0.997910 -0.541464
O3    O     O_R   0.467060 0.173340 0.861950 -0.540181
O4    O     O_R   0.532940 0.673340 0.138050 -0.540209
C1    C     C_R   0.456094 0.344361 0.825740 0.682664
C2    C     C_R   0.543912 0.844349 0.174258 0.682681
O5    O     O_R   0.587510 0.175890 0.993210 -0.541090
O6    O     O_R   0.412490 0.675890 0.006790 -0.541098
O7    O     O_R   0.536540 0.008150 0.130100 -0.539241
O8    O     O_R   0.463460 0.508150 0.869900 -0.539285
C3    C     C_R   0.612989 0.344906 0.997592 0.739321
C4    C     C_R   0.387012 0.844909 0.002416 0.739340
O9    O     O_3   0.483140 0.340040 0.044760 -0.379559
O10   O     O_3   0.516860 0.840040 0.955240 -0.379575
V1    V     V_3+5 0.503130 0.064190 0.991700 1.398559
V2    V     V_3+5 0.496870 0.564190 0.008300 1.398493
C5    C     C_2   0.214160 0.727630 0.004165 -0.131926
C6    C     C_2   0.785845 0.227629 0.995854 -0.131930
C7    C     C_2   0.180470 0.886798 0.996825 -0.305052
C8    C     C_2   0.819530 0.386800 0.003177 -0.305055
H1    H     H_    0.191059 0.596831 0.010116 0.138849
H2    H     H_    0.808949 0.096830 0.989913 0.138859
H3    H     H_    0.202095 0.019139 0.990174 0.127775
H4    H     H_    0.797901 0.519144 0.009813 0.127777
C9    C     C_2   0.282081 0.714561 0.004073 -0.151258
C10   C     C_2   0.717923 0.214557 0.995941 -0.151284
C11   C     C_2   0.319802 0.861388 0.002700 -0.306475
C12   C     C_2   0.680204 0.361382 0.997329 -0.306425
H5    H     H_    0.301551 0.575587 0.005889 0.138375
H6    H     H_    0.698451 0.075585 0.994106 0.138371
H7    H     H_    0.301654 0.001264 0.001939 0.134313
H8    H     H_    0.698356 0.501257 0.998116 0.134327
C13   C     C_R   0.926001 0.887922 0.724094 -0.025309
C14   C     C_R   0.074004 0.387837 0.275899 -0.025262
C15   C     C_R   0.570798 0.851708 0.276492 -0.047590
C16   C     C_R   0.429210 0.351764 0.723504 -0.047547
C17   C     C_R   0.935412 0.906754 0.567099 -0.164489
C18   C     C_R   0.064570 0.405629 0.432907 -0.164481
C19   C     C_R   0.963713 0.904830 0.663630 -0.175528
C20   C     C_R   0.036274 0.404020 0.336373 -0.175579
C21   C     C_R   0.859801 0.874164 0.688225 -0.209906
C22   C     C_R   0.140213 0.374461 0.311759 -0.209870
C23   C     C_R   0.829523 0.879461 0.590351 0.082213
C24   C     C_R   0.170481 0.379308 0.409641 0.082219
C25   C     C_R   0.868940 0.894856 0.530094 0.139615
C26   C     C_R   0.131050 0.394042 0.469907 0.139615
C27   C     C_R   0.761814 0.871196 0.550499 0.058760
C28   C     C_R   0.238192 0.371183 0.449494 0.058745
C29   C     C_R   0.734855 0.875813 0.450696 0.065645
C30   C     C_R   0.265144 0.375481 0.549302 0.065640
C31   C     C_R   0.776495 0.890058 0.394207 -0.187957
C32   C     C_R   0.223491 0.389083 0.605797 -0.187932
C33   C     C_R   0.841958 0.899585 0.433311 -0.204246
C34   C     C_R   0.158023 0.398364 0.566695 -0.204247
C35   C     C_R   0.720161 0.859743 0.607037 -0.186994
C36   C     C_R   0.279853 0.360073 0.392955 -0.186967
C37   C     C_R   0.654722 0.850429 0.567879 -0.202203
C38   C     C_R   0.345293 0.350851 0.432115 -0.202087
C39   C     C_R   0.627813 0.851232 0.471008 0.117293
C40   C     C_R   0.372198 0.351486 0.528987 0.117305
C41   C     C_R   0.667152 0.865484 0.410821 0.083040
C42   C     C_R   0.332852 0.365405 0.589175 0.083020
C43   C     C_R   0.561477 0.836922 0.434198 -0.195543
C44   C     C_R   0.438539 0.337343 0.565794 -0.195539
C45   C     C_R   0.532349 0.835278 0.337235 0.073276
C46   C     C_R   0.467668 0.335601 0.662759 0.073271
C47   C     C_R   0.636954 0.867326 0.313029 -0.239759
C48   C     C_R   0.363049 0.367210 0.686967 -0.239746
H9    H     H_    0.871862 0.911147 0.387007 0.124028
H10   H     H_    0.128108 0.409388 0.613006 0.124016
H11   H     H_    0.663300 0.877738 0.262500 0.103745
H12   H     H_    0.336701 0.377539 0.737496 0.103743
H13   H     H_    0.624784 0.841857 0.614221 0.125762
H14   H     H_    0.375236 0.342503 0.385773 0.125623
H15   H     H_    0.965530 0.919358 0.521189 0.118147
H16   H     H_    0.034440 0.417686 0.478826 0.118145
H17   H     H_    0.014975 0.916949 0.691235 0.106660
H18   H     H_    0.985002 0.415802 0.308776 0.106650
H19   H     H_    0.833703 0.862007 0.739004 0.093538
H20   H     H_    0.166323 0.362911 0.260969 0.093490
H21   H     H_    0.760294 0.894888 0.318844 0.123572
H22   H     H_    0.239682 0.393475 0.681167 0.123554
H23   H     H_    0.736346 0.857975 0.682451 0.121318
H24   H     H_    0.263672 0.358427 0.317542 0.121269
H25   H     H_    0.532178 0.826229 0.481442 0.112750
H26   H     H_    0.467841 0.326869 0.518545 0.112654
O11   O     O_R   0.036450 0.233070 0.130130 -0.537723
O12   O     O_R   0.963550 0.733070 0.869870 -0.537729
O13   O     O_R   0.912470 0.560570 0.006790 -0.545385
O14   O     O_R   0.087530 0.060570 0.993210 -0.545384
C49   C     C_R   0.886938 0.391941 0.002404 0.731293
C50   C     C_R   0.113062 0.891940 0.997597 0.731299
O15   O     O_R   0.032920 0.562940 0.138050 -0.538671
O16   O     O_R   0.967080 0.062940 0.861950 -0.538670
O17   O     O_R   0.084790 0.730500 0.002090 -0.537087
O18   O     O_R   0.915210 0.230500 0.997910 -0.537085
C51   C     C_R   0.045024 0.394545 0.174492 0.684667
C52   C     C_R   0.954976 0.894557 0.825506 0.684666
O19   O     O_3   0.016820 0.396170 0.955260 -0.378292
O20   O     O_3   0.983180 0.896170 0.044740 -0.378288
V3    V     V_3+5 0.996880 0.672090 0.008300 1.413578
V4    V     V_3+5 0.003120 0.172090 0.991700 1.413582
C53   C     C_3   0.460623 0.817089 0.301195 -0.381084
C54   C     C_3   0.429116 0.007220 0.274783 -0.308650
C55   C     C_3   0.356909 0.994320 0.253868 -0.771571
H27   H     H_    0.337265 0.888565 0.198968 0.241521
H28   H     H_    0.344181 0.956060 0.318407 0.238562
H29   H     H_    0.335043 0.130758 0.228699 0.210530
H30   H     H_    0.447574 0.106652 0.333495 0.194239
H31   H     H_    0.440563 0.061977 0.211872 0.202392
H32   H     H_    0.447032 0.722315 0.239741 0.166525
H33   H     H_    0.442192 0.752802 0.356088 0.181889
C56   C     C_3   0.539398 0.317517 0.698796 -0.381161
C57   C     C_3   0.570869 0.507584 0.725574 -0.308571
C58   C     C_3   0.643078 0.494880 0.746436 -0.771911
H34   H     H_    0.662754 0.388786 0.801149 0.241602
H35   H     H_    0.655798 0.457190 0.681820 0.238571
H36   H     H_    0.664920 0.631229 0.771834 0.210522
H37   H     H_    0.552380 0.607465 0.667071 0.194174
H38   H     H_    0.559436 0.561699 0.788610 0.202521
H39   H     H_    0.552991 0.222269 0.760068 0.166518
H40   H     H_    0.557861 0.253823 0.643795 0.181976

loop_
_geom_bond_atom_site_label_1
_geom_bond_atom_site_label_2
_ccdc_geom_bond_type
C18   C20   A    
C43   C45   A    
C22   H20   S    
C46   C56   S    
O18   V4    S    
C14   C22   A    
O2    C4    A    
C2    O7    A    
O12   V3    S    
C27   C29   A    
C18   H16   S    
O5    C3    A    
C55   H28   S    
C13   C19   A    
C14   C20   A    
C19   H17   S    
C40   C42   A    
C54   H30   S    
C16   C46   A    
C37   C39   A    
C15   C45   A    
C38   C40   A    
C58   H34   S    
C1    C16   S    
C14   C51   S    
C2    C15   S    
C53   H32   S    
C13   C52   S    
C37   H13   S    
O14   V4    S    
C7    C50   S    
C49   O18   A    
C56   H40   S    
C8    H4    S    
C24   C26   A    
C29   C31   A    
C6    C10   S    
C30   C32   A    
O13   C49   A    
C31   H21   S    
C47   H11   S    
C57   H37   S    
C48   H12   S    
C28   C30   A    
C17   H15   S    
C33   H9    S    
O6    V2    S    
C43   H25   S    
C21   C23   A    
C22   C24   A    
C44   H26   S    
C54   C55   S    
C55   H29   S    
C32   C34   A    
C36   H24   S    
C9    H5    S    
C8    C49   S    
C39   C41   A    
C29   C41   A    
C4    C11   S    
C11   H7    S    
C12   H8    S    
O4    C2    A    
O15   V3    S    
C17   C25   A    
C58   H35   S    
C50   O17   A    
C5    H1    S    
C53   H33   S    
C31   C33   A    
C44   C46   A    
O4    V2    S    
C7    H3    S    
O11   V4    S    
C41   C47   A    
O14   C50   A    
C34   H10   S    
C15   C47   A    
O6    C4    A    
C58   H36   S    
C26   C34   A    
O1    V2    S    
C32   H22   S    
O2    V1    S    
C23   C25   A    
C10   H6    S    
C35   C37   A    
C30   C42   A    
C20   H18   S    
C45   C53   S    
C35   H23   S    
O15   C51   A    
O3    V1    S    
C38   H14   S    
C27   C35   A    
C56   C57   S    
C28   C36   A    
O13   V3    S    
C6    H2    S    
C10   C12   D    
O3    C1    A    
C21   H19   S    
C16   C48   A    
C57   C58   S    
C9    C11   D    
C55   H27   S    
C39   C43   A    
C42   C48   A    
C40   C44   A    
C13   C21   A    
O7    V1    S    
C5    C9    S    
C1    O8    A    
C17   C19   A    
O8    V2    S    
C54   H31   S    
C3    C12   S    
O5    V1    S    
O20   V3    S    
C5    C7    D    
C36   C38   A    
C6    C8    D    
O12   C52   A    
C18   C26   A    
C25   C33   A    
O17   V3    S    
O19   V4    S    
C56   H39   S    
O16   V4    S    
O9    V2    S    
C53   C54   S    
O16   C52   A    
O10   V1    S    
O1    C3    A    
C23   C27   A    
C57   H38   S    
C24   C28   A    
O11   C51   A    
