data_str_m9_o16_o26_f0_sra.sym.81
_audit_creation_date              2012-12-11T15:15:47-0500
_audit_creation_method            fapswitch 2.2
_symmetry_space_group_name_H-M    P1
_symmetry_Int_Tables_number       1
_space_group_crystal_system       triclinic
_cell_length_a                    20.673687
_cell_length_b                    22.839343
_cell_length_c                    6.939215
_cell_angle_alpha                 89.990308
_cell_angle_beta                  86.738878
_cell_angle_gamma                 90.000737
_cell_volume                      3271.20705807

loop_
_atom_site_label
_atom_site_type_symbol
_atom_type_description
_atom_site_fract_x
_atom_site_fract_y
_atom_site_fract_z
_atom_type_partial_charge
O1    O     O_R   0.387100 0.552640 0.378490 -0.531280
O2    O     O_R   0.612900 0.052640 0.621510 -0.531580
O3    O     O_R   0.249610 0.559600 0.072250 -0.545525
O4    O     O_R   0.750390 0.059600 0.927750 -0.545394
O5    O     O_R   0.249120 0.447360 0.902040 -0.545916
O6    O     O_R   0.750880 0.947360 0.097960 -0.545941
C1    C     C_R   0.226499 0.572789 0.244629 0.721402
C2    C     C_R   0.773506 0.072784 0.755355 0.721548
O7    O     O_R   0.386610 0.559560 0.048860 -0.538726
O8    O     O_R   0.613390 0.059560 0.951140 -0.538477
O9    O     O_R   0.387100 0.447320 0.878470 -0.538651
O10   O     O_R   0.612900 0.947320 0.121530 -0.538679
C3    C     C_R   0.407361 0.575141 0.214266 0.781481
C4    C     C_R   0.592631 0.075130 0.785694 0.781601
O11   O     O_R   0.249120 0.552680 0.402050 -0.540118
O12   O     O_R   0.750880 0.052680 0.597950 -0.540243
O13   O     O_3   0.318110 0.463180 0.223790 -0.375031
O14   O     O_3   0.681890 0.963180 0.776210 -0.375061
V1    V     V_3+5 0.318110 0.506830 0.948930 1.423466
V2    V     V_3+5 0.681890 0.006830 0.051070 1.423626
O15   O     O_R   0.386610 0.440400 0.548840 -0.540270
O16   O     O_R   0.613390 0.940400 0.451160 -0.540279
C5    C     C_R   0.407740 0.425265 0.714106 0.693841
C6    C     C_R   0.592252 0.925269 0.285940 0.693859
O17   O     O_R   0.249610 0.440440 0.572240 -0.548472
O18   O     O_R   0.750390 0.940440 0.427760 -0.548472
C7    C     C_R   0.226844 0.426870 0.744667 0.683560
C8    C     C_R   0.773155 0.926870 0.255348 0.683576
V3    V     V_3+5 0.318110 0.493170 0.448930 1.424329
V4    V     V_3+5 0.681890 0.993170 0.551070 1.424182
O19   O     O_3   0.318110 0.536820 0.723940 -0.368304
O20   O     O_3   0.681890 0.036820 0.276060 -0.368304
C9    C     C_R   0.171989 0.385355 0.762280 -0.047560
C10   C     C_R   0.828010 0.885355 0.237762 -0.047566
C11   C     C_R   0.142031 0.366149 0.596831 -0.178939
C12   C     C_R   0.857864 0.866023 0.403253 -0.178945
C13   C     C_R   0.089073 0.328310 0.612986 -0.123378
C14   C     C_R   0.910825 0.828190 0.387117 -0.123334
C15   C     C_R   0.065306 0.308313 0.795283 0.169384
C16   C     C_R   0.934701 0.808326 0.204790 0.169390
C17   C     C_R   0.094860 0.327835 0.960543 -0.148020
C18   C     C_R   0.905248 0.827973 0.039496 -0.148033
C19   C     C_R   0.147776 0.365822 0.944486 -0.170256
C20   C     C_R   0.852329 0.865953 0.055536 -0.170237
C21   C     C_R   0.910351 0.172432 0.886650 -0.121665
C22   C     C_R   0.089702 0.672501 0.113293 -0.121636
C23   C     C_R   0.857880 0.134049 0.902956 -0.183999
C24   C     C_R   0.142182 0.634130 0.096985 -0.184011
C25   C     C_R   0.851552 0.134774 0.555495 -0.173651
C26   C     C_R   0.148386 0.634686 0.444492 -0.173512
C27   C     C_R   0.903993 0.173277 0.539273 -0.147360
C28   C     C_R   0.095936 0.673174 0.460717 -0.147414
C29   C     C_R   0.933635 0.192817 0.704349 0.169366
C30   C     C_R   0.066351 0.692792 0.295622 0.169370
C31   C     C_2   0.008778 0.268614 0.819743 -0.200474
C32   C     C_2   0.991240 0.768642 0.180338 -0.200481
C33   C     C_2   0.989945 0.232741 0.679622 -0.200882
C34   C     C_2   0.010026 0.732695 0.320356 -0.200891
C35   C     C_R   0.827961 0.114698 0.737651 -0.055954
C36   C     C_R   0.172042 0.614699 0.262314 -0.056030
H1    H     H_    0.158822 0.381018 0.454476 0.121801
H2    H     H_    0.840986 0.880786 0.545636 0.121797
H3    H     H_    0.841446 0.118870 0.045268 0.122023
H4    H     H_    0.158670 0.619024 0.954652 0.122021
H5    H     H_    0.829687 0.120651 0.425200 0.122829
H6    H     H_    0.170202 0.620500 0.574807 0.122826
H7    H     H_    0.016100 0.232545 0.539651 0.122375
H8    H     H_    0.983824 0.732420 0.460252 0.122396
H9    H     H_    0.077096 0.313433 0.102620 0.096979
H10   H     H_    0.923097 0.813676 0.897398 0.096972
H11   H     H_    0.933238 0.184667 0.016935 0.096918
H12   H     H_    0.066862 0.684801 0.982981 0.096895
H13   H     H_    0.169513 0.379983 0.074942 0.122565
H14   H     H_    0.830678 0.880215 0.925045 0.122547
H15   H     H_    0.982594 0.268799 0.959681 0.121908
H16   H     H_    0.017478 0.768904 0.040481 0.121935
H17   H     H_    0.066262 0.316150 0.482508 0.096819
H18   H     H_    0.933551 0.815930 0.517648 0.096778
C37   C     C_R   0.576387 0.363623 0.666257 -0.147470
C38   C     C_R   0.423732 0.863465 0.337594 -0.147524
H19   H     H_    0.534041 0.448871 0.647002 0.105694
H20   H     H_    0.466085 0.948707 0.356867 0.105753
H21   H     H_    0.667339 0.283357 0.659227 0.129512
H22   H     H_    0.332838 0.783129 0.346311 0.129494
H23   H     H_    0.624912 0.380470 0.635726 0.112200
H24   H     H_    0.375276 0.880231 0.369959 0.112217
C39   C     C_R   0.461652 0.382814 0.712564 -0.040062
C40   C     C_R   0.538339 0.882811 0.287768 -0.040205
C41   C     C_R   0.477119 0.097467 0.824123 -0.193171
C42   C     C_R   0.522799 0.597588 0.173422 -0.193022
C43   C     C_R   0.424014 0.134625 0.831744 -0.113179
C44   C     C_R   0.575867 0.634792 0.164743 -0.113241
C45   C     C_R   0.431940 0.194500 0.803111 -0.142233
C46   C     C_R   0.567969 0.694624 0.194340 -0.142235
C47   C     C_R   0.494004 0.219432 0.765309 0.030470
C48   C     C_R   0.505970 0.719464 0.234234 0.030492
C49   C     C_R   0.549382 0.180925 0.756004 0.070114
C50   C     C_R   0.450635 0.680903 0.244752 0.070059
C51   C     C_R   0.502449 0.281414 0.736573 0.071788
C52   C     C_R   0.497548 0.781409 0.263833 0.071765
C53   C     C_R   0.565913 0.303517 0.697382 0.110249
C54   C     C_R   0.434165 0.803411 0.305325 0.110265
C55   C     C_R   0.619001 0.265853 0.688814 -0.249070
C56   C     C_R   0.381118 0.765697 0.315055 -0.249101
C57   C     C_R   0.611836 0.205666 0.717753 0.152926
C58   C     C_R   0.388247 0.705555 0.285061 0.152865
C59   C     C_R   0.450380 0.322642 0.744624 -0.203254
C60   C     C_R   0.549566 0.822693 0.254510 -0.203311
C61   C     C_R   0.524748 0.402761 0.672904 -0.170055
C62   C     C_R   0.475333 0.902648 0.329850 -0.169951
C63   C     C_R   0.539778 0.119150 0.786488 -0.079984
C64   C     C_R   0.460209 0.619174 0.213212 -0.080105
H25   H     H_    0.400685 0.309706 0.773797 0.091067
H26   H     H_    0.599199 0.809833 0.223616 0.091175
H27   H     H_    0.469216 0.051038 0.848017 0.105235
H28   H     H_    0.530672 0.551201 0.148584 0.105319
H29   H     H_    0.388160 0.220087 0.811559 0.107556
H30   H     H_    0.611718 0.720253 0.184944 0.107548
H31   H     H_    0.375917 0.116781 0.860731 0.118398
H32   H     H_    0.623910 0.617021 0.134093 0.118403
H33   H     H_    0.921360 0.188022 0.397207 0.096841
H34   H     H_    0.078516 0.687845 0.602800 0.096844
N1    N     N_3   0.669143 0.170406 0.707653 -0.680123
H35   H     H_    0.692530 0.175940 0.571226 0.228547
H36   H     H_    0.700013 0.185780 0.810692 0.221205
N2    N     N_3   0.330967 0.670257 0.296097 -0.679838
H37   H     H_    0.299805 0.685747 0.194022 0.220877
H38   H     H_    0.307925 0.675608 0.433079 0.228837

loop_
_geom_bond_atom_site_label_1
_geom_bond_atom_site_label_2
_ccdc_geom_bond_type
C19   H13   S    
V4    O20   S    
C41   H27   S    
N2    H37   S    
C32   H16   S    
C21   H11   S    
O13   V3    S    
C42   C64   A    
O4    C2    A    
V1    O19   S    
C56   C58   A    
N1    H35   S    
C15   C17   A    
C7    C9    S    
O9    V1    S    
C18   C20   A    
H20   C62   S    
O16   C6    A    
C11   C13   A    
C3    C64   S    
O3    C1    A    
C2    C35   S    
C23   H3    S    
C49   C63   A    
C47   C51   A    
C24   H4    S    
O12   V4    S    
C18   H10   S    
C57   N1    S    
C60   H26   S    
O7    C3    A    
C59   H25   S    
C38   H24   S    
C9    C11   A    
O5    C7    A    
C28   H34   S    
O7    V1    S    
O6    C8    A    
O8    V2    S    
C25   C27   A    
C48   C50   A    
C26   C28   A    
O3    V1    S    
O14   V4    S    
C42   H28   S    
C41   C43   A    
C22   H12   S    
C40   C62   A    
C24   C36   A    
C31   H15   S    
C16   C18   A    
C8    C10   S    
C2    O12   A    
C5    C39   S    
C17   C19   A    
O10   V2    S    
C45   H29   S    
C33   H7    S    
C12   H2    S    
O1    V3    S    
C28   C30   A    
O11   V3    S    
C21   C23   A    
O17   V3    S    
C4    C63   S    
C13   C15   A    
C22   C24   A    
C52   C60   A    
C23   C35   A    
C50   C64   A    
C37   C61   A    
C9    C19   A    
C20   H14   S    
C10   C20   A    
C11   H1    S    
O8    C4    A    
C29   C33   S    
C1    O11   A    
C14   H18   S    
C16   C32   S    
C13   H17   S    
C38   C54   A    
C27   C29   A    
C46   C48   A    
C43   C45   A    
C6    C40   S    
C42   C44   A    
C22   C30   A    
C44   C46   A    
C39   C59   A    
C55   C57   A    
C54   C56   A    
C26   H6    S    
C58   N2    S    
C25   H5    S    
O5    V1    S    
C34   H8    S    
C51   C53   A    
H19   C61   S    
O18   V4    S    
C31   C33   D    
O17   C7    A    
C27   H33   S    
C43   H31   S    
O1    C3    A    
C12   C14   A    
C1    C36   S    
C37   H23   S    
C51   C59   A    
C17   H9    S    
C52   C54   A    
V2    O20   S    
C41   C63   A    
N2    H38   S    
O16   V4    S    
C25   C35   A    
C47   C49   A    
C39   C61   A    
C15   C31   S    
O6    V2    S    
O10   C6    A    
O18   C8    A    
C50   C58   A    
O2    V4    S    
C26   C36   A    
H21   C55   S    
O15   C5    A    
C44   H32   S    
C49   C57   A    
V3    O19   S    
C14   C16   A    
C46   H30   S    
C45   C47   A    
O15   V3    S    
H22   C56   S    
C48   C52   A    
O9    C5    A    
O13   V1    S    
C10   C12   A    
C32   C34   D    
O14   V2    S    
O2    C4    A    
N1    H36   S    
C21   C29   A    
O4    V2    S    
C40   C60   A    
C30   C34   S    
C53   C55   A    
C38   C62   A    
C37   C53   A    
