data_str_m4_o4_o15_f0_acs.sym.86
_audit_creation_date              2013-03-05T15:51:28-0500
_audit_creation_method            fapswitch 2.2
_symmetry_space_group_name_H-M    P1
_symmetry_Int_Tables_number       1
_space_group_crystal_system       triclinic
_cell_length_a                    19.051729
_cell_length_b                    10.98297
_cell_length_c                    18.724949
_cell_angle_alpha                 89.782919
_cell_angle_beta                  90.429798
_cell_angle_gamma                 90.189336
_cell_volume                      3917.9344806

loop_
_atom_site_label
_atom_site_type_symbol
_atom_site_description
_atom_site_fract_x
_atom_site_fract_y
_atom_site_fract_z
_atom_type_partial_charge
O1    O     O_R   0.957020 0.451640 0.669920 -0.505559
O2    O     O_R   0.042980 0.451640 0.330080 -0.517316
O3    O     O_R   0.457020 0.951640 0.669920 -0.505567
O4    O     O_R   0.542980 0.951640 0.330080 -0.516894
O5    O     O_R   0.821450 0.543440 0.674610 -0.499294
O6    O     O_R   0.178550 0.543440 0.325390 -0.506379
O7    O     O_R   0.321450 0.043440 0.674610 -0.498410
O8    O     O_R   0.678550 0.043440 0.325390 -0.505903
C1    C     C_R   0.760964 0.531126 0.646014 0.523673
C2    C     C_R   0.239993 0.535779 0.353476 0.552770
C3    C     C_R   0.260965 0.031125 0.646013 0.523972
C4    C     C_R   0.739992 0.035776 0.353477 0.553997
O9    O     O_R   0.715320 0.458650 0.668100 -0.524886
O10   O     O_R   0.284680 0.458650 0.331900 -0.485996
O11   O     O_R   0.215320 0.958650 0.668100 -0.525262
O12   O     O_R   0.784680 0.958650 0.331900 -0.485257
O13   O     O_R   0.737170 0.209590 0.674530 -0.425545
O14   O     O_R   0.262830 0.209590 0.325470 -0.477617
O15   O     O_R   0.237170 0.709590 0.674530 -0.425830
O16   O     O_R   0.762830 0.709590 0.325470 -0.477024
C5    C     C_R   0.792452 0.175313 0.639283 0.576737
C6    C     C_R   0.209424 0.169420 0.361489 0.568552
C7    C     C_R   0.292453 0.675314 0.639282 0.576751
C8    C     C_R   0.709423 0.669424 0.361489 0.568488
O17   O     O_R   0.832710 0.092740 0.669580 -0.471222
O18   O     O_R   0.167290 0.092740 0.330420 -0.528445
O19   O     O_R   0.332710 0.592740 0.669580 -0.471025
O20   O     O_R   0.667290 0.592740 0.330420 -0.528412
O21   O     O_R   0.946290 0.250060 0.676040 -0.534517
O22   O     O_R   0.053710 0.250060 0.323960 -0.525605
O23   O     O_R   0.446290 0.750060 0.676040 -0.535150
O24   O     O_R   0.553710 0.750060 0.323960 -0.524683
C9    C     C_R   0.968917 0.348405 0.644901 0.533176
C10   C     C_R   0.026537 0.343700 0.351314 0.526108
C11   C     C_R   0.468924 0.848406 0.644906 0.532583
C12   C     C_R   0.526539 0.843700 0.351315 0.527513
O25   O     O_R   0.956270 0.452200 0.830470 -0.505162
O26   O     O_R   0.043730 0.452200 0.169530 -0.525693
O27   O     O_R   0.456270 0.952200 0.830470 -0.512299
O28   O     O_R   0.543730 0.952200 0.169530 -0.519776
O29   O     O_R   0.820760 0.543950 0.823440 -0.504849
O30   O     O_R   0.179240 0.543950 0.176560 -0.507658
O31   O     O_R   0.320760 0.043950 0.823440 -0.508573
O32   O     O_R   0.679240 0.043950 0.176560 -0.506672
C13   C     C_R   0.760306 0.532803 0.852017 0.542985
C14   C     C_R   0.239071 0.530550 0.146965 0.541148
C15   C     C_R   0.260990 0.030516 0.853012 0.539857
C16   C     C_R   0.737135 0.024394 0.144658 0.542781
O33   O     O_R   0.714570 0.459210 0.828640 -0.522436
O34   O     O_R   0.285430 0.459210 0.171360 -0.524183
O35   O     O_R   0.214570 0.959210 0.828640 -0.516433
O36   O     O_R   0.785430 0.959210 0.171360 -0.524721
O37   O     O_R   0.736470 0.210100 0.823360 -0.495292
O38   O     O_R   0.263530 0.210100 0.176640 -0.507634
O39   O     O_R   0.236470 0.710100 0.823360 -0.491857
O40   O     O_R   0.763530 0.710100 0.176640 -0.507455
C17   C     C_R   0.771541 0.122900 0.851858 0.558027
C18   C     C_R   0.227637 0.126074 0.147000 0.554669
C19   C     C_R   0.272466 0.625537 0.852863 0.560914
C20   C     C_R   0.726464 0.628756 0.145745 0.549618
O41   O     O_R   0.831960 0.093290 0.830130 -0.520609
O42   O     O_R   0.168040 0.093290 0.169870 -0.520964
O43   O     O_R   0.331960 0.593290 0.830130 -0.519972
O44   O     O_R   0.668040 0.593290 0.169870 -0.515779
O45   O     O_R   0.945600 0.250580 0.824860 -0.510195
O46   O     O_R   0.054400 0.250580 0.175140 -0.510859
O47   O     O_R   0.445600 0.750580 0.824860 -0.511768
O48   O     O_R   0.554400 0.750580 0.175140 -0.509976
C21   C     C_R   0.968148 0.347180 0.855058 0.550590
C22   C     C_R   0.028347 0.346937 0.147444 0.548205
C23   C     C_R   0.471837 0.847080 0.852417 0.552514
C24   C     C_R   0.533299 0.847061 0.144223 0.543412
Cr1   Cr    Cr6+3 0.885860 0.491680 0.749630 1.036841
Cr2   Cr    Cr6+3 0.114140 0.491680 0.250370 0.999225
Cr3   Cr    Cr6+3 0.385860 0.991680 0.749630 1.033397
Cr4   Cr    Cr6+3 0.614140 0.991680 0.250370 1.002240
Cr5   Cr    Cr6+3 0.730490 0.332970 0.748720 1.069846
Cr6   Cr    Cr6+3 0.269510 0.332970 0.251280 1.022535
Cr7   Cr    Cr6+3 0.230490 0.832970 0.748720 1.073036
Cr8   Cr    Cr6+3 0.769510 0.832970 0.251280 1.022767
Cr9   Cr    Cr6+3 0.887570 0.179310 0.750150 1.019060
Cr10  Cr    Cr6+3 0.112430 0.179310 0.249850 0.993098
Cr11  Cr    Cr6+3 0.387570 0.679310 0.750150 1.018091
Cr12  Cr    Cr6+3 0.612430 0.679310 0.249850 0.995789
O49   O     O_3   0.834640 0.334650 0.749500 -0.294153
O50   O     O_3   0.165360 0.334650 0.250500 -0.263287
O51   O     O_3   0.334640 0.834650 0.749500 -0.294092
O52   O     O_3   0.665360 0.834650 0.250500 -0.267764
C25   C     C_R   0.759301 0.109951 0.416051 0.017960
C26   C     C_R   0.249869 0.069399 0.574509 0.056642
C27   C     C_R   0.259308 0.609959 0.416046 0.018128
C28   C     C_R   0.749867 0.569399 0.574511 0.056771
C29   C     C_R   0.710931 0.177013 0.455042 -0.042870
C30   C     C_R   0.200110 0.158111 0.559342 -0.050032
C31   C     C_R   0.210943 0.677040 0.455031 -0.042781
C32   C     C_R   0.700112 0.658117 0.559346 -0.049957
C33   C     C_R   0.724459 0.211951 0.524358 0.008888
C34   C     C_R   0.196242 0.201774 0.489872 -0.022758
C35   C     C_R   0.224469 0.711972 0.524350 0.008812
C36   C     C_R   0.696243 0.701782 0.489877 -0.022942
C37   C     C_R   0.839655 0.129907 0.518017 -0.109216
C38   C     C_R   0.265892 0.032670 0.448724 -0.113829
C39   C     C_R   0.339660 0.629907 0.518016 -0.109156
C40   C     C_R   0.765888 0.532672 0.448726 -0.113782
C41   C     C_R   0.827651 0.102309 0.445507 -0.093340
C42   C     C_R   0.280111 0.001787 0.519387 -0.126400
C43   C     C_R   0.327657 0.602306 0.445505 -0.093311
C44   C     C_R   0.780106 0.501784 0.519388 -0.126379
C45   C     C_3   0.633216 0.181612 0.463357 -0.243375
C46   C     C_3   0.199760 0.280370 0.592126 -0.197779
C47   C     C_3   0.133229 0.681670 0.463335 -0.243265
C48   C     C_3   0.699768 0.780370 0.592137 -0.197620
C49   C     C_3   0.648235 0.229508 0.538864 0.100472
C50   C     C_3   0.213921 0.327597 0.517344 0.117550
C51   C     C_3   0.148245 0.729553 0.538845 0.100429
C52   C     C_3   0.713927 0.827601 0.517355 0.117470
C53   C     C_R   0.784685 0.171885 0.560921 0.018316
C54   C     C_R   0.226467 0.137063 0.433957 0.079635
C55   C     C_R   0.284690 0.671893 0.560918 0.018313
C56   C     C_R   0.726466 0.637070 0.433960 0.079471
H1    H     H_    0.889223 0.105580 0.542091 0.175049
H2    H     H_    0.287199 0.978236 0.405978 0.119812
H3    H     H_    0.389227 0.605576 0.542091 0.175079
H4    H     H_    0.787193 0.478237 0.405979 0.119952
H5    H     H_    0.869117 0.058888 0.416034 0.159516
H6    H     H_    0.314356 0.925701 0.531151 0.099746
H7    H     H_    0.369122 0.558876 0.416035 0.159525
H8    H     H_    0.814347 0.425693 0.531151 0.099699
H9    H     H_    0.108659 0.589768 0.461579 0.178350
H10   H     H_    0.741407 0.793322 0.633234 0.191686
H11   H     H_    0.608659 0.089701 0.461606 0.178179
H12   H     H_    0.241398 0.293331 0.633223 0.191688
H13   H     H_    0.608822 0.250493 0.427522 0.105489
H14   H     H_    0.146589 0.303267 0.611795 0.143155
H15   H     H_    0.108849 0.750564 0.427499 0.105466
H16   H     H_    0.646598 0.803264 0.611810 0.143210
H17   H     H_    0.636211 0.327334 0.545455 0.107164
H18   H     H_    0.178119 0.399703 0.497306 0.127665
H19   H     H_    0.136230 0.827383 0.545440 0.107142
H20   H     H_    0.678127 0.899712 0.497320 0.127531
C57   C     C_R   0.988775 0.327548 0.419283 -0.038250
C58   C     C_R   0.991420 0.348414 0.569133 -0.009252
C59   C     C_R   0.488787 0.827550 0.419291 -0.038647
C60   C     C_R   0.491434 0.848418 0.569142 -0.008943
C61   C     C_R   0.008372 0.105399 0.432404 -0.086859
C62   C     C_R   0.030725 0.134662 0.578119 -0.095174
C63   C     C_R   0.508389 0.605400 0.432418 -0.087005
C64   C     C_R   0.530741 0.634672 0.578132 -0.095102
C65   C     C_R   0.024183 0.004897 0.475099 -0.119654
C66   C     C_R   0.036236 0.019973 0.547721 -0.113031
C67   C     C_R   0.524200 0.504901 0.475116 -0.119678
C68   C     C_R   0.536252 0.519981 0.547738 -0.112990
C69   C     C_R   0.008734 0.236179 0.536991 -0.025494
C70   C     C_R   0.002487 0.223321 0.462135 -0.005594
C71   C     C_R   0.508749 0.736184 0.537002 -0.025406
C72   C     C_R   0.502502 0.723324 0.462146 -0.005835
H21   H     H_    0.026585 0.915116 0.451760 0.103479
H22   H     H_    0.048180 0.942629 0.581380 0.141490
H23   H     H_    0.526603 0.415118 0.451779 0.103474
H24   H     H_    0.548196 0.442641 0.581400 0.141485
H25   H     H_    0.996143 0.087942 0.376926 0.132526
H26   H     H_    0.043852 0.142521 0.634173 0.139641
H27   H     H_    0.496160 0.587937 0.376941 0.132551
H28   H     H_    0.543866 0.642536 0.634187 0.139642
C73   C     C_R   0.974527 0.451919 0.524354 0.014997
C74   C     C_R   0.963823 0.433733 0.450819 -0.010704
C75   C     C_R   0.474542 0.951923 0.524363 0.015085
C76   C     C_R   0.463836 0.933736 0.450829 -0.010864
C77   C     C_R   0.968890 0.574474 0.548796 -0.050557
C78   C     C_R   0.935133 0.527543 0.407842 -0.101471
C79   C     C_R   0.468905 0.074478 0.548806 -0.050468
C80   C     C_R   0.435141 0.027545 0.407855 -0.101551
C81   C     C_R   0.947781 0.669000 0.503743 -0.103067
C82   C     C_R   0.929568 0.644951 0.433542 -0.089795
C83   C     C_R   0.447791 0.169003 0.503755 -0.103078
C84   C     C_R   0.429574 0.144952 0.433555 -0.089867
H29   H     H_    0.920832 0.511309 0.352550 0.126136
H30   H     H_    0.985044 0.603923 0.600820 0.218644
H31   H     H_    0.420834 0.011310 0.352564 0.126199
H32   H     H_    0.485060 0.103926 0.600829 0.218732
H33   H     H_    0.946174 0.761405 0.523463 0.176339
H34   H     H_    0.913720 0.717477 0.397853 0.170959
H35   H     H_    0.446182 0.261406 0.523476 0.176326
H36   H     H_    0.413723 0.217476 0.397867 0.170950
C85   C     C_R   0.740385 0.045770 0.067964 0.017007
C86   C     C_R   0.253733 0.061796 0.927756 0.020095
C87   C     C_R   0.246753 0.562516 0.072253 0.021702
C88   C     C_R   0.746810 0.587098 0.921313 0.016885
C89   C     C_R   0.788347 0.977905 0.028936 0.045599
C90   C     C_R   0.210255 0.986784 0.968510 0.043139
C91   C     C_R   0.294183 0.493649 0.032999 0.044168
C92   C     C_R   0.684640 0.557919 0.957100 0.026766
C93   C     C_R   0.791952 0.986970 0.955862 0.029170
C94   C     C_R   0.207963 0.995659 0.041656 0.018254
C95   C     C_R   0.297038 0.501614 0.959956 0.022274
C96   C     C_R   0.681123 0.566361 0.030101 0.044023
C97   C     C_R   0.689754 0.114852 0.955144 -0.160687
C98   C     C_R   0.299068 0.148693 0.037682 -0.164558
C99   C     C_R   0.198226 0.638152 0.960548 -0.161919
C100  C     C_R   0.797537 0.650829 0.034861 -0.152018
C101  C     C_R   0.686612 0.105743 0.029952 -0.161218
C102  C     C_R   0.300966 0.139332 0.963140 -0.170369
C103  C     C_R   0.196232 0.631034 0.035194 -0.165529
C104  C     C_R   0.801353 0.643152 0.960252 -0.149607
C105  C     C_3   0.865770 0.967319 0.038279 -0.273227
C106  C     C_3   0.132817 0.970103 0.961382 -0.268254
C107  C     C_3   0.372001 0.486853 0.041463 -0.277992
C108  C     C_3   0.642253 0.442624 0.957440 -0.268801
C109  C     C_3   0.870220 0.974258 0.957847 -0.269508
C110  C     C_3   0.130067 0.976637 0.041681 -0.269657
C111  C     C_3   0.375633 0.494237 0.961105 -0.269647
C112  C     C_3   0.639221 0.452228 0.037703 -0.278397
C113  C     C_R   0.748040 0.067878 0.918743 0.016984
C114  C     C_R   0.248843 0.082682 0.077173 0.012967
C115  C     C_R   0.252235 0.580505 0.922744 0.016718
C116  C     C_R   0.738534 0.604959 0.070685 0.017689
H37   H     H_    0.650319 0.167030 0.926902 0.124230
H38   H     H_    0.332696 0.214708 0.063531 0.132987
H39   H     H_    0.161278 0.696015 0.932991 0.127782
H40   H     H_    0.841275 0.687864 0.064664 0.118424
H41   H     H_    0.644404 0.149698 0.057973 0.125362
H42   H     H_    0.337473 0.195006 0.933250 0.120753
H43   H     H_    0.157141 0.681824 0.063921 0.114375
H44   H     H_    0.848802 0.671613 0.933880 0.123629
H45   H     H_    0.882582 0.878434 0.060472 0.132953
H46   H     H_    0.117209 0.880235 0.939958 0.136425
H47   H     H_    0.390218 0.398295 0.063260 0.132096
H48   H     H_    0.673240 0.363383 0.939992 0.164404
H49   H     H_    0.888500 0.047738 0.065843 0.137710
H50   H     H_    0.107501 0.048657 0.934143 0.135879
H51   H     H_    0.394298 0.568200 0.068711 0.134549
H52   H     H_    0.590289 0.453617 0.930852 0.130486
H53   H     H_    0.897342 0.057038 0.939341 0.168104
H54   H     H_    0.101541 0.057521 0.060235 0.165919
H55   H     H_    0.400800 0.579473 0.942569 0.165707
H56   H     H_    0.585459 0.468097 0.057898 0.133352
H57   H     H_    0.888196 0.888190 0.933039 0.128685
H58   H     H_    0.114547 0.889415 0.067391 0.125842
H59   H     H_    0.395316 0.409427 0.936105 0.129875
H60   H     H_    0.668706 0.379027 0.065934 0.135551
C117  C     C_R   0.991774 0.339437 0.079592 0.017095
C118  C     C_R   0.984155 0.342603 0.930499 0.021424
C119  C     C_R   0.519782 0.841284 0.068383 0.018053
C120  C     C_R   0.509596 0.841395 0.919682 0.018386
C121  C     C_R   0.972857 0.446126 0.043170 0.021747
C122  C     C_R   0.969531 0.446765 0.970061 0.043938
C123  C     C_R   0.527548 0.948696 0.029648 0.043871
C124  C     C_R   0.523355 0.949686 0.956757 0.033790
C125  C     C_R   0.991801 0.231722 0.966839 -0.171979
C126  C     C_R   0.992754 0.229615 0.041454 -0.169422
C127  C     C_R   0.516675 0.730341 0.956434 -0.164203
C128  C     C_R   0.520580 0.730289 0.031109 -0.160134
C129  C     C_3   0.003405 0.572357 0.044174 -0.271802
C130  C     C_3   0.000812 0.570833 0.963622 -0.269917
C131  C     C_3   0.490489 0.066917 0.037902 -0.280718
C132  C     C_3   0.486098 0.070192 0.957419 -0.267031
H61   H     H_    0.999125 0.148214 0.937636 0.113776
H62   H     H_    0.000762 0.144245 0.068886 0.117030
H63   H     H_    0.512514 0.644622 0.928471 0.120490
H64   H     H_    0.521486 0.644555 0.059528 0.127242
H65   H     H_    0.057768 0.575887 0.064817 0.170255
H66   H     H_    0.964288 0.638786 0.940476 0.134391
H67   H     H_    0.524319 0.139715 0.060582 0.134557
H68   H     H_    0.431340 0.064180 0.937880 0.170952
H69   H     H_    0.967197 0.639817 0.067989 0.120430
H70   H     H_    0.053453 0.569128 0.938556 0.143404
H71   H     H_    0.438652 0.056141 0.064066 0.139410
H72   H     H_    0.517908 0.144472 0.933268 0.131585
N1    N     N_R   0.621077 0.153114 0.596410 0.081393
O53   O     O_R   0.591298 0.204283 0.650881 -0.361971
O54   O     O_R   0.632040 0.036434 0.597548 -0.381942
N2    N     N_R   0.288949 0.355619 0.508421 0.072450
O55   O     O_R   0.328926 0.381397 0.563029 -0.362301
O56   O     O_R   0.318422 0.339465 0.447069 -0.378523
N3    N     N_R   0.121072 0.653158 0.596382 0.081342
O57   O     O_R   0.091281 0.704327 0.650846 -0.362202
O58   O     O_R   0.132037 0.536479 0.597523 -0.381947
N4    N     N_R   0.788956 0.855618 0.508430 0.072416
O59   O     O_R   0.828935 0.881393 0.563038 -0.362324
O60   O     O_R   0.818426 0.839471 0.447076 -0.378681

loop_
_geom_bond_atom_site_label_1
_geom_bond_atom_site_label_2
_geom_bond_distance
_ccdc_geom_bond_type
C18   O42   1.267150 A    
O17   Cr9   2.062313 S    
O4    C12   1.287428 A    
C10   C57   1.476496 S    
O47   Cr11  1.942011 S    
C73   C74   1.405362 A    
C120  C127  1.404568 A    
O39   C19   1.277780 A    
O20   Cr12  2.060226 S    
C109  H57   1.111082 S    
C102  H42   1.082282 S    
C105  H49   1.109779 S    
N3    O57   1.301215 A    
C36   C52   1.512450 S    
O8    Cr4   1.943679 S    
C39   H3    1.077401 S    
C82   H34   1.080166 S    
C68   H24   1.079664 S    
O1    C9    1.250488 A    
C127  C128  1.399699 A    
C123  C131  1.489113 S    
O46   C22   1.277004 A    
C81   C82   1.383222 A    
O7    C3    1.274049 A    
C62   H26   1.080870 S    
C57   C74   1.395663 A    
C118  C122  1.395270 A    
C61   H25   1.080639 S    
O36   Cr8   2.059649 S    
C99   C115  1.406891 A    
C92   C96   1.372595 A    
N3    O58   1.299148 A    
C12   C59   1.476522 S    
C49   N1    1.459939 S    
C23   C120  1.447037 S    
C47   C51   1.534987 S    
O25   C21   1.260842 A    
O39   Cr7   1.942105 S    
C22   C117  1.446942 S    
O26   Cr2   2.061429 S    
C129  C130  1.508930 S    
C96   C116  1.392999 A    
C19   C115  1.451473 S    
C57   C70   1.419280 A    
C34   C50   1.512434 S    
C48   C52   1.517213 S    
C106  H50   1.110342 S    
C30   C34   1.386219 A    
C31   C35   1.377117 A    
C129  H65   1.103381 S    
C87   C103  1.401817 A    
C28   C32   1.388734 A    
O10   Cr6   2.067458 S    
O23   Cr11  1.946903 S    
C86   C102  1.401505 A    
C6    C54   1.436513 S    
O30   C14   1.280343 A    
C85   C101  1.407129 A    
O32   Cr4   1.947563 S    
C1    O9    1.248669 A    
O44   Cr12  2.073412 S    
C61   C65   1.392899 A    
C5    C53   1.474268 S    
C127  H63   1.081386 S    
C62   C66   1.388839 A    
C3    O11   1.248678 A    
C47   H9    1.111696 S    
O11   Cr7   2.061086 S    
C58   C69   1.414857 A    
C4    O12   1.272071 A    
O21   C9    1.299382 A    
C89   C105  1.488954 S    
N2    O55   1.301894 A    
C45   H11   1.111695 S    
C67   C68   1.387833 A    
C46   H12   1.110249 S    
C101  H41   1.079711 S    
C36   C56   1.396559 A    
C64   C71   1.415436 A    
O27   Cr3   2.060880 S    
C14   C87   1.449426 S    
O3    Cr3   2.073255 S    
C46   C50   1.517200 S    
C95   C115  1.398658 A    
C29   C45   1.490973 S    
O2    Cr2   2.068953 S    
O8    C4    1.282576 A    
C11   C60   1.485162 S    
O2    C10   1.287426 A    
C110  H54   1.101628 S    
O42   Cr10  2.073412 S    
C81   H33   1.081883 S    
O18   Cr10  2.060226 S    
O28   C24   1.264393 A    
N1    O53   1.301221 A    
C104  H44   1.078158 S    
C107  C111  1.508663 S    
C92   C108  1.499637 S    
C24   C119  1.442963 S    
C58   C73   1.445710 A    
C105  C109  1.510723 S    
C98   H38   1.079519 S    
C48   H16   1.110422 S    
C97   H37   1.080325 S    
O34   Cr6   2.059649 S    
C1    C28   1.416371 S    
Cr7   O51   1.984209 S    
C108  C112  1.508566 S    
C112  H56   1.109041 S    
C47   H15   1.110114 S    
C28   C44   1.402247 A    
Cr9   O49   1.984648 S    
C26   C30   1.388744 A    
C111  H55   1.106248 S    
O35   Cr7   2.068612 S    
C105  H45   1.106926 S    
C44   H8    1.082840 S    
C73   C77   1.427977 A    
O24   Cr12  1.954038 S    
O9    Cr5   2.061086 S    
C64   C68   1.388828 A    
O30   Cr2   1.947563 S    
C37   C41   1.409141 A    
C8    C56   1.436543 S    
O22   C10   1.264728 A    
C78   H29   1.083891 S    
C45   H13   1.110115 S    
O48   Cr12  1.940683 S    
Cr12  O52   1.978989 S    
C4    C25   1.473309 S    
C99   H39   1.077345 S    
C26   C42   1.402252 A    
O37   C17   1.281960 A    
C5    O17   1.314054 A    
C2    O10   1.272065 A    
C75   C76   1.405355 A    
O23   C11   1.299387 A    
O16   Cr8   1.941540 S    
C106  H46   1.105813 S    
C75   C79   1.427981 A    
C60   C75   1.445700 A    
C91   C95   1.371663 A    
C129  H69   1.110926 S    
Cr10  O50   1.978989 S    
O6    Cr2   1.943679 S    
C79   C83   1.393643 A    
C30   C46   1.478613 S    
C25   C29   1.394076 A    
C37   H1    1.077393 S    
C120  C124  1.402391 A    
O43   Cr11  2.065035 S    
O48   C24   1.270543 A    
O12   Cr8   2.067458 S    
C64   H28   1.080882 S    
O41   Cr9   2.065035 S    
O22   Cr10  1.954038 S    
O15   C7    1.304435 A    
O5    C1    1.274048 A    
C49   H17   1.106872 S    
O21   Cr9   1.946903 S    
C15   O35   1.263253 A    
C100  C104  1.402364 A    
C94   C110  1.498008 S    
C32   C48   1.478601 S    
C95   C111  1.499829 S    
C106  C110  1.506893 S    
C29   C33   1.377112 A    
C93   C109  1.498291 S    
C83   C84   1.383220 A    
O3    C11   1.250475 A    
O14   Cr6   1.941540 S    
C51   H19   1.106876 S    
C93   C113  1.401476 A    
C13   O33   1.263518 A    
C125  C126  1.397234 A    
C103  H43   1.079896 S    
N4    O59   1.301896 A    
C91   C107  1.491920 S    
O29   C13   1.278941 A    
Cr2   O50   1.984373 S    
C15   C86   1.450107 S    
O15   Cr7   1.949458 S    
C63   C72   1.416767 A    
Cr1   O49   1.978776 S    
C42   H6    1.082838 S    
C112  H60   1.112055 S    
C38   H2    1.083047 S    
C85   C89   1.394005 A    
C108  H52   1.111521 S    
C98   C102  1.400698 A    
C18   C114  1.453910 S    
C80   H31   1.083884 S    
Cr3   O51   1.978776 S    
O26   C22   1.262155 A    
C17   C113  1.461193 S    
C2    C27   1.473315 S    
C74   C78   1.413781 A    
C7    O19   1.314063 A    
C132  H68   1.104788 S    
C121  C129  1.501944 S    
O37   Cr5   1.942105 S    
C100  H40   1.078763 S    
C111  H59   1.111606 S    
C117  C121  1.400394 A    
C79   H32   1.070286 S    
C46   H14   1.110420 S    
C61   C70   1.416767 A    
C48   H10   1.110257 S    
C33   C49   1.492644 S    
C131  C132  1.509029 S    
C98   C114  1.410680 A    
O24   C12   1.264726 A    
C77   H30   1.070283 S    
C40   C44   1.389596 A    
C97   C113  1.407720 A    
C128  H64   1.079952 S    
O31   Cr3   1.953058 S    
C83   H35   1.081882 S    
O38   C18   1.273306 A    
O25   Cr1   2.060880 S    
C107  H47   1.109121 S    
C19   O43   1.265861 A    
C84   H36   1.080162 S    
Cr4   O52   1.984373 S    
N4    O60   1.295527 A    
C130  H70   1.110729 S    
O27   C23   1.259617 A    
C119  C128  1.407182 A    
C66   H22   1.079666 S    
O14   C6    1.299952 A    
C118  C125  1.400250 A    
C87   C91   1.395557 A    
C110  H58   1.110686 S    
O5    Cr1   1.942938 S    
C39   C55   1.404771 A    
C117  C126  1.404309 A    
C8    O20   1.297827 A    
C125  H61   1.079572 S    
C50   N2    1.471780 S    
Cr11  O51   1.984648 S    
C94   C114  1.398029 A    
O7    Cr3   1.942938 S    
C123  C124  1.366612 A    
C124  C132  1.504044 S    
C13   C88   1.455074 S    
C17   O41   1.267589 A    
C40   H4    1.083047 S    
C78   C82   1.382743 A    
C45   C49   1.534992 S    
C9    C58   1.485193 S    
C35   C55   1.402938 A    
C122  C130  1.490285 S    
C88   C92   1.400858 A    
C14   O34   1.264305 A    
C119  C123  1.390555 A    
O40   Cr8   1.948929 S    
C97   C101  1.405662 A    
C41   H5    1.080325 S    
C20   O44   1.264157 A    
C88   C104  1.406506 A    
O1    Cr1   2.073255 S    
O16   C8    1.299959 A    
C60   C71   1.414835 A    
N1    O54   1.299153 A    
C90   C106  1.491106 S    
C20   C116  1.450734 S    
C37   C53   1.404760 A    
C16   C85   1.456029 S    
Cr8   O52   1.984330 S    
O32   C16   1.277503 A    
C31   C47   1.490957 S    
C65   C66   1.387829 A    
C132  H72   1.111475 S    
O46   Cr10  1.940683 S    
C35   C51   1.492645 S    
O13   Cr5   1.949458 S    
C76   C80   1.413780 A    
C3    C26   1.416389 S    
C107  H51   1.112062 S    
C59   C72   1.419303 A    
C131  H67   1.109095 S    
C62   C69   1.415439 A    
C131  H71   1.111490 S    
Cr5   O49   1.984209 S    
O45   C21   1.275852 A    
C63   C67   1.392909 A    
C32   C36   1.386228 A    
C34   C54   1.396535 A    
C52   N4    1.471781 S    
C100  C116  1.404438 A    
O38   Cr6   1.948929 S    
O33   Cr5   2.068612 S    
C38   C42   1.389598 A    
O47   C23   1.279133 A    
C50   H18   1.109359 S    
C63   H27   1.080634 S    
C33   C53   1.402926 A    
C21   C118  1.443664 S    
C38   C54   1.398357 A    
C109  H53   1.100402 S    
C59   C76   1.395675 A    
O4    Cr4   2.068953 S    
O6    C2    1.282596 A    
C90   C94   1.374529 A    
O29   Cr1   1.953058 S    
O19   Cr11  2.062313 S    
C96   C112  1.490837 S    
C99   C103  1.400426 A    
C89   C93   1.373755 A    
C16   O36   1.266422 A    
O40   C20   1.274796 A    
C130  H66   1.107027 S    
C27   C31   1.394057 A    
N2    O56   1.295526 A    
Cr6   O50   1.984330 S    
C6    O18   1.297810 A    
O28   Cr4   2.061429 S    
C25   C41   1.412993 A    
C71   C72   1.413397 A    
C65   H21   1.081336 S    
C77   C81   1.393648 A    
O45   Cr9   1.942011 S    
C7    C55   1.474303 S    
C39   C43   1.409152 A    
C86   C90   1.395500 A    
C43   H7    1.080329 S    
C52   H20   1.109354 S    
C69   C70   1.413394 A    
C121  C122  1.369957 A    
O31   C15   1.277818 A    
C126  H62   1.078123 S    
C51   N3    1.459924 S    
C108  H48   1.105047 S    
C80   C84   1.382743 A    
C67   H23   1.081335 S    
C40   C56   1.398362 A    
C27   C43   1.413003 A    
O13   C5    1.304422 A    
