data_str_m2_o40_o40_f0_fof.sym.21
_audit_creation_date              2012-10-26T17:12:25-0400
_audit_creation_method            fapswitch 2.2
_symmetry_space_group_name_H-M    P1
_symmetry_Int_Tables_number       1
_space_group_crystal_system       triclinic
_cell_length_a                    16.840672
_cell_length_b                    16.878433
_cell_length_c                    16.858617
_cell_angle_alpha                 68.002898
_cell_angle_beta                  68.066794
_cell_angle_gamma                 67.89522
_cell_volume                      3962.79950442

loop_
_atom_site_label
_atom_site_type_symbol
_atom_type_description
_atom_site_fract_x
_atom_site_fract_y
_atom_site_fract_z
_atom_type_partial_charge
C1    C     C_R   0.024363 0.829066 0.566030 0.560028
C2    C     C_R   0.012905 0.569508 0.831901 0.551486
C3    C     C_R   0.171313 0.972798 0.435241 0.552950
C4    C     C_R   0.832013 0.012621 0.569608 0.561635
C5    C     C_R   0.458068 0.068083 0.702813 -0.109525
C6    C     C_R   0.502736 0.046860 0.266638 -0.107142
C7    C     C_R   0.069065 0.702505 0.458131 -0.110095
C8    C     C_R   0.048577 0.265603 0.502397 -0.106769
C9    C     C_R   0.688771 0.468330 0.086616 -0.106189
C10   C     C_R   0.295307 0.543030 0.938061 -0.109033
C11   C     C_R   0.294070 0.944102 0.542396 -0.108993
C12   C     C_R   0.984343 0.169009 0.430914 0.570614
C13   C     C_R   0.728523 0.970049 0.485217 -0.104268
C14   C     C_R   0.513493 0.270735 0.031994 -0.115632
C15   C     C_R   0.511948 0.738382 0.930634 -0.104644
C16   C     C_R   0.945647 0.541970 0.293766 -0.103514
C17   C     C_R   0.972387 0.484184 0.727640 -0.104643
C18   C     C_R   0.544002 0.016759 0.546276 -0.037683
C19   C     C_R   0.445735 0.003254 0.451142 -0.037764
C20   C     C_R   0.019300 0.545219 0.543504 -0.037222
C21   C     C_R   0.005719 0.450187 0.445178 -0.036820
C22   C     C_R   0.549909 0.553637 0.003409 -0.036983
C23   C     C_R   0.829070 0.566217 0.025123 0.554272
C24   C     C_R   0.452820 0.455742 0.990606 -0.034307
C25   C     C_R   0.585033 0.006359 0.459566 0.070184
C26   C     C_R   0.409101 0.998047 0.542734 0.064722
C27   C     C_R   0.009422 0.458320 0.584329 0.069421
C28   C     C_R   0.000398 0.541807 0.408639 0.066873
C29   C     C_R   0.479411 0.598730 0.962032 0.066194
C30   C     C_R   0.530438 0.410916 0.021681 0.062625
C31   C     C_R   0.530247 0.018397 0.407341 0.071399
C32   C     C_R   0.452409 0.022679 0.584423 0.065244
C33   C     C_R   0.423932 0.550129 0.966008 0.064440
C34   C     C_R   0.171492 0.435068 0.973125 0.570950
C35   C     C_R   0.572278 0.460222 0.038460 0.064611
C36   C     C_R   0.021321 0.406154 0.529562 0.070820
C37   C     C_R   0.025002 0.583451 0.452053 0.066804
C38   C     C_R   0.408255 0.057586 0.658647 0.124535
C39   C     C_R   0.553687 0.049861 0.314004 0.131487
C40   C     C_R   0.059257 0.658035 0.408224 0.125505
C41   C     C_R   0.052386 0.312656 0.553120 0.129204
C42   C     C_R   0.633201 0.421125 0.091856 0.135680
C43   C     C_R   0.339459 0.591802 0.948889 0.127329
C44   C     C_R   0.336645 0.960757 0.589384 0.122319
C45   C     C_R   0.566001 0.024329 0.829107 0.564278
C46   C     C_R   0.678534 0.975402 0.432534 0.125653
C47   C     C_R   0.564914 0.318686 0.031732 0.121985
C48   C     C_R   0.471206 0.689763 0.914345 0.134488
C49   C     C_R   0.962654 0.588677 0.336300 0.125763
C50   C     C_R   0.978421 0.431310 0.677644 0.124136
C51   C     C_R   0.552025 0.039561 0.678049 -0.054540
C52   C     C_R   0.431459 0.007664 0.309957 -0.046620
C53   C     C_R   0.040580 0.677650 0.551898 -0.052713
C54   C     C_R   0.009040 0.309332 0.431168 -0.047508
C55   C     C_R   0.675424 0.558502 0.041022 -0.054844
C56   C     C_R   0.430968 0.984128 0.169103 0.563015
C57   C     C_R   0.322603 0.449701 0.960528 -0.047140
C58   C     C_R   0.319087 0.967238 0.448634 -0.047814
C59   C     C_R   0.688343 0.000730 0.562196 -0.042244
C60   C     C_R   0.436143 0.312203 0.001832 -0.044798
C61   C     C_R   0.572700 0.695747 0.982022 -0.044081
C62   C     C_R   0.968628 0.448228 0.318775 -0.044916
C63   C     C_R   0.002415 0.561469 0.687834 -0.041414
C64   C     C_R   0.604516 0.029116 0.732957 0.011196
C65   C     C_R   0.390061 0.986147 0.263640 -0.014234
C66   C     C_R   0.029483 0.732745 0.604417 0.010869
C67   C     C_R   0.431081 0.169073 0.984634 0.551643
C68   C     C_R   0.986743 0.263431 0.389955 -0.013486
C69   C     C_R   0.733383 0.607767 0.028870 0.010194
C70   C     C_R   0.269374 0.398731 0.964025 0.007380
C71   C     C_R   0.268499 0.964130 0.398957 0.007444
C72   C     C_R   0.738456 0.007340 0.610195 -0.027929
C73   C     C_R   0.391488 0.264013 0.986263 -0.016087
C74   C     C_R   0.615174 0.742989 0.999102 -0.030687
C75   C     C_R   0.964778 0.398849 0.268368 0.007190
C76   C     C_R   0.008071 0.609832 0.738149 -0.027445
C77   C     C_R   0.697782 0.009931 0.699012 0.190520
C78   C     C_R   0.571155 0.834038 0.008597 0.558910
C79   C     C_R   0.307866 0.965886 0.308982 0.184911
C80   C     C_R   0.010134 0.698756 0.697538 0.187532
C81   C     C_R   0.966106 0.309051 0.307890 0.184107
C82   C     C_R   0.701977 0.701118 0.007696 0.194603
C83   C     C_R   0.307122 0.307806 0.970782 0.182842
C84   C     C_R   0.594859 0.019572 0.595395 0.001850
C85   C     C_R   0.398755 0.992352 0.403219 0.001398
C86   C     C_R   0.021393 0.594638 0.594481 0.002691
C87   C     C_R   0.994147 0.402553 0.398350 0.003024
C88   C     C_R   0.599198 0.602536 0.009010 0.002999
C89   C     C_R   0.973041 0.435177 0.171246 0.559478
C90   C     C_R   0.404021 0.405862 0.983880 0.006263
Cu1   Cu    Cu3+1 0.995180 0.995180 0.424630 0.949554
Cu2   Cu    Cu3+1 0.004820 0.004820 0.575370 0.980519
Cu3   Cu    Cu3+1 0.995180 0.424630 0.995180 0.967728
Cu4   Cu    Cu3+1 0.004820 0.575370 0.004820 0.972798
Cu5   Cu    Cu3+1 0.424630 0.995180 0.995180 0.958862
Cu6   Cu    Cu3+1 0.575370 0.004820 0.004820 0.978673
H1    H     H_    0.421585 0.100708 0.755216 0.157851
H2    H     H_    0.502761 0.808181 0.895182 0.133757
H3    H     H_    0.909890 0.580961 0.243954 0.149575
H4    H     H_    0.937831 0.466084 0.797141 0.148666
H5    H     H_    0.298314 0.160735 0.673491 0.230949
H6    H     H_    0.289300 0.063854 0.751000 0.241982
H7    H     H_    0.591786 0.161347 0.239661 0.232996
H8    H     H_    0.665505 0.067110 0.216031 0.232077
H9    H     H_    0.162434 0.673369 0.298808 0.232188
H10   H     H_    0.065060 0.750556 0.289492 0.240130
H11   H     H_    0.163489 0.235635 0.592307 0.231571
H12   H     H_    0.518420 0.078896 0.196334 0.128722
H13   H     H_    0.068158 0.215161 0.665660 0.242596
H14   H     H_    0.607320 0.353467 0.221622 0.232413
H15   H     H_    0.695677 0.298045 0.155341 0.249169
H16   H     H_    0.235703 0.677899 0.009602 0.230399
H17   H     H_    0.268302 0.716268 0.898100 0.235092
H18   H     H_    0.325315 0.859645 0.701491 0.226991
H19   H     H_    0.245036 0.955709 0.708608 0.237330
H20   H     H_    0.753133 0.870283 0.382548 0.224820
H21   H     H_    0.772718 0.968345 0.316197 0.240465
H22   H     H_    0.687699 0.255370 0.969354 0.232643
H23   H     H_    0.101111 0.755262 0.421845 0.156209
H24   H     H_    0.661227 0.216499 0.080805 0.223548
H25   H     H_    0.485429 0.742011 0.782400 0.226156
H26   H     H_    0.389160 0.791315 0.846176 0.247347
H27   H     H_    0.861170 0.700957 0.325290 0.224319
H28   H     H_    0.957027 0.708023 0.244859 0.240700
H29   H     H_    0.873300 0.381300 0.751452 0.225330
H30   H     H_    0.971487 0.315112 0.771914 0.239829
H31   H     H_    0.796789 0.933406 0.746950 0.326450
H32   H     H_    0.238844 0.005698 0.227340 0.329730
H33   H     H_    0.932827 0.746612 0.796093 0.327695
H34   H     H_    0.080306 0.195100 0.518240 0.146758
H35   H     H_    0.004771 0.227653 0.239121 0.332580
H36   H     H_    0.751561 0.799815 0.936398 0.328539
H37   H     H_    0.239717 0.223533 0.023630 0.325399
H38   H     H_    0.737525 0.435834 0.124487 0.144125
H39   H     H_    0.239119 0.581406 0.911227 0.154736
H40   H     H_    0.244142 0.908679 0.581125 0.149545
H41   H     H_    0.798331 0.935832 0.467152 0.148231
H42   H     H_    0.537490 0.200316 0.057631 0.140088
N1    N     N_3   0.313288 0.092358 0.683081 -0.616013
N2    N     N_3   0.433928 0.729648 0.839976 -0.610854
N3    N     N_3   0.930299 0.683723 0.313131 -0.616026
N4    N     N_3   0.940948 0.357333 0.721417 -0.607036
N5    N     N_3   0.621975 0.094984 0.267924 -0.609546
N6    N     N_3   0.094022 0.682671 0.313473 -0.605245
N7    N     N_3   0.097440 0.265844 0.621699 -0.606293
N8    N     N_3   0.630553 0.339247 0.160278 -0.612850
N9    N     N_3   0.291498 0.680841 0.954666 -0.604692
N10   N     N_3   0.313398 0.928581 0.684414 -0.620491
N11   N     N_3   0.722515 0.937706 0.358589 -0.608194
N12   N     N_3   0.657006 0.274579 0.028369 -0.609940
O1    O     O_R   0.124540 0.978640 0.385460 -0.473853
O2    O     O_R   0.124540 0.385460 0.978640 -0.450375
O3    O     O_R   0.021360 0.875460 0.614540 -0.443254
O4    O     O_R   0.978640 0.124540 0.385460 -0.472829
O5    O     O_R   0.013780 0.867370 0.487190 -0.547717
O6    O     O_R   0.986220 0.132630 0.512810 -0.522044
O7    O     O_R   0.867370 0.487190 0.013780 -0.537862
O8    O     O_R   0.132630 0.512810 0.986220 -0.537953
O9    O     O_R   0.487190 0.013780 0.867370 -0.549147
O10   O     O_R   0.512810 0.986220 0.132630 -0.528612
O11   O     O_R   0.512810 0.132630 0.986220 -0.543203
O12   O     O_R   0.875460 0.021360 0.614540 -0.460158
O13   O     O_R   0.487190 0.867370 0.013780 -0.508284
O14   O     O_R   0.986220 0.512810 0.132630 -0.535632
O15   O     O_R   0.013780 0.487190 0.867370 -0.527214
O16   O     O_R   0.132630 0.986220 0.512810 -0.548817
O17   O     O_R   0.867370 0.013780 0.487190 -0.521826
O18   O     O_3   0.749325 0.988867 0.755144 -0.653208
O19   O     O_3   0.264878 0.947462 0.265577 -0.651782
O20   O     O_3   0.988350 0.754988 0.748990 -0.657813
O21   O     O_3   0.946728 0.266122 0.265244 -0.653397
O22   O     O_3   0.757915 0.751084 0.991456 -0.651977
O23   O     O_R   0.978640 0.385460 0.124540 -0.469580
O24   O     O_3   0.259892 0.261366 0.962836 -0.650177
O25   O     O_R   0.021360 0.614540 0.875460 -0.472903
O26   O     O_R   0.385460 0.124540 0.978640 -0.478732
O27   O     O_R   0.614540 0.875460 0.021360 -0.466498
O28   O     O_R   0.614540 0.021360 0.875460 -0.435615
O29   O     O_R   0.385460 0.978640 0.124540 -0.475339
O30   O     O_R   0.875460 0.614540 0.021360 -0.442813

loop_
_geom_bond_atom_site_label_1
_geom_bond_atom_site_label_2
_ccdc_geom_bond_type
C25   C31   A    
C21   C87   A    
C26   C32   A    
Cu3   Cu4   S    
C65   C79   A    
C22   C29   A    
C78   O27   A    
C64   C77   A    
C23   C69   S    
Cu5   Cu6   S    
C45   O9    A    
C80   O20   S    
C19   C31   A    
H9    N6    S    
C71   C79   A    
H5    N1    S    
C26   C44   A    
C66   C80   A    
C21   C36   A    
C77   O18   S    
C22   C35   A    
C12   C68   S    
H35   O21   S    
C9    C42   A    
C30   C35   A    
Cu5   O9    S    
C68   C81   A    
H25   N2    S    
Cu1   O17   S    
C52   C85   A    
C12   O6    A    
C37   C40   A    
C54   C87   A    
H11   N7    S    
C58   C71   A    
C54   C68   A    
C63   C76   A    
C56   C65   S    
C29   C33   A    
C60   C73   A    
Cu6   O11   S    
C19   C26   A    
C1    O5    A    
C55   C88   A    
H22   N12   S    
C35   C42   A    
C69   C82   A    
C14   H42   S    
H31   O18   S    
C49   N3    S    
C18   C84   A    
C7    C40   A    
Cu2   O3    S    
C9    C55   A    
C22   C88   A    
C89   O23   A    
C57   C70   A    
C11   C58   A    
H37   O24   S    
C67   O26   A    
C89   O14   A    
C27   C50   A    
C59   C72   A    
C9    H38   S    
Cu3   O15   S    
C78   O13   A    
Cu4   O8    S    
C5    C38   A    
C36   C41   A    
C18   C25   A    
C16   C62   A    
C15   C48   A    
C74   C82   A    
H20   N11   S    
C24   C33   A    
H24   N12   S    
Cu3   O7    S    
C82   O22   S    
C57   C90   A    
C48   N2    S    
C29   C48   A    
C33   C43   A    
C7    H23   S    
H33   O20   S    
C10   C57   A    
C8    C41   A    
Cu1   O4    S    
H15   N8    S    
C8    C54   A    
Cu1   Cu2   S    
C34   O2    A    
C75   C81   A    
H19   N10   S    
H30   N4    S    
C20   C86   A    
C13   H41   S    
C3    C71   S    
Cu5   O26   S    
Cu1   O5    S    
C72   C77   A    
C70   C83   A    
C61   C88   A    
Cu5   O13   S    
C2    O25   A    
C28   C49   A    
C67   O11   A    
C47   N12   S    
H29   N4    S    
C38   N1    S    
H27   N3    S    
C1    C66   S    
C15   C61   A    
H8    N5    S    
C11   C44   A    
Cu2   O6    S    
Cu4   O30   S    
C16   C49   A    
C1    O3    A    
C53   C66   A    
C2    O15   A    
C23   O30   A    
C53   C86   A    
C45   O28   A    
C67   C73   S    
C34   O8    A    
C30   C47   A    
Cu5   O29   S    
Cu6   O10   S    
C21   C28   A    
C39   N5    S    
C32   C38   A    
C40   N6    S    
C63   C86   A    
C8    H34   S    
Cu6   O27   S    
C4    O12   A    
H28   N3    S    
C18   C32   A    
C7    C53   A    
C15   H2    S    
C42   N8    S    
C58   C85   A    
Cu4   O14   S    
C4    C72   S    
C2    C76   S    
Cu2   O12   S    
C34   C70   S    
C10   C43   A    
H7    N5    S    
H13   N7    S    
C51   C64   A    
C76   C80   A    
C12   O4    A    
C19   C85   A    
C24   C90   A    
C17   C50   A    
H16   N9    S    
C16   H3    S    
H10   N6    S    
C14   C47   A    
C13   C59   A    
C20   C27   A    
C60   C90   A    
C61   C74   A    
C51   C84   A    
C14   C60   A    
C62   C87   A    
Cu4   O25   S    
C45   C64   S    
C3    O1    A    
C59   C84   A    
C4    O17   A    
C27   C36   A    
Cu6   O28   S    
C79   O19   S    
H26   N2    S    
C10   H39   S    
C56   O10   A    
C11   H40   S    
C17   C63   A    
Cu1   O1    S    
C20   C37   A    
H17   N9    S    
C13   C46   A    
C28   C37   A    
C55   C69   A    
C23   O7    A    
Cu3   O23   S    
C44   N10   S    
C31   C39   A    
C5    H1    S    
H6    N1    S    
C81   O21   S    
C62   C75   A    
C17   H4    S    
C24   C30   A    
C43   N9    S    
C75   C89   S    
H18   N10   S    
Cu2   O16   S    
H32   O19   S    
C46   N11   S    
C41   N7    S    
C74   C78   S    
C83   O24   S    
C6    H12   S    
C6    C39   A    
C5    C51   A    
Cu3   O2    S    
H21   N11   S    
H36   O22   S    
C6    C52   A    
H14   N8    S    
C25   C46   A    
C73   C83   A    
C52   C65   A    
C50   N4    S    
C3    O16   A    
C56   O29   A    
