data_str_m12_o4_o10_f0_bcu.sym.6
_audit_creation_date              2012-12-11T16:45:52-0500
_audit_creation_method            fapswitch 2.2
_symmetry_space_group_name_H-M    P1
_symmetry_Int_Tables_number       1
_space_group_crystal_system       triclinic
_cell_length_a                    19.891295
_cell_length_b                    17.042097
_cell_length_c                    15.327803
_cell_angle_alpha                 89.999979
_cell_angle_beta                  52.4799
_cell_angle_gamma                 89.999932
_cell_volume                      4121.12423537

loop_
_atom_site_label
_atom_site_type_symbol
_atom_type_description
_atom_site_fract_x
_atom_site_fract_y
_atom_site_fract_z
_atom_type_partial_charge
C1    C     C_R   0.842168 0.675617 0.042761 -0.109599
C2    C     C_R   0.145937 0.309331 0.075816 -0.012895
C3    C     C_R   0.354063 0.809331 0.924185 -0.012894
C4    C     C_R   0.645937 0.809331 0.075816 -0.012895
C5    C     C_R   0.887013 0.684881 0.305921 0.078392
C6    C     C_R   0.112987 0.684881 0.694079 0.078392
C7    C     C_R   0.387012 0.184881 0.305921 0.078392
C8    C     C_R   0.612987 0.184881 0.694079 0.078392
C9    C     C_R   0.855568 0.717400 0.485168 0.165507
C10   C     C_R   0.144432 0.717400 0.514832 0.165507
C11   C     C_R   0.355568 0.217400 0.485168 0.165507
C12   C     C_R   0.157831 0.675617 0.957239 -0.109598
C13   C     C_R   0.644432 0.217400 0.514832 0.165507
C14   C     C_R   0.870397 0.742291 0.387733 0.032667
C15   C     C_R   0.129603 0.742291 0.612267 0.032667
C16   C     C_R   0.370397 0.242291 0.387733 0.032667
C17   C     C_R   0.629603 0.242291 0.612267 0.032667
C18   C     C_R   0.355720 0.321754 0.379372 -0.205521
C19   C     C_R   0.644280 0.321754 0.620628 -0.205521
C20   C     C_R   0.855720 0.821754 0.379372 -0.205521
C21   C     C_R   0.144280 0.821754 0.620628 -0.205521
C22   C     C_R   0.307221 0.367818 0.474567 -0.198838
C23   C     C_R   0.342168 0.175617 0.042761 -0.109599
C24   C     C_R   0.692779 0.367818 0.525433 -0.198837
C25   C     C_R   0.807221 0.867818 0.474567 -0.198839
C26   C     C_R   0.192779 0.867818 0.525433 -0.198838
C27   C     C_R   0.272709 0.333803 0.577692 0.038990
C28   C     C_R   0.727292 0.333803 0.422308 0.038991
C29   C     C_R   0.772709 0.833803 0.577692 0.038990
C30   C     C_R   0.227292 0.833802 0.422308 0.038990
C31   C     C_R   0.806901 0.762319 0.579197 0.152904
C32   C     C_R   0.193100 0.762319 0.420803 0.152904
C33   C     C_R   0.306901 0.262320 0.579197 0.152904
C34   C     C_R   0.657831 0.175617 0.957240 -0.109598
C35   C     C_R   0.693100 0.262319 0.420803 0.152904
C36   C     C_3   0.766098 0.691025 0.650631 -0.503040
C37   C     C_3   0.233903 0.691025 0.349369 -0.503039
C38   C     C_3   0.266098 0.191025 0.650631 -0.503038
C39   C     C_3   0.733903 0.191025 0.349369 -0.503038
C40   C     C_R   0.848151 0.332044 0.218515 -0.162411
C41   C     C_R   0.151850 0.332044 0.781485 -0.162421
C42   C     C_R   0.348151 0.832044 0.218515 -0.162413
C43   C     C_R   0.651849 0.832044 0.781485 -0.162417
C44   C     C_3   0.819826 0.642172 0.547907 -0.536175
C45   C     C_R   0.806733 0.363237 0.322949 0.054004
C46   C     C_3   0.180174 0.642172 0.452093 -0.536174
C47   C     C_3   0.319826 0.142173 0.547907 -0.536175
C48   C     C_3   0.680174 0.142172 0.452093 -0.536176
C49   C     C_2   0.776221 0.189219 0.970527 -0.220187
C50   C     C_2   0.223776 0.189217 0.029476 -0.220187
C51   C     C_2   0.276223 0.689218 0.970526 -0.220186
C52   C     C_2   0.723776 0.689217 0.029476 -0.220188
C53   C     C_2   0.310665 0.752171 0.904858 -0.188736
C54   C     C_2   0.689334 0.752170 0.095144 -0.188733
C55   C     C_2   0.810664 0.252171 0.904858 -0.188741
C56   C     C_R   0.193267 0.363238 0.677052 0.054009
C57   C     C_2   0.189334 0.252170 0.095144 -0.188734
C58   C     C_R   0.868085 0.387665 0.893901 -0.254016
C59   C     C_R   0.131915 0.387665 0.106099 -0.254018
C60   C     C_R   0.368085 0.887665 0.893901 -0.254018
C61   C     C_R   0.631915 0.887665 0.106099 -0.254018
C62   C     C_R   0.907490 0.607453 0.303473 -0.156834
C63   C     C_R   0.092510 0.607453 0.696527 -0.156834
C64   C     C_R   0.407490 0.107453 0.303473 -0.156834
C65   C     C_R   0.592510 0.107453 0.696527 -0.156834
C66   C     C_R   0.883463 0.297249 0.984466 0.572805
C67   C     C_R   0.306733 0.863237 0.322949 0.054005
C68   C     C_R   0.116537 0.297249 0.015534 0.572803
C69   C     C_R   0.383463 0.797249 0.984466 0.572806
C70   C     C_R   0.616537 0.797249 0.015534 0.572805
C71   C     C_R   0.896378 0.698365 0.209917 -0.134519
C72   C     C_R   0.103622 0.698365 0.790083 -0.134519
C73   C     C_R   0.396378 0.198365 0.209917 -0.134519
C74   C     C_R   0.603622 0.198365 0.790083 -0.134518
C75   C     C_R   0.858294 0.422022 0.316381 -0.123645
C76   C     C_R   0.141706 0.422023 0.683619 -0.123643
C77   C     C_R   0.358294 0.922022 0.316381 -0.123645
C78   C     C_R   0.693267 0.863237 0.677051 0.054008
C79   C     C_R   0.641706 0.922022 0.683619 -0.123644
C80   C     C_R   0.832967 0.582750 0.945941 -0.147345
C81   C     C_R   0.167033 0.582750 0.054059 -0.147345
C82   C     C_R   0.332967 0.082750 0.945941 -0.147345
C83   C     C_R   0.667032 0.082750 0.054060 -0.147345
C84   C     C_R   0.793051 0.647593 0.013857 0.136204
C85   C     C_R   0.206949 0.647594 0.986144 0.136204
C86   C     C_R   0.293051 0.147593 0.013857 0.136204
C87   C     C_R   0.706948 0.147594 0.986145 0.136205
C88   C     C_3   0.972549 0.191415 0.897999 -0.214919
C89   C     C_R   0.854063 0.309331 0.924184 -0.012894
C90   C     C_3   0.027447 0.191418 0.102010 -0.214908
C91   C     C_3   0.472551 0.691416 0.897995 -0.214921
C92   C     C_3   0.527447 0.691418 0.102009 -0.214915
H1    H     H_    0.833313 0.727956 0.088372 0.089360
H2    H     H_    0.217009 0.683165 0.292826 0.194923
H3    H     H_    0.282992 0.183165 0.707174 0.194922
H4    H     H_    0.717009 0.183165 0.292826 0.194923
H5    H     H_    0.697429 0.685582 0.689566 0.198636
H6    H     H_    0.302571 0.685581 0.310435 0.198635
H7    H     H_    0.197430 0.185582 0.689566 0.198636
H8    H     H_    0.802571 0.185581 0.310434 0.198635
H9    H     H_    0.868078 0.606692 0.544969 0.189289
H10   H     H_    0.131923 0.606692 0.455030 0.189289
H11   H     H_    0.368078 0.106692 0.544969 0.189289
H12   H     H_    0.166687 0.727956 0.911629 0.089360
H13   H     H_    0.631922 0.106692 0.455030 0.189289
H14   H     H_    0.781374 0.609419 0.529563 0.199348
H15   H     H_    0.218627 0.609419 0.470438 0.199348
H16   H     H_    0.281374 0.109419 0.529563 0.199348
H17   H     H_    0.718626 0.109419 0.470437 0.199348
H18   H     H_    0.788873 0.174095 0.027840 0.178882
H19   H     H_    0.211123 0.174093 0.972164 0.178878
H20   H     H_    0.288875 0.674094 0.027838 0.178880
H21   H     H_    0.711123 0.674093 0.972164 0.178879
H22   H     H_    0.296204 0.767908 0.849352 0.136893
H23   H     H_    0.333312 0.227956 0.088372 0.089360
H24   H     H_    0.703795 0.767907 0.150649 0.136892
H25   H     H_    0.796204 0.267908 0.849352 0.136894
H26   H     H_    0.203795 0.267907 0.150649 0.136893
H27   H     H_    0.824612 0.288781 0.192262 0.144169
H28   H     H_    0.175388 0.288782 0.807738 0.144165
H29   H     H_    0.324612 0.788781 0.192262 0.144167
H30   H     H_    0.675388 0.788781 0.807738 0.144165
H31   H     H_    0.861819 0.415138 0.835578 0.130990
H32   H     H_    0.138181 0.415137 0.164422 0.130990
H33   H     H_    0.361819 0.915138 0.835578 0.130990
H34   H     H_    0.666686 0.227957 0.911630 0.089360
H35   H     H_    0.638181 0.915138 0.164422 0.130990
H36   H     H_    0.922169 0.579942 0.353475 0.102547
H37   H     H_    0.077831 0.579942 0.646524 0.102547
H38   H     H_    0.422169 0.079942 0.353475 0.102547
H39   H     H_    0.577831 0.079942 0.646524 0.102547
H40   H     H_    0.897956 0.754821 0.176646 0.083983
H41   H     H_    0.102044 0.754821 0.823354 0.083983
H42   H     H_    0.397956 0.254821 0.176646 0.083983
H43   H     H_    0.602044 0.254821 0.823354 0.083983
H44   H     H_    0.845797 0.459048 0.381920 0.094321
H45   H     H_    0.288014 0.425599 0.468255 0.125706
H46   H     H_    0.154203 0.459048 0.618080 0.094320
H47   H     H_    0.345797 0.959048 0.381920 0.094321
H48   H     H_    0.654203 0.959048 0.618080 0.094320
H49   H     H_    0.813803 0.549700 0.904205 0.101039
H50   H     H_    0.186197 0.549701 0.095795 0.101039
H51   H     H_    0.313803 0.049700 0.904205 0.101039
H52   H     H_    0.686196 0.049701 0.095796 0.101039
H53   H     H_    0.371956 0.345726 0.303400 0.125525
H54   H     H_    0.628043 0.345726 0.696600 0.125525
H55   H     H_    0.871956 0.845726 0.303400 0.125525
H56   H     H_    0.711986 0.425599 0.531745 0.125706
H57   H     H_    0.128043 0.845726 0.696600 0.125525
H58   H     H_    0.017360 0.234266 0.833143 0.136459
H59   H     H_    0.942867 0.155889 0.869117 0.143376
H60   H     H_    0.010434 0.150869 0.909039 0.179787
H61   H     H_    0.989544 0.150888 0.090980 0.179796
H62   H     H_    0.982650 0.234272 0.166874 0.136442
H63   H     H_    0.057131 0.155876 0.130875 0.143378
H64   H     H_    0.517354 0.734269 0.833134 0.136451
H65   H     H_    0.442869 0.655882 0.869122 0.143378
H66   H     H_    0.510446 0.650880 0.909030 0.179795
H67   H     H_    0.788014 0.925599 0.468255 0.125706
H68   H     H_    0.489545 0.650888 0.090979 0.179798
H69   H     H_    0.482650 0.734272 0.166874 0.136444
H70   H     H_    0.557131 0.655876 0.130875 0.143379
H71   H     H_    0.211986 0.925599 0.531745 0.125706
H72   H     H_    0.782992 0.683165 0.707174 0.194922
N1    N     N_R   0.908660 0.628630 0.995840 -0.046172
N2    N     N_R   0.096530 0.421430 0.063580 -0.065683
N3    N     N_R   0.403470 0.921430 0.936420 -0.065684
N4    N     N_R   0.596530 0.921430 0.063580 -0.065683
N5    N     N_R   0.927500 0.575670 0.211370 -0.036949
N6    N     N_R   0.072500 0.575670 0.788630 -0.036949
N7    N     N_R   0.427500 0.075670 0.211370 -0.036949
N8    N     N_R   0.572500 0.075670 0.788630 -0.036949
N9    N     N_R   0.908660 0.365680 0.995820 -0.090201
N10   N     N_R   0.091340 0.365680 0.004180 -0.090200
N11   N     N_R   0.408660 0.865680 0.995820 -0.090200
N12   N     N_R   0.091340 0.628630 0.004160 -0.046172
N13   N     N_R   0.591340 0.865680 0.004180 -0.090200
N14   N     N_R   0.922310 0.631420 0.151980 -0.039152
N15   N     N_R   0.077690 0.631420 0.848020 -0.039152
N16   N     N_R   0.422310 0.131420 0.151980 -0.039152
N17   N     N_R   0.577690 0.131420 0.848020 -0.039152
N18   N     N_R   0.927500 0.426330 0.211360 -0.044740
N19   N     N_R   0.072500 0.426330 0.788640 -0.044739
N20   N     N_R   0.427500 0.926330 0.211360 -0.044740
N21   N     N_R   0.572500 0.926330 0.788640 -0.044739
N22   N     N_R   0.903470 0.570760 0.936440 -0.038227
N23   N     N_R   0.408660 0.128630 0.995840 -0.046172
N24   N     N_R   0.096530 0.570760 0.063560 -0.038227
N25   N     N_R   0.403470 0.070760 0.936440 -0.038227
N26   N     N_R   0.596530 0.070760 0.063560 -0.038227
N27   N     N_R   0.591340 0.128630 0.004160 -0.046172
N28   N     N_R   0.922310 0.368460 0.151950 -0.039321
N29   N     N_R   0.077690 0.368460 0.848050 -0.039324
N30   N     N_R   0.422310 0.868460 0.151950 -0.039322
N31   N     N_R   0.577690 0.868460 0.848050 -0.039323
N32   N     N_R   0.903470 0.421430 0.936420 -0.065684
Ni1   Ni    Ni4+2 0.000000 0.630300 0.000000 0.204234
Ni2   Ni    Ni4+2 0.500000 0.130300 0.000000 0.204234
Ni3   Ni    Ni4+2 0.000000 0.369700 0.000000 0.267868
Ni4   Ni    Ni4+2 0.500000 0.869700 0.000000 0.267868
Ni5   Ni    Ni4+2 0.988090 0.497570 0.863760 0.200873
Ni6   Ni    Ni4+2 0.011910 0.497570 0.136240 0.200873
Ni7   Ni    Ni4+2 0.488090 0.997570 0.863760 0.200873
Ni8   Ni    Ni4+2 0.511910 0.997570 0.136240 0.200873
O1    O     O_3   0.910024 0.227083 0.000320 -0.654502
O2    O     O_3   0.089971 0.227083 0.999686 -0.654496
O3    O     O_3   0.410026 0.727083 0.000317 -0.654501
O4    O     O_3   0.589972 0.727083 0.999686 -0.654498

loop_
_geom_bond_atom_site_label_1
_geom_bond_atom_site_label_2
_ccdc_geom_bond_type
C92   H69   S    
C83   C87   A    
C21   C26   A    
C51   H20   S    
N20   Ni8   S    
N9    Ni3   S    
C49   C87   S    
C83   N26   A    
C11   C47   S    
C67   C77   A    
N27   Ni2   S    
C88   O1    S    
C80   C84   A    
C18   H53   S    
C51   C85   S    
C4    C70   A    
C72   H41   S    
C2    C57   S    
C7    C73   A    
C74   N17   A    
C52   H21   S    
N25   Ni7   S    
C43   C78   A    
C6    C72   A    
C46   H10   S    
C22   H45   S    
C58   H31   S    
N26   N27   A    
C12   C85   A    
C56   C76   A    
C75   H44   S    
C60   H33   S    
C3    C69   A    
C12   H12   S    
C2    C68   A    
C10   C15   A    
C83   H52   S    
N23   N25   A    
C20   C25   A    
C70   O4    S    
N4    N13   A    
C26   H71   S    
C77   N20   A    
C43   N31   A    
N2    Ni6   S    
N28   Ni3   S    
C58   N32   A    
N7    Ni8   S    
C42   N30   A    
C91   H66   S    
C41   N29   A    
C17   C19   A    
C6    C15   S    
C90   O2    S    
C73   N16   A    
C77   H47   S    
N8    N17   A    
N30   Ni4   S    
C29   C78   S    
C28   C35   A    
C9    C31   A    
N6    Ni5   S    
C23   C86   A    
C54   H24   S    
C38   H3    S    
C10   C46   S    
C5    C62   A    
N32   Ni5   S    
C66   N9    A    
C81   H50   S    
C36   H5    S    
C45   C75   A    
C21   H57   S    
C90   H62   S    
C76   N19   A    
N12   Ni1   S    
C81   N24   A    
C30   C67   S    
C12   N12   A    
C3    C60   A    
C48   H17   S    
C71   H40   S    
C8    C65   A    
C18   C22   A    
C46   H15   S    
C88   H60   S    
N1    N22   A    
N18   N28   A    
N21   N31   A    
N17   Ni2   S    
C37   H6    S    
C65   H39   S    
C52   C54   D    
N12   N24   A    
C66   C89   A    
C25   C29   A    
C40   C45   A    
N11   Ni4   S    
C28   C45   S    
N2    N10   A    
C19   H54   S    
C47   H11   S    
C65   N8    A    
N19   Ni5   S    
C14   C20   A    
C11   C33   A    
C24   H56   S    
C66   O1    S    
C68   N10   A    
C78   C79   A    
C82   H51   S    
C63   N6    A    
N15   Ni1   S    
C82   C86   A    
C4    C61   A    
N13   Ni4   S    
C27   C33   A    
N4    Ni8   S    
N22   Ni5   S    
C1    C84   A    
C6    C63   A    
N8    Ni7   S    
C35   C39   S    
C9    C14   A    
C41   C56   A    
C25   H67   S    
C92   O4    S    
N1    Ni1   S    
C11   C16   A    
C48   H13   S    
C40   N28   A    
C1    N1    A    
C34   H34   S    
C74   H43   S    
C76   H46   S    
N9    N32   A    
C8    C74   A    
N10   Ni3   S    
C20   H55   S    
C61   H35   S    
C16   C18   A    
C32   C37   S    
C27   C56   S    
C90   H61   S    
C43   H30   S    
C5    C14   S    
C59   N2    A    
C1    H1    S    
C7    C16   S    
C2    C59   A    
N14   Ni1   S    
C64   H38   S    
C47   H16   S    
N3    Ni7   S    
C22   C27   A    
C82   N25   A    
C68   O2    S    
C42   C67   A    
C88   H59   S    
N29   Ni3   S    
N7    N16   A    
C36   C44   S    
N5    N14   A    
C53   H22   S    
C71   N14   A    
N3    N11   A    
N31   Ni4   S    
C55   H25   S    
C92   H70   S    
C59   H32   S    
C62   N5    A    
N5    Ni6   S    
C34   N27   A    
C9    C44   S    
C7    C64   A    
C79   N21   A    
C4    C54   S    
C62   H36   S    
N18   Ni6   S    
C50   C57   D    
C88   H58   S    
C24   C28   A    
C38   H7    S    
C39   C48   S    
C60   N3    A    
C13   C48   S    
C91   O3    S    
C44   H9    S    
C70   N13   A    
C13   C35   A    
C44   H14   S    
C8    C17   S    
C23   N23   A    
C38   C47   S    
N6    N15   A    
C92   H68   S    
C61   N4    A    
N21   Ni7   S    
C64   N7    A    
C52   C84   S    
C19   C24   A    
C90   H63   S    
C91   H64   S    
C29   C31   A    
C49   C55   D    
C30   C32   A    
C3    C53   S    
N26   Ni8   S    
C39   H8    S    
C69   O3    S    
N20   N30   A    
N23   Ni2   S    
N24   Ni6   S    
C50   H19   S    
N19   N29   A    
C37   H2    S    
C79   H48   S    
C34   C87   A    
C63   H37   S    
C41   H28   S    
C55   C89   S    
C58   C89   A    
C39   H4    S    
C91   H65   S    
N16   Ni2   S    
C50   C86   S    
C23   H23   S    
C13   C17   A    
C10   C32   A    
C15   C21   A    
C40   H27   S    
C73   H42   S    
C5    C71   A    
C80   H49   S    
C36   H72   S    
C80   N22   A    
C31   C36   S    
C57   H26   S    
C33   C38   S    
C69   N11   A    
C72   N15   A    
C51   C53   D    
C37   C46   S    
C75   N18   A    
C81   C85   A    
C42   H29   S    
C49   H18   S    
C26   C30   A    
