data_str_m4_o11_o15_f0_acs.sym.115
_audit_creation_date              2012-12-11T14:03:49-0500
_audit_creation_method            fapswitch 2.2
_symmetry_space_group_name_H-M    P1
_symmetry_Int_Tables_number       1
_space_group_crystal_system       triclinic
_cell_length_a                    19.142347
_cell_length_b                    10.962391
_cell_length_c                    18.849322
_cell_angle_alpha                 89.977311
_cell_angle_beta                  88.974399
_cell_angle_gamma                 90.033324
_cell_volume                      3954.81812748

loop_
_atom_site_label
_atom_site_type_symbol
_atom_type_description
_atom_site_fract_x
_atom_site_fract_y
_atom_site_fract_z
_atom_type_partial_charge
C1    C     C_R   0.241258 0.464477 0.648448 0.544323
C2    C     C_R   0.759010 0.464495 0.351741 0.543675
C3    C     C_R   0.741258 0.964477 0.648448 0.544256
C4    C     C_R   0.259010 0.964496 0.351741 0.543727
C5    C     C_2   0.261045 0.784349 0.523400 -0.149558
C6    C     C_2   0.741955 0.782733 0.477604 -0.154058
C7    C     C_2   0.761045 0.284349 0.523400 -0.149555
C8    C     C_2   0.241955 0.282733 0.477604 -0.154062
C9    C     C_R   0.961276 0.656651 0.438662 -0.039123
C10   C     C_R   0.042825 0.660381 0.561665 -0.042733
C11   C     C_R   0.461276 0.156651 0.438662 -0.039121
C12   C     C_R   0.542825 0.160381 0.561665 -0.042736
C13   C     C_R   0.941934 0.877157 0.453820 -0.100446
C14   C     C_R   0.037163 0.887956 0.559619 -0.087805
C15   C     C_R   0.441934 0.377157 0.453820 -0.100445
C16   C     C_R   0.537164 0.387956 0.559619 -0.087804
C17   C     C_R   0.952486 0.986722 0.488420 -0.135256
C18   C     C_R   0.002425 0.993353 0.539967 -0.121926
C19   C     C_R   0.452487 0.486722 0.488419 -0.135257
C20   C     C_R   0.502426 0.493354 0.539966 -0.121925
C21   C     C_R   0.019226 0.772043 0.532127 0.015456
C22   C     C_R   0.975119 0.768756 0.473223 0.011501
C23   C     C_R   0.519226 0.272043 0.532127 0.015456
C24   C     C_R   0.475120 0.268756 0.473223 0.011502
C25   C     C_R   0.031164 0.550299 0.524687 0.008862
C26   C     C_R   0.980937 0.546941 0.472056 0.013875
C27   C     C_R   0.531165 0.050299 0.524687 0.008857
C28   C     C_R   0.480938 0.046941 0.472056 0.013879
C29   C     C_R   0.067182 0.441644 0.540055 -0.060541
C30   C     C_R   0.954125 0.432302 0.451990 -0.048491
C31   C     C_R   0.567183 0.941645 0.540055 -0.060539
C32   C     C_R   0.454126 0.932302 0.451990 -0.048492
C33   C     C_R   0.047155 0.330494 0.510932 -0.108539
C34   C     C_R   0.988675 0.325393 0.468980 -0.105740
C35   C     C_R   0.547157 0.830494 0.510931 -0.108534
C36   C     C_R   0.488677 0.825393 0.468979 -0.105745
C37   C     C_2   0.241180 0.904183 0.924722 -0.086335
C38   C     C_2   0.759142 0.903119 0.075010 -0.088819
C39   C     C_2   0.741227 0.404254 0.924682 -0.086272
C40   C     C_2   0.259190 0.403057 0.074973 -0.088864
C41   C     C_2   0.244138 0.880660 0.092120 -0.005612
C42   C     C_2   0.756043 0.881596 0.908251 -0.009695
C43   C     C_2   0.744041 0.380724 0.092159 -0.005442
C44   C     C_2   0.255953 0.381528 0.908289 -0.009796
C45   C     C_R   0.211827 0.834315 0.639989 0.531395
C46   C     C_R   0.786984 0.836260 0.360084 0.526726
C47   C     C_R   0.711827 0.334314 0.639989 0.531389
C48   C     C_R   0.286984 0.336260 0.360084 0.526732
C49   C     C_2   0.195138 0.909427 0.043567 0.021801
C50   C     C_2   0.805358 0.910981 0.956470 0.020882
C51   C     C_2   0.695200 0.409796 0.043500 0.021864
C52   C     C_2   0.305422 0.410629 0.956404 0.020801
C53   C     C_2   0.200091 0.852338 0.974252 0.348540
C54   C     C_2   0.801397 0.853484 0.025713 0.348552
C55   C     C_2   0.700127 0.352537 0.974243 0.348477
C56   C     C_2   0.301436 0.353299 0.025705 0.348623
C57   C     C_2   0.009731 0.655505 0.926419 -0.039074
C58   C     C_2   0.009680 0.664063 0.082992 -0.056522
C59   C     C_2   0.509750 0.155505 0.926426 -0.038965
C60   C     C_2   0.509697 0.164070 0.082999 -0.056572
C61   C     C_2   0.022381 0.563944 0.044831 -0.142065
C62   C     C_2   0.035838 0.568649 0.969052 -0.087872
C63   C     C_2   0.522408 0.063954 0.044838 -0.142101
C64   C     C_2   0.535875 0.068668 0.969060 -0.087908
C65   C     C_R   0.061943 0.651334 0.637309 0.513097
C66   C     C_R   0.939548 0.650824 0.363231 0.507987
C67   C     C_R   0.561943 0.151334 0.637309 0.513107
C68   C     C_R   0.439549 0.150824 0.363231 0.507981
C69   C     C_R   0.238983 0.464548 0.850181 0.574135
C70   C     C_R   0.760959 0.464314 0.149977 0.575193
C71   C     C_R   0.738979 0.964614 0.850197 0.574013
C72   C     C_R   0.260959 0.964259 0.149988 0.575277
C73   C     C_R   0.227191 0.874055 0.852237 0.588278
C74   C     C_R   0.772956 0.873687 0.147593 0.587017
C75   C     C_R   0.727198 0.374063 0.852225 0.588187
C76   C     C_R   0.272963 0.373678 0.147581 0.587091
C77   C     C_R   0.031045 0.651656 0.852325 0.584209
C78   C     C_R   0.972257 0.652849 0.150098 0.596291
C79   C     C_R   0.531051 0.151655 0.852328 0.584144
C80   C     C_R   0.472260 0.152850 0.150099 0.596349
C81   C     C_2   0.230351 0.865920 0.567350 -0.160338
C82   C     C_2   0.766504 0.868401 0.432166 -0.165134
C83   C     C_2   0.730351 0.365920 0.567350 -0.160340
C84   C     C_2   0.266504 0.368401 0.432165 -0.165135
C85   C     C_2   0.237624 0.897808 0.415360 -0.064930
C86   C     C_2   0.763011 0.901386 0.583891 -0.064525
C87   C     C_2   0.737624 0.397807 0.415360 -0.064965
C88   C     C_2   0.263011 0.401387 0.583891 -0.064485
C89   C     C_2   0.276386 0.814475 0.448423 0.320173
C90   C     C_2   0.728091 0.811000 0.553150 0.314721
C91   C     C_2   0.776386 0.314474 0.448423 0.320161
C92   C     C_2   0.228091 0.311001 0.553150 0.314737
Cr1   Cr    Cr6+3 0.113970 0.508630 0.747920 1.044541
Cr2   Cr    Cr6+3 0.886030 0.508630 0.252080 1.044229
Cr3   Cr    Cr6+3 0.613970 0.008630 0.747920 1.044625
Cr4   Cr    Cr6+3 0.386030 0.008630 0.252080 1.044151
Cr5   Cr    Cr6+3 0.269200 0.666740 0.749850 1.030759
Cr6   Cr    Cr6+3 0.730800 0.666740 0.250150 1.028282
Cr7   Cr    Cr6+3 0.769200 0.166740 0.749850 1.030655
Cr8   Cr    Cr6+3 0.230800 0.166740 0.250150 1.028378
Cr9   Cr    Cr6+3 0.112300 0.820070 0.749800 1.037703
Cr10  Cr    Cr6+3 0.887700 0.820070 0.250200 1.041722
Cr11  Cr    Cr6+3 0.612300 0.320070 0.749800 1.037698
Cr12  Cr    Cr6+3 0.387700 0.320070 0.250200 1.041725
H1    H     H_    0.276447 0.978537 0.937161 0.039283
H2    H     H_    0.722073 0.974561 0.062273 0.035897
H3    H     H_    0.776520 0.478597 0.937071 0.039174
H4    H     H_    0.222154 0.474528 0.062190 0.036010
H5    H     H_    0.018449 0.473618 0.068357 0.135233
H6    H     H_    0.066181 0.493033 0.947466 0.145651
H7    H     H_    0.518470 0.973627 0.068361 0.135220
H8    H     H_    0.566230 0.993066 0.947473 0.145668
H9    H     H_    0.017033 0.754486 0.060436 0.126098
H10   H     H_    0.979910 0.732575 0.946683 0.117934
H11   H     H_    0.517063 0.254497 0.060446 0.126209
H12   H     H_    0.479917 0.232560 0.946690 0.117848
H13   H     H_    0.277123 0.695810 0.543215 0.149363
H14   H     H_    0.731116 0.691014 0.458940 0.147416
H15   H     H_    0.777123 0.195809 0.543214 0.149368
H16   H     H_    0.231115 0.191014 0.458939 0.147412
H17   H     H_    0.188583 0.927666 0.439544 0.059101
H18   H     H_    0.809171 0.938882 0.557495 0.062156
H19   H     H_    0.688582 0.427666 0.439544 0.059112
H20   H     H_    0.309171 0.438882 0.557494 0.062141
H21   H     H_    0.216097 0.956528 0.549415 0.133720
H22   H     H_    0.775791 0.961712 0.448812 0.124946
H23   H     H_    0.716096 0.456528 0.549415 0.133718
H24   H     H_    0.275792 0.461712 0.448812 0.124948
H25   H     H_    0.921656 0.065436 0.474790 0.155276
H26   H     H_    0.013536 0.079109 0.565694 0.132312
H27   H     H_    0.421657 0.565436 0.474789 0.155275
H28   H     H_    0.513537 0.579109 0.565694 0.132318
H29   H     H_    0.904197 0.876335 0.415288 0.167388
H30   H     H_    0.077789 0.900059 0.596066 0.175206
H31   H     H_    0.404197 0.376335 0.415288 0.167383
H32   H     H_    0.577789 0.400059 0.596066 0.175210
H33   H     H_    0.908346 0.425787 0.420182 0.206412
H34   H     H_    0.111533 0.443611 0.573329 0.180415
H35   H     H_    0.408347 0.925787 0.420181 0.206411
H36   H     H_    0.611534 0.943611 0.573329 0.180416
H37   H     H_    0.075840 0.248134 0.521718 0.181763
H38   H     H_    0.971707 0.239983 0.447050 0.152902
H39   H     H_    0.575842 0.748135 0.521717 0.181765
H40   H     H_    0.471709 0.739983 0.447049 0.152896
O1    O     O_R   0.043230 0.549300 0.667990 -0.492671
O2    O     O_R   0.956770 0.549300 0.332010 -0.508595
O3    O     O_R   0.543230 0.049300 0.667990 -0.492643
O4    O     O_R   0.456770 0.049300 0.332010 -0.508616
O5    O     O_R   0.262920 0.788600 0.824420 -0.483104
O6    O     O_R   0.737080 0.788600 0.175580 -0.486552
O7    O     O_R   0.762920 0.288600 0.824420 -0.483218
O8    O     O_R   0.237080 0.288600 0.175580 -0.486436
O9    O     O_R   0.167530 0.905110 0.830340 -0.499005
O10   O     O_R   0.832470 0.905110 0.169660 -0.496493
O11   O     O_R   0.667530 0.405110 0.830340 -0.498966
O12   O     O_R   0.332470 0.405110 0.169660 -0.496549
O13   O     O_R   0.054010 0.748440 0.822860 -0.463656
O14   O     O_R   0.945990 0.748440 0.177140 -0.465323
O15   O     O_R   0.554010 0.248440 0.822860 -0.463674
O16   O     O_R   0.445990 0.248440 0.177140 -0.465316
O17   O     O_3   0.165160 0.665150 0.749190 -0.285737
O18   O     O_3   0.834840 0.665150 0.250810 -0.281277
O19   O     O_3   0.665160 0.165150 0.749190 -0.285785
O20   O     O_3   0.334840 0.165150 0.250810 -0.281233
O21   O     O_R   0.178620 0.457600 0.674100 -0.490507
O22   O     O_R   0.821380 0.457600 0.325900 -0.485876
O23   O     O_R   0.678620 0.957600 0.674100 -0.490457
O24   O     O_R   0.321380 0.957600 0.325900 -0.485919
O25   O     O_R   0.284680 0.542100 0.669460 -0.536096
O26   O     O_R   0.715320 0.542100 0.330540 -0.535651
O27   O     O_R   0.784680 0.042100 0.669460 -0.536086
O28   O     O_R   0.215320 0.042100 0.330540 -0.535662
O29   O     O_R   0.262860 0.790390 0.676650 -0.477217
O30   O     O_R   0.737140 0.790390 0.323350 -0.478035
O31   O     O_R   0.762860 0.290390 0.676650 -0.477224
O32   O     O_R   0.237140 0.290390 0.323350 -0.478029
O33   O     O_R   0.167460 0.907030 0.670940 -0.515857
O34   O     O_R   0.832540 0.907030 0.329060 -0.517130
O35   O     O_R   0.667460 0.407030 0.670940 -0.515891
O36   O     O_R   0.332540 0.407030 0.329060 -0.517099
O37   O     O_R   0.053950 0.750220 0.675100 -0.518953
O38   O     O_R   0.946050 0.750220 0.324900 -0.512560
O39   O     O_R   0.553950 0.250220 0.675100 -0.518941
O40   O     O_R   0.446050 0.250220 0.324900 -0.512568
O41   O     O_R   0.043300 0.547370 0.827390 -0.518546
O42   O     O_R   0.956700 0.547370 0.172610 -0.511627
O43   O     O_R   0.543300 0.047370 0.827390 -0.518540
O44   O     O_R   0.456700 0.047370 0.172610 -0.511622
O45   O     O_R   0.178690 0.455820 0.821860 -0.496301
O46   O     O_R   0.821310 0.455820 0.178140 -0.489350
O47   O     O_R   0.678690 0.955820 0.821860 -0.496254
O48   O     O_R   0.321310 0.955820 0.178140 -0.489407
O49   O     O_R   0.284750 0.540170 0.828860 -0.529027
O50   O     O_R   0.715250 0.540170 0.171140 -0.531483
O51   O     O_R   0.784750 0.040170 0.828860 -0.529075
O52   O     O_R   0.215250 0.040170 0.171140 -0.531422
F1    F     F_    0.329554 0.756157 0.413837 -0.663307
F2    F     F_    0.680636 0.744189 0.591026 -0.655722
F3    F     F_    0.829553 0.256156 0.413836 -0.663300
F4    F     F_    0.180635 0.244191 0.591026 -0.655725
F5    F     F_    0.154829 0.761085 0.958193 -0.648648
F6    F     F_    0.849012 0.766031 0.042170 -0.646227
F7    F     F_    0.654833 0.261290 0.958255 -0.648711
F8    F     F_    0.349003 0.265803 0.042222 -0.646174
C93   C     C_3   0.287530 0.764651 0.087581 -0.300567
C94   C     C_3   0.276872 0.688045 0.154817 -0.407845
H41   H     H_    0.277900 0.743259 0.204057 0.184228
H42   H     H_    0.226044 0.639373 0.153247 0.147198
H43   H     H_    0.320068 0.622133 0.158560 0.161582
H44   H     H_    0.274112 0.706354 0.041782 0.158053
H45   H     H_    0.343629 0.789400 0.081317 0.149740
C95   C     C_3   0.712996 0.765188 0.913041 -0.303784
C96   C     C_3   0.723590 0.688744 0.845758 -0.403362
H46   H     H_    0.721678 0.743787 0.796482 0.189016
H47   H     H_    0.774796 0.641351 0.846831 0.147630
H48   H     H_    0.680863 0.621805 0.842443 0.160946
H49   H     H_    0.726786 0.707108 0.958825 0.156063
H50   H     H_    0.656854 0.789380 0.919520 0.140661
C97   C     C_3   0.787085 0.264325 0.087854 -0.300651
C98   C     C_3   0.776066 0.188057 0.155174 -0.407957
H51   H     H_    0.776943 0.243497 0.204334 0.184066
H52   H     H_    0.725205 0.139509 0.153460 0.147183
H53   H     H_    0.819173 0.122034 0.159224 0.161797
H54   H     H_    0.773573 0.206011 0.042096 0.158338
H55   H     H_    0.843265 0.288562 0.081676 0.149587
C99   C     C_3   0.212536 0.265535 0.913345 -0.303676
C100  C     C_3   0.222700 0.188724 0.846151 -0.403262
H56   H     H_    0.220584 0.243523 0.796796 0.189184
H57   H     H_    0.273868 0.141188 0.847029 0.147661
H58   H     H_    0.179878 0.121902 0.843198 0.160663
H59   H     H_    0.226251 0.207466 0.959164 0.155840
H60   H     H_    0.156486 0.290287 0.919945 0.140641
C101  C     C_3   0.143325 0.014701 0.052558 -0.267208
C102  C     C_3   0.091980 0.029939 0.992130 -0.440121
H61   H     H_    0.119784 0.049941 0.941592 0.166341
H62   H     H_    0.060150 0.946144 0.985962 0.187614
H63   H     H_    0.057564 0.108625 0.004248 0.117538
H64   H     H_    0.111437 0.999098 0.101592 0.172719
H65   H     H_    0.172348 0.102019 0.057188 0.165500
C103  C     C_3   0.856353 0.017688 0.947463 -0.263652
C104  C     C_3   0.907338 0.034986 0.008051 -0.439230
H66   H     H_    0.879181 0.053086 0.058642 0.166184
H67   H     H_    0.940438 0.952743 0.013999 0.187531
H68   H     H_    0.940560 0.115481 0.996228 0.118749
H69   H     H_    0.888553 0.002806 0.898577 0.174233
H70   H     H_    0.826578 0.104135 0.942584 0.167628
C105  C     C_3   0.643667 0.515550 0.052310 -0.267322
C106  C     C_3   0.592535 0.531249 0.991728 -0.440464
H71   H     H_    0.620527 0.550949 0.941255 0.166262
H72   H     H_    0.560470 0.447747 0.985491 0.187644
H73   H     H_    0.558331 0.610283 0.003723 0.117496
H74   H     H_    0.611586 0.500243 0.101247 0.172844
H75   H     H_    0.672925 0.602610 0.057032 0.165611
C107  C     C_3   0.356684 0.516888 0.947219 -0.263568
C108  C     C_3   0.407866 0.533794 0.007667 -0.438906
H76   H     H_    0.379871 0.552221 0.058311 0.166237
H77   H     H_    0.440750 0.451270 0.013566 0.187485
H78   H     H_    0.441291 0.613966 0.995716 0.118767
H79   H     H_    0.388708 0.501707 0.898246 0.174111
H80   H     H_    0.327129 0.603580 0.942415 0.167537

loop_
_geom_bond_atom_site_label_1
_geom_bond_atom_site_label_2
_ccdc_geom_bond_type
C84   H24   S    
C7    C83   D    
C108  H77   S    
C34   H38   S    
Cr2   O2    S    
C6    C82   D    
C87   C91   D    
Cr8   O28   S    
C77   O41   A    
C14   C18   A    
C35   C36   A    
C88   H20   S    
C61   H5    S    
Cr10  O14   S    
C98   H52   S    
Cr4   O24   S    
C3    O23   A    
C57   C62   D    
C65   O37   A    
C93   C94   S    
Cr8   O8    S    
C15   C19   A    
C29   H34   S    
C87   H19   S    
C12   C23   A    
C74   O10   A    
C59   C64   D    
C50   C54   S    
C79   O43   A    
C60   C63   D    
Cr11  O39   S    
C11   C28   A    
C14   C21   A    
C52   C107  S    
C16   C20   A    
C20   H28   S    
Cr3   O19   S    
C79   O15   A    
Cr6   O30   S    
C94   H42   S    
C9    C22   A    
C80   O16   A    
C15   H31   S    
C95   H49   S    
C76   O8    A    
C99   H59   S    
C29   C33   A    
C11   C24   A    
Cr5   O25   S    
Cr6   O50   S    
C25   C29   A    
C104  H66   S    
C6    H14   S    
Cr5   O49   S    
C46   O34   A    
C9    C66   S    
C103  C104  S    
C49   C101  S    
Cr4   O20   S    
C97   H54   S    
C46   C82   S    
C78   O14   A    
C39   C55   D    
C88   C92   D    
C10   C65   S    
C59   H12   S    
C40   C56   D    
C38   C54   D    
Cr8   O32   S    
C58   H9    S    
C47   O35   A    
C23   C24   A    
C46   O30   A    
C85   H17   S    
C78   O42   A    
C39   C75   S    
C101  C102  S    
Cr10  O10   S    
C51   C55   S    
C61   C62   S    
C68   O4    A    
C106  H73   S    
C45   O33   A    
C40   H4    S    
C91   F3    S    
C44   C52   D    
C58   C61   D    
C96   H47   S    
C66   O38   A    
C108  H78   S    
Cr1   O21   S    
Cr9   O17   S    
C30   H33   S    
C21   C22   A    
C3    C86   S    
C103  H70   S    
Cr2   O22   S    
C101  H65   S    
C102  H62   S    
Cr12  O16   S    
C106  H71   S    
C41   C49   D    
C98   H51   S    
Cr6   O18   S    
C106  H72   S    
C9    C26   A    
C17   C18   A    
Cr8   O52   S    
C10   C21   A    
C19   H27   S    
Cr4   O4    S    
C12   C67   S    
C43   C97   S    
Cr5   O29   S    
C39   H3    S    
C30   C34   A    
C12   C27   A    
Cr3   O43   S    
Cr10  O38   S    
C96   H46   S    
C7    H15   S    
C28   C32   A    
Cr3   O3    S    
C92   F4    S    
C32   H35   S    
Cr10  O18   S    
C86   C90   D    
C69   O45   A    
C97   C98   S    
C63   H7    S    
C85   C89   D    
C94   H41   S    
C4    C85   S    
C14   H30   S    
C33   H37   S    
Cr9   O9    S    
C105  H74   S    
C27   C31   A    
C76   O12   A    
C97   H55   S    
C4    O24   A    
C82   H22   S    
C5    H13   S    
Cr11  O19   S    
C104  H67   S    
C102  H63   S    
C38   H2    S    
C51   C105  S    
C101  H64   S    
Cr2   O46   S    
C37   H1    S    
C107  C108  S    
C45   O29   A    
C5    C81   D    
C71   O51   A    
C100  H56   S    
C62   H6    S    
C107  H80   S    
C70   O50   A    
C55   F7    S    
C69   O49   A    
C33   C34   A    
C80   O44   A    
C2    C87   S    
Cr8   O20   S    
C93   H44   S    
Cr12  O12   S    
Cr1   O1    S    
C67   O39   A    
C42   C50   D    
C41   C72   S    
C8    C92   S    
C65   O1    A    
C105  H75   S    
C10   C25   A    
Cr11  O11   S    
C15   C24   A    
Cr12  O40   S    
C2    O26   A    
Cr1   O17   S    
C26   C30   A    
C16   C23   A    
Cr5   O17   S    
C3    O27   A    
C67   O3    A    
C103  H69   S    
Cr10  O34   S    
Cr7   O19   S    
C18   H26   S    
C102  H61   S    
C59   C79   S    
C108  H76   S    
C16   H32   S    
C32   C36   A    
C7    C91   S    
C48   O36   A    
C42   C95   S    
C11   C68   S    
C70   O46   A    
C99   H60   S    
Cr6   O6    S    
C96   H48   S    
C8    H16   S    
C2    O22   A    
C60   C80   S    
Cr5   O5    S    
Cr3   O47   S    
C4    O28   A    
C81   H21   S    
C1    O21   A    
C8    C84   D    
C13   H29   S    
C45   C81   S    
Cr2   O42   S    
C83   H23   S    
C47   C83   S    
Cr3   O23   S    
C72   O52   A    
C105  C106  S    
C75   O11   A    
C57   H10   S    
C56   F8    S    
Cr1   O45   S    
Cr9   O33   S    
C43   C70   S    
C89   F1    S    
C90   F2    S    
C19   C20   A    
C35   H39   S    
C37   C73   S    
C13   C17   A    
C104  H68   S    
Cr4   O48   S    
C57   C77   S    
C50   C103  S    
C25   C26   A    
C68   O40   A    
C37   C53   D    
C100  H57   S    
C6    C90   S    
Cr7   O51   S    
C94   H43   S    
Cr11  O15   S    
Cr12  O20   S    
Cr12  O36   S    
C95   H50   S    
C107  H79   S    
C1    C88   S    
C49   C53   S    
C43   C51   D    
C31   C35   A    
C1    O25   A    
C42   C71   S    
C38   C74   S    
C13   C22   A    
Cr11  O35   S    
C98   H53   S    
C93   H45   S    
C41   C93   S    
C86   H18   S    
C54   F6    S    
Cr9   O37   S    
C53   F5    S    
C66   O2    A    
C64   H8    S    
C58   C78   S    
C47   O31   A    
Cr9   O13   S    
C63   C64   S    
Cr6   O26   S    
C48   C84   S    
C100  H58   S    
Cr7   O31   S    
C95   C96   S    
Cr7   O7    S    
C99   C100  S    
C73   O5    A    
C40   C76   S    
C73   O9    A    
C75   O7    A    
C44   C69   S    
C74   O6    A    
C60   H11   S    
C71   O47   A    
C31   H36   S    
C36   H40   S    
C44   C99   S    
Cr4   O44   S    
C72   O48   A    
C17   H25   S    
C5    C89   S    
Cr2   O18   S    
C52   C56   S    
Cr7   O27   S    
C77   O13   A    
C48   O32   A    
C27   C28   A    
Cr1   O41   S    
