data_str_m2_o9_o18_f0_pcu.sym.126
_audit_creation_date              2012-12-10T19:45:39-0500
_audit_creation_method            fapswitch 2.2
_symmetry_space_group_name_H-M    P1
_symmetry_Int_Tables_number       1
_space_group_crystal_system       triclinic
_cell_length_a                    10.803381
_cell_length_b                    14.67889
_cell_length_c                    14.685713
_cell_angle_alpha                 65.2595
_cell_angle_beta                  103.61469
_cell_angle_gamma                 102.922769
_cell_volume                      2034.93053825

loop_
_atom_site_label
_atom_site_type_symbol
_atom_type_description
_atom_site_fract_x
_atom_site_fract_y
_atom_site_fract_z
_atom_type_partial_charge
C1    C     C_R   0.477567 0.119603 0.312138 0.793753
C2    C     C_R   0.520951 0.880349 0.687865 0.792956
C3    C     C_R   0.870517 0.001900 0.494768 -0.081510
C4    C     C_R   0.129438 0.998296 0.504794 -0.082590
C5    C     C_R   0.906240 0.956449 0.438660 -0.001586
C6    C     C_R   0.093646 0.044062 0.560544 -0.000696
C7    C     C_R   0.457082 0.187097 0.204527 -0.054227
C8    C     C_R   0.527718 0.812759 0.795486 -0.055262
C9    C     C_R   0.380911 0.216079 0.027450 -0.200177
C10   C     C_R   0.565612 0.784138 0.973624 -0.199312
C11   C     C_R   0.405032 0.149333 0.128326 -0.205777
C12   C     C_R   0.562462 0.850564 0.872421 -0.206236
C13   C     C_R   0.485067 0.291710 0.178917 -0.248122
C14   C     C_R   0.496227 0.708270 0.820686 -0.247466
C15   C     C_R   0.455826 0.360593 0.078689 0.091248
C16   C     C_R   0.495068 0.639806 0.921779 0.089654
C17   C     C_R   0.405956 0.321156 0.002088 0.170554
C18   C     C_R   0.532990 0.679306 0.998904 0.166278
C19   C     C_R   0.477182 0.467255 0.052525 0.064895
C20   C     C_R   0.460794 0.533339 0.948274 0.068166
C21   C     C_R   0.408948 0.490820 0.874258 -0.216622
C22   C     C_R   0.511814 0.509941 0.127102 -0.211740
C23   C     C_R   0.262892 0.998817 0.502771 0.795037
C24   C     C_R   0.737100 0.001202 0.497176 0.794351
C25   C     C_R   0.381315 0.386804 0.901056 -0.229673
C26   C     C_R   0.538524 0.613936 0.100439 -0.221552
C27   C     C_R   0.740653 0.298944 0.643988 -0.286647
C28   C     C_R   0.262995 0.703180 0.351831 -0.315318
C29   C     C_R   0.695910 0.211353 0.624763 0.039131
C30   C     C_R   0.307195 0.790481 0.371693 0.053520
C31   C     C_R   0.511084 0.281066 0.516542 0.065696
C32   C     C_R   0.487121 0.717898 0.485752 0.061298
C33   C     C_R   0.549488 0.371925 0.534909 -0.061000
C34   C     C_R   0.449311 0.627343 0.466886 -0.059505
C35   C     C_R   0.669210 0.380508 0.598331 0.076333
C36   C     C_R   0.331482 0.619964 0.401156 0.059099
C37   C     C_R   0.475235 0.454338 0.491341 -0.004714
C38   C     C_R   0.523069 0.544574 0.511035 0.007025
C39   C     C_R   0.644438 0.550286 0.572184 -0.325653
C40   C     C_R   0.353863 0.448831 0.429986 -0.308747
C41   C     C_R   0.718589 0.470953 0.613267 0.437245
C42   C     C_R   0.282227 0.529231 0.386644 0.437101
C43   C     C_R   0.354330 0.072160 0.774884 -0.118424
C44   C     C_R   0.637164 0.928738 0.229015 -0.113963
C45   C     C_R   0.266669 0.028841 0.712234 -0.093099
C46   C     C_R   0.729493 0.972225 0.289207 -0.088737
C47   C     C_R   0.187120 0.088876 0.627760 0.128071
C48   C     C_R   0.812203 0.912334 0.371061 0.127165
C49   C     C_R   0.195124 0.192081 0.608153 -0.168719
C50   C     C_R   0.804116 0.809448 0.389256 -0.171690
C51   C     C_R   0.282786 0.235051 0.670986 -0.148349
C52   C     C_R   0.712058 0.766363 0.328623 -0.141996
C53   C     C_R   0.362745 0.175220 0.754051 -0.118052
C54   C     C_R   0.627822 0.825764 0.249198 -0.115052
C55   C     C_R   0.964118 0.045831 0.553988 -0.236757
C56   C     C_R   0.035801 0.954330 0.445506 -0.240170
Cu1   Cu    Cu3+1 0.466270 0.918260 0.475690 0.934768
Cu2   Cu    Cu3+1 0.533730 0.081740 0.524310 0.938087
H1    H     H_    0.430949 0.208655 0.802400 0.125571
H2    H     H_    0.555188 0.792025 0.203396 0.118083
H3    H     H_    0.341586 0.185569 0.969290 0.132797
H4    H     H_    0.594221 0.814739 0.032202 0.130258
H5    H     H_    0.384874 0.535725 0.794655 0.141903
H6    H     H_    0.515754 0.465228 0.207241 0.142684
H7    H     H_    0.571142 0.728323 0.538579 0.124674
H8    H     H_    0.425136 0.269800 0.465703 0.125309
H9    H     H_    0.252874 0.853619 0.335296 0.124992
H10   H     H_    0.752159 0.149400 0.658912 0.126390
H11   H     H_    0.831889 0.302897 0.693309 0.182970
H12   H     H_    0.174340 0.700562 0.299396 0.177648
H13   H     H_    0.685813 0.616285 0.589014 0.137792
H14   H     H_    0.309990 0.382297 0.414495 0.153736
H15   H     H_    0.415492 0.025821 0.839797 0.118176
H16   H     H_    0.572408 0.974748 0.167048 0.117826
H17   H     H_    0.261030 0.948895 0.729186 0.104790
H18   H     H_    0.735102 0.051935 0.273296 0.102237
H19   H     H_    0.134165 0.239125 0.543685 0.117652
H20   H     H_    0.867737 0.762517 0.451346 0.110509
H21   H     H_    0.289087 0.314798 0.655024 0.130147
H22   H     H_    0.705112 0.686702 0.343919 0.131491
H23   H     H_    0.936225 0.079215 0.598215 0.150797
H24   H     H_    0.063701 0.920838 0.401384 0.153469
H25   H     H_    0.341442 0.357580 0.841936 0.137745
H26   H     H_    0.565231 0.643238 0.160044 0.138469
H27   H     H_    0.475868 0.681889 0.759863 0.152319
H28   H     H_    0.531857 0.317690 0.238691 0.149862
H29   H     H_    0.588179 0.931128 0.854516 0.150456
H30   H     H_    0.382413 0.068545 0.146640 0.148788
N1    N     N_R   0.584450 0.204570 0.560790 -0.172688
N2    N     N_R   0.415550 0.795430 0.439210 -0.170307
O1    O     O_R   0.455540 0.022090 0.338120 -0.585205
O2    O     O_R   0.544460 0.977910 0.661880 -0.582889
O3    O     O_R   0.512510 0.160150 0.379180 -0.588232
O4    O     O_R   0.487490 0.839850 0.620820 -0.590645
O5    O     O_R   0.291160 0.930970 0.479480 -0.591650
O6    O     O_R   0.708840 0.069030 0.520520 -0.592872
O7    O     O_R   0.348130 0.069020 0.520540 -0.575321
O8    O     O_R   0.651870 0.930980 0.479460 -0.575490
O9    O     O_3   0.838815 0.479128 0.671994 -0.612291
C57   C     C_3   0.921231 0.564170 0.616641 0.045824
H31   H     H_    0.910360 0.631625 0.628844 0.154041
H32   H     H_    0.900784 0.580607 0.533487 0.116707
C58   C     C_3   0.060781 0.544073 0.655102 -0.343500
H33   H     H_    0.083953 0.525510 0.738246 0.237224
H34   H     H_    0.073354 0.478212 0.640938 0.206710
C59   C     C_3   0.153697 0.636264 0.601380 -0.901117
H35   H     H_    0.128881 0.658571 0.517872 0.250747
H36   H     H_    0.253531 0.617822 0.625888 0.250921
H37   H     H_    0.149255 0.701149 0.620294 0.263128
O10   O     O_3   0.164490 0.519176 0.326484 -0.608373
C60   C     C_3   0.067534 0.480786 0.388477 0.027618
H38   H     H_    0.064806 0.533658 0.424442 0.140803
H39   H     H_    0.084507 0.405456 0.449125 0.134329
C61   C     C_3   0.936925 0.468695 0.323059 -0.312257
H40   H     H_    0.918419 0.543564 0.262393 0.221995
H41   H     H_    0.938261 0.416237 0.286497 0.229496
C62   C     C_3   0.828210 0.426722 0.386248 -0.911164
H42   H     H_    0.843963 0.351279 0.446738 0.264160
H43   H     H_    0.735028 0.418181 0.336724 0.252137
H44   H     H_    0.822875 0.479255 0.421469 0.246332

loop_
_geom_bond_atom_site_label_1
_geom_bond_atom_site_label_2
_ccdc_geom_bond_type
C43   H15   S    
C31   H8    S    
C27   C29   A    
C5    C56   A    
C36   C42   A    
C60   H38   S    
C18   C26   A    
C6    C55   A    
C30   N2    A    
C46   H18   S    
C61   H40   S    
C53   H1    S    
C39   C41   A    
C54   H2    S    
C15   C19   A    
C23   O5    A    
C9    H3    S    
Cu2   O3    S    
C37   C40   A    
C24   O6    A    
C38   C39   A    
C59   H35   S    
Cu2   O6    S    
O10   C60   S    
C3    C55   A    
C43   C53   A    
C32   N2    A    
C60   H39   S    
C19   C20   A    
C44   C46   A    
C49   C51   A    
C13   H28   S    
C50   C52   A    
C41   O9    S    
C14   C16   A    
C55   H23   S    
C40   H14   S    
C30   H9    S    
C27   H11   S    
C16   C20   A    
C40   C42   A    
C1    O1    A    
C1    C7    S    
C4    C56   A    
C3    C24   S    
C10   H4    S    
Cu2   O7    S    
C50   H20   S    
C29   N1    A    
C52   C54   A    
C45   C47   A    
C2    O2    A    
C5    C48   S    
C46   C48   A    
Cu1   N2    S    
C2    O4    A    
C19   C22   A    
C4    C6    A    
C6    C47   S    
C62   H44   S    
C4    C23   S    
C27   C35   A    
C57   C58   S    
C33   C37   A    
C51   C53   A    
C32   C34   A    
C58   C59   S    
C7    C11   A    
C37   C38   A    
C29   H10   S    
C43   C45   A    
O9    C57   S    
C11   H30   S    
C8    C12   A    
C31   C33   A    
C58   H34   S    
C16   C18   A    
C44   H16   S    
C48   C50   A    
C9    C11   A    
C10   C12   A    
C9    C17   A    
C23   O7    A    
Cu1   O4    S    
C13   C15   A    
Cu1   O5    S    
C24   O8    A    
C57   H32   S    
C15   C17   A    
C21   C25   A    
C8    C14   A    
Cu1   O1    S    
C12   H29   S    
C34   C38   A    
C28   H12   S    
C14   H27   S    
C3    C5    A    
C61   H41   S    
C56   H24   S    
C31   N1    A    
C47   C49   A    
C45   H17   S    
C17   C25   A    
C62   H43   S    
C42   O10   S    
C62   H42   S    
C26   H26   S    
Cu1   Cu2   S    
C59   H36   S    
C10   C18   A    
Cu1   O8    S    
C28   C30   A    
C57   H31   S    
C33   C35   A    
C49   H19   S    
C60   C61   S    
C34   C36   A    
C35   C41   A    
Cu2   N1    S    
C51   H21   S    
C21   H5    S    
C61   C62   S    
C22   H6    S    
C44   C54   A    
C7    C13   A    
C20   C21   A    
C28   C36   A    
C1    O3    A    
C22   C26   A    
C2    C8    S    
C58   H33   S    
C25   H25   S    
C39   H13   S    
C52   H22   S    
Cu2   O2    S    
C32   H7    S    
C59   H37   S    
