data_str_m2_o10_o29_f0_pcu.sym.6
_audit_creation_date              2012-10-26T20:17:41-0400
_audit_creation_method            fapswitch 2.2
_symmetry_space_group_name_H-M    P1
_symmetry_Int_Tables_number       1
_space_group_crystal_system       triclinic
_cell_length_a                    27.841763
_cell_length_b                    8.733137
_cell_length_c                    7.407117
_cell_angle_alpha                 102.755127
_cell_angle_beta                  93.604309
_cell_angle_gamma                 92.507605
_cell_volume                      1750.01615685

loop_
_atom_site_label
_atom_site_type_symbol
_atom_type_description
_atom_site_fract_x
_atom_site_fract_y
_atom_site_fract_z
_atom_type_partial_charge
C1    C     C_R   0.496940 0.200076 0.454355 0.570477
C2    C     C_R   0.869950 0.360036 0.454559 0.004398
C3    C     C_R   0.354468 0.502325 0.510378 -0.013081
C4    C     C_R   0.645532 0.497675 0.489622 -0.013084
C5    C     C_R   0.971349 0.355741 0.444520 0.089355
C6    C     C_R   0.028651 0.644254 0.555485 0.089354
C7    C     C_R   0.978074 0.641800 0.575794 0.047132
C8    C     C_R   0.021926 0.358195 0.424210 0.047132
C9    C     C_R   0.949454 0.500040 0.507711 -0.085358
C10   C     C_R   0.050546 0.499955 0.492294 -0.085358
C11   C     C_R   0.942267 0.213132 0.418821 0.281210
C12   C     C_R   0.503060 0.799924 0.545645 0.570477
C13   C     C_R   0.057733 0.786863 0.581187 0.281211
C14   C     C_R   0.891994 0.217325 0.414102 -0.093436
C15   C     C_R   0.108006 0.782670 0.585909 -0.093433
C16   C     C_R   0.407455 0.502110 0.504087 0.564844
C17   C     C_R   0.592545 0.497890 0.495913 0.564843
C18   C     C_R   0.044474 0.227948 0.321097 0.282359
C19   C     C_R   0.955526 0.772048 0.678904 0.282362
C20   C     C_2   0.490180 0.032786 0.433384 0.238654
C21   C     C_2   0.509820 0.967214 0.566616 0.238654
C22   C     C_R   0.174574 0.357448 0.444639 0.491671
C23   C     C_R   0.101426 0.498562 0.489048 -0.103000
C24   C     C_R   0.825426 0.642547 0.555354 0.491673
C25   C     C_R   0.180367 0.636558 0.548895 0.426338
C26   C     C_R   0.819633 0.363436 0.451115 0.426335
C27   C     C_R   0.281160 0.547093 0.671396 -0.085320
C28   C     C_R   0.718840 0.452887 0.328607 -0.085317
C29   C     C_R   0.331420 0.553091 0.676828 0.051721
C30   C     C_R   0.668580 0.446893 0.323176 0.051721
C31   C     C_R   0.325928 0.450946 0.342224 -0.137654
C32   C     C_R   0.674072 0.549071 0.657773 -0.137659
C33   C     C_R   0.275506 0.450051 0.336968 0.305412
C34   C     C_R   0.898574 0.501433 0.510956 -0.103001
C35   C     C_R   0.724494 0.549965 0.663029 0.305412
C36   C     C_R   0.253185 0.496397 0.503339 0.243719
C37   C     C_R   0.746815 0.503598 0.496661 0.243711
C38   C     C_R   0.123754 0.356016 0.428671 0.031870
C39   C     C_R   0.876246 0.643979 0.571326 0.031871
C40   C     C_R   0.094997 0.219124 0.344376 0.222768
C41   C     C_R   0.905002 0.780873 0.655619 0.222767
C42   C     C_R   0.130050 0.639958 0.545449 0.004398
Cu1   Cu    Cu3+1 0.505380 0.517380 0.684380 1.054866
Cu2   Cu    Cu3+1 0.494620 0.482620 0.315620 1.054867
H1    H     H_    0.342821 0.411666 0.213605 0.146445
H2    H     H_    0.731526 0.620913 0.932129 0.330690
H3    H     H_    0.092783 0.991011 0.266055 0.341904
H4    H     H_    0.907216 0.008985 0.733935 0.341902
H5    H     H_    0.938110 0.985302 0.395759 0.331446
H6    H     H_    0.061891 0.014692 0.604243 0.331446
H7    H     H_    0.039253 0.073075 0.085742 0.362298
H8    H     H_    0.960745 0.926926 0.914255 0.362298
H9    H     H_    0.447077 0.013067 0.208874 0.345489
H10   H     H_    0.552923 0.986933 0.791126 0.345488
H11   H     H_    0.657178 0.588363 0.786389 0.146433
H12   H     H_    0.462460 0.378626 0.948439 0.249956
H13   H     H_    0.537540 0.621374 0.051561 0.249954
H14   H     H_    0.736508 0.415185 0.201426 0.172636
H15   H     H_    0.263492 0.584783 0.798580 0.172622
H16   H     H_    0.870212 0.107617 0.386300 0.179603
H17   H     H_    0.129789 0.892377 0.613714 0.179601
H18   H     H_    0.268473 0.379190 0.067866 0.330695
I1    I     I_    0.632632 0.348684 0.057745 -0.270871
I2    I     I_    0.367367 0.651283 0.942266 -0.270894
N1    N     N_R   0.201557 0.496551 0.501326 -0.388057
N2    N     N_R   0.798443 0.503443 0.498676 -0.388056
N3    N     N_2   0.486510 0.456430 0.038510 -0.221094
N4    N     N_2   0.513490 0.543570 0.961490 -0.221095
O1    O     O_R   0.503500 0.286120 0.619780 -0.458431
O2    O     O_2   0.802913 0.778332 0.595929 -0.361135
O3    O     O_2   0.792023 0.227701 0.402173 -0.444601
O4    O     O_2   0.207978 0.772292 0.597846 -0.444597
O5    O     O_3   0.247298 0.406465 0.171642 -0.637707
O6    O     O_3   0.752702 0.593570 0.828355 -0.637691
O7    O     O_3   0.116591 0.080767 0.275551 -0.634154
O8    O     O_3   0.883409 0.919230 0.724440 -0.634157
O9    O     O_3   0.963313 0.072517 0.417388 -0.603121
O10   O     O_3   0.036688 0.927479 0.582620 -0.603121
O11   O     O_3   0.017633 0.122821 0.180132 -0.643079
O12   O     O_R   0.496500 0.713880 0.380220 -0.458431
O13   O     O_3   0.982366 0.877175 0.819871 -0.643077
O14   O     O_3   0.461713 0.943237 0.283110 -0.683627
O15   O     O_3   0.538287 0.056763 0.716890 -0.683627
O16   O     O_R   0.494410 0.256780 0.308360 -0.516474
O17   O     O_R   0.505590 0.743220 0.691640 -0.516475
O18   O     O_R   0.434810 0.514700 0.655690 -0.488300
O19   O     O_R   0.565190 0.485300 0.344310 -0.488302
O20   O     O_R   0.425720 0.485350 0.344280 -0.498743
O21   O     O_R   0.574280 0.514650 0.655720 -0.498744
O22   O     O_2   0.197087 0.221664 0.404050 -0.361129

loop_
_geom_bond_atom_site_label_1
_geom_bond_atom_site_label_2
_ccdc_geom_bond_type
C35   O6    S    
C20   O14   S    
C27   C29   A    
H4    O8    S    
C33   C36   A    
C24   O2    S    
C39   C41   A    
C1    O16   A    
Cu1   O21   S    
C23   C42   A    
C12   O17   A    
C35   C37   A    
C5    C11   A    
C11   C14   A    
C22   C38   A    
C24   C39   A    
C3    C29   A    
C18   C40   A    
C11   O9    S    
C21   O15   S    
C18   O11   S    
C31   C33   A    
H18   O5    S    
Cu2   O19   S    
C32   H11   S    
C24   N2    A    
C2    C34   A    
C29   I2    S    
Cu1   O1    S    
C30   I1    S    
C16   O18   A    
C26   O3    S    
H6    O10   S    
H10   O15   S    
H7    O11   S    
C15   H17   S    
N3    N4    D    
Cu1   O17   S    
C32   C35   A    
Cu2   O12   S    
C17   O21   A    
C36   N1    S    
Cu1   N4    S    
C12   C21   S    
C8    C18   A    
C34   C39   A    
H9    O14   S    
C26   N2    A    
Cu1   Cu2   S    
C22   N1    A    
C5    C9    A    
C37   N2    S    
C22   O22   S    
C25   N1    A    
C2    C26   A    
C25   O4    S    
C3    C31   A    
C4    C32   A    
C4    C17   S    
C33   O5    S    
C7    C19   A    
C13   C15   A    
C9    C34   A    
C10   C23   A    
H13   N4    S    
H12   N3    S    
H2    O6    S    
C7    C9    A    
C13   O10   S    
C1    C20   S    
C17   O19   A    
Cu1   O18   S    
C15   C42   A    
Cu2   O16   S    
C25   C42   A    
C6    C10   A    
C5    C8    A    
C6    C7    A    
C28   H14   S    
C27   C36   A    
C23   C38   A    
C14   H16   S    
C40   O7    S    
C28   C30   A    
H3    O7    S    
C27   H15   S    
C6    C13   A    
C38   C40   A    
C28   C37   A    
C12   O12   A    
H5    O9    S    
Cu2   O20   S    
H8    O13   S    
C2    C14   A    
C1    O1    A    
C20   C21   D    
C8    C10   A    
C31   H1    S    
C16   O20   A    
Cu2   N3    S    
C19   O13   S    
C4    C30   A    
C3    C16   S    
C19   C41   A    
C41   O8    S    
