data_str_m2_o5_o28_f0_pcu.sym.110
_audit_creation_date              2013-03-05T16:35:50-0500
_audit_creation_method            fapswitch 2.2
_symmetry_space_group_name_H-M    P1
_symmetry_Int_Tables_number       1
_space_group_crystal_system       triclinic
_cell_length_a                    23.489691
_cell_length_b                    9.099797
_cell_length_c                    7.786426
_cell_angle_alpha                 90.429547
_cell_angle_beta                  89.733051
_cell_angle_gamma                 90.03294
_cell_volume                      1664.29453254

loop_
_atom_site_label
_atom_site_type_symbol
_atom_site_description
_atom_site_fract_x
_atom_site_fract_y
_atom_site_fract_z
_atom_type_partial_charge
O1    O     O_R   0.500000 0.288390 0.642760 -0.572998
O2    O     O_R   0.500000 0.711610 0.357240 -0.571522
O3    O     O_R   0.500000 0.711610 0.642760 -0.579970
O4    O     O_R   0.500000 0.288390 0.357240 -0.579353
H1    H     H_    0.951637 0.392345 0.092049 0.194387
H2    H     H_    0.048362 0.635088 0.921127 0.197541
H3    H     H_    0.944888 0.626190 0.917934 0.198347
H4    H     H_    0.055180 0.390721 0.098662 0.188237
C1    C     C_R   0.499975 0.220005 0.499606 0.852914
C2    C     C_R   0.499960 0.779995 0.500395 0.849190
O5    O     O_R   0.417880 0.500000 0.642820 -0.577884
O6    O     O_R   0.582120 0.500000 0.357180 -0.576087
O7    O     O_R   0.582120 0.500000 0.642820 -0.575395
O8    O     O_R   0.417880 0.500000 0.357180 -0.574236
C3    C     C_R   0.209233 0.513043 0.518969 0.172507
C4    C     C_R   0.790853 0.503860 0.498033 0.176279
C5    C     C_R   0.390911 0.500325 0.500486 0.842858
C6    C     C_R   0.609060 0.500031 0.499605 0.847782
Cu1   Cu    Cu3+1 0.500000 0.500000 0.669080 1.035534
Cu2   Cu    Cu3+1 0.500000 0.500000 0.330920 1.037877
C7    C     C_R   0.299313 0.630326 0.448875 -0.175713
C8    C     C_R   0.701801 0.370981 0.531820 -0.172380
C9    C     C_R   0.297775 0.380397 0.561805 -0.159718
C10   C     C_R   0.701046 0.632586 0.464460 -0.173749
C11   C     C_R   0.328457 0.503515 0.502973 -0.235025
C12   C     C_R   0.671470 0.501165 0.498570 -0.231847
C13   C     C_R   0.879362 0.539133 0.650792 0.597652
C14   C     C_R   0.120983 0.470824 0.368402 0.640758
C15   C     C_R   0.881644 0.474406 0.352924 0.595565
C16   C     C_R   0.118536 0.557441 0.658979 0.532810
N1    N     N_R   0.851970 0.505692 0.500576 -0.417126
N2    N     N_R   0.148193 0.514108 0.515487 -0.419224
C17   C     C_R   0.941336 0.469971 0.354474 -0.029080
C18   C     C_R   0.058848 0.556454 0.659002 -0.013916
C19   C     C_R   0.938939 0.547928 0.654729 -0.029081
C20   C     C_R   0.061319 0.469248 0.361870 -0.037778
C21   C     C_R   0.970097 0.509990 0.506017 -0.009723
C22   C     C_R   0.030144 0.511922 0.508945 -0.009533
C23   C     C_R   0.972808 0.426816 0.208835 -0.177752
C24   C     C_R   0.027308 0.598688 0.804897 -0.178707
C25   C     C_R   0.967957 0.593376 0.803183 -0.179290
C26   C     C_R   0.032199 0.425527 0.212814 -0.174538
C27   C     C_1   0.499946 0.065351 0.499454 -0.114113
C28   C     C_1   0.499938 0.934648 0.500548 -0.115639
C29   C     C_R   0.239609 0.636459 0.460882 0.429520
C30   C     C_R   0.761572 0.370525 0.519264 0.428598
C31   C     C_R   0.238010 0.385793 0.572056 0.425404
C32   C     C_R   0.760768 0.635755 0.476566 0.429754
N3    N     N_1   0.500000 0.500000 0.076820 -0.037209
N4    N     N_1   0.500000 0.500000 0.923180 -0.037468
O9    O     O_2   0.849079 0.562801 0.795958 -0.524599
O10   O     O_2   0.151637 0.429474 0.229223 -0.527146
O11   O     O_2   0.853533 0.448789 0.205065 -0.526060
O12   O     O_2   0.146726 0.601022 0.801119 -0.554219
O13   O     O_3   0.210040 0.755998 0.397890 -0.560413
C33   C     C_3   0.207944 0.866809 0.525511 -0.227311
H5    H     H_    0.250974 0.911919 0.553315 0.177266
H6    H     H_    0.187829 0.826920 0.645996 0.185609
H7    H     H_    0.181439 0.958629 0.477547 0.221037
O14   O     O_3   0.792387 0.241920 0.536248 -0.580951
C34   C     C_3   0.788930 0.160683 0.381081 -0.260278
H8    H     H_    0.790998 0.230284 0.264303 0.198514
H9    H     H_    0.749286 0.094386 0.377691 0.185524
H10   H     H_    0.825556 0.084047 0.373998 0.209402
O15   O     O_3   0.206956 0.261027 0.611738 -0.592536
C35   C     C_3   0.203970 0.246433 0.791796 -0.258433
H11   H     H_    0.180406 0.339192 0.851943 0.226023
H12   H     H_    0.246816 0.236641 0.850622 0.172839
H13   H     H_    0.180247 0.144255 0.821638 0.187746
O16   O     O_3   0.790811 0.765870 0.460631 -0.581477
C36   C     C_3   0.785633 0.847404 0.615319 -0.259444
H14   H     H_    0.785183 0.778135 0.732569 0.196505
H15   H     H_    0.746567 0.915798 0.613823 0.187808
H16   H     H_    0.822765 0.922073 0.626540 0.209233
C37   C     C_1   0.330296 0.753794 0.378438 0.334534
N5    N     N_1   0.355074 0.852443 0.322163 -0.263603
C38   C     C_1   0.671994 0.238433 0.580750 0.312920
N6    N     N_1   0.648025 0.132950 0.620960 -0.283171
C39   C     C_1   0.327126 0.245061 0.601916 0.312929
N7    N     N_1   0.350584 0.136920 0.633877 -0.288897
C40   C     C_1   0.670528 0.763815 0.415792 0.314577
N8    N     N_1   0.646021 0.868271 0.375781 -0.281389

loop_
_geom_bond_atom_site_label_1
_geom_bond_atom_site_label_2
_geom_bond_distance
_ccdc_geom_bond_type
C35   H12   1.111622 S    
O13   C33   1.411114 S    
C20   C26   1.404756 A    
Cu1   Cu2   2.633059 S    
C6    C12   1.466019 S    
C3    C31   1.406878 A    
C10   C40   1.447005 S    
C4    C32   1.404607 A    
C40   N8    1.157011 T    
C3    N2    1.434245 S    
C38   N6    1.156994 T    
C4    N1    1.435938 S    
C16   O12   1.349302 S    
O5    Cu1   1.940730 S    
C17   C23   1.404476 A    
O7    C6    1.279606 A    
C18   C24   1.404644 A    
C32   O16   1.384104 S    
C19   C21   1.407855 A    
C21   C22   1.410876 A    
H4    C26   1.083175 S    
C35   H13   1.109274 S    
C15   C17   1.402866 A    
C33   H5    1.112314 S    
C34   H9    1.109588 S    
O2    Cu2   1.934955 S    
O3    Cu1   1.938010 S    
O16   C36   1.414691 S    
H3    C25   1.082974 S    
C35   H11   1.109228 S    
O8    C5    1.280543 A    
C13   O9    1.348731 S    
C23   C26   1.395623 A    
C7    C29   1.406217 A    
C1    C27   1.407310 S    
O1    Cu1   1.934956 S    
C16   C18   1.402073 A    
C13   N1    1.369714 A    
C10   C32   1.406720 A    
O8    Cu2   1.938835 S    
C14   N2    1.369332 A    
O1    C1    1.272524 A    
C4    C30   1.404829 A    
C36   H15   1.109244 S    
O7    Cu1   1.938833 S    
C13   C19   1.402148 A    
C2    C28   1.407304 S    
C17   C21   1.407864 A    
O14   C34   1.414305 S    
C34   H10   1.108707 S    
C37   N5    1.157372 T    
Cu2   N3    1.978530 S    
O6    Cu2   1.940727 S    
C14   C20   1.402707 A    
C24   C25   1.395074 A    
C8    C30   1.406949 A    
N3    N4    1.196307 T    
H1    C23   1.082758 S    
C27   C28   1.189463 T    
H2    C24   1.082967 S    
C3    C29   1.406636 A    
O2    C2    1.272526 A    
C7    C11   1.410169 A    
O5    C5    1.279134 A    
C30   O14   1.383904 S    
C18   C22   1.408522 A    
C8    C38   1.446930 S    
C10   C12   1.409072 A    
C36   H16   1.108707 S    
C7    C37   1.448233 S    
C33   H7    1.110269 S    
C5    C11   1.467368 S    
C9    C31   1.406610 A    
C20   C22   1.408669 A    
C36   H14   1.113311 S    
C15   N1    1.369865 A    
O3    C2    1.275300 A    
C16   N2    1.369516 A    
C14   O10   1.349610 S    
Cu1   N4    1.978530 S    
C15   O11   1.348591 S    
C33   H6    1.111719 S    
C9    C11   1.410020 A    
C34   H8    1.112869 S    
C19   C25   1.404167 A    
C39   N7    1.157369 T    
O4    Cu2   1.938011 S    
C29   O13   1.385034 S    
O15   C35   1.410693 S    
C8    C12   1.409004 A    
O6    C6    1.279380 A    
C9    C39   1.448553 S    
O4    C1    1.275305 A    
C31   O15   1.385200 S    
