data_str_m9_o1_o16_f0_sra.sym.28
_audit_creation_date              2012-12-11T15:47:03-0500
_audit_creation_method            fapswitch 2.2
_symmetry_space_group_name_H-M    P1
_symmetry_Int_Tables_number       1
_space_group_crystal_system       triclinic
_cell_length_a                    20.088948
_cell_length_b                    7.266476
_cell_length_c                    13.683361
_cell_angle_alpha                 89.780109
_cell_angle_beta                  102.932067
_cell_angle_gamma                 90.165836
_cell_volume                      1946.75889708

loop_
_atom_site_label
_atom_site_type_symbol
_atom_type_description
_atom_site_fract_x
_atom_site_fract_y
_atom_site_fract_z
_atom_type_partial_charge
O1    O     O_R   0.449560 0.506810 0.599700 -0.521612
O2    O     O_R   0.550440 0.006810 0.400300 -0.523653
O3    O     O_R   0.587960 0.180060 0.595760 -0.543511
O4    O     O_R   0.412040 0.680060 0.404240 -0.543298
C1    C     C_R   0.615557 0.344032 0.615483 0.698828
C2    C     C_R   0.384401 0.843956 0.384662 0.701712
O5    O     O_R   0.452380 0.177430 0.611700 -0.546164
O6    O     O_R   0.547620 0.677430 0.388300 -0.546190
O7    O     O_R   0.413900 0.001890 0.416350 -0.545553
O8    O     O_R   0.586100 0.501890 0.583650 -0.544311
C3    C     C_R   0.436638 0.345883 0.637427 0.709074
C4    C     C_R   0.563146 0.846714 0.362379 0.711125
O9    O     O_3   0.487530 0.337490 0.435890 -0.385749
O10   O     O_3   0.512470 0.837490 0.564110 -0.384276
V1    V     V_3+5 0.502310 0.064660 0.511890 1.472182
V2    V     V_3+5 0.497690 0.564660 0.488110 1.473159
C5    C     C_R   0.608998 0.007197 0.127267 -0.148654
C6    C     C_R   0.392887 0.487092 0.876761 -0.148878
H1    H     H_    0.515863 0.985717 0.177994 0.103943
H2    H     H_    0.485790 0.462908 0.825686 0.102656
H3    H     H_    0.692050 0.080621 0.008984 0.121182
H4    H     H_    0.310509 0.558165 0.996302 0.122175
H5    H     H_    0.583947 0.071327 0.057047 0.113600
H6    H     H_    0.418883 0.541586 0.948903 0.113757
C7    C     C_R   0.600738 0.864722 0.283550 -0.061730
C8    C     C_R   0.399011 0.360967 0.716290 -0.057180
C9    C     C_R   0.922082 0.777231 0.305605 -0.307151
C10   C     C_R   0.076347 0.300059 0.690863 -0.327013
C11   C     C_R   0.888296 0.775705 0.384642 0.426478
C12   C     C_R   0.110138 0.309465 0.611856 0.442273
C13   C     C_R   0.822516 0.853869 0.370069 0.326576
C14   C     C_R   0.177079 0.381019 0.629355 0.330137
C15   C     C_R   0.785370 0.888018 0.270057 -0.144057
C16   C     C_R   0.214811 0.398478 0.730216 -0.152987
C17   C     C_R   0.822186 0.909171 0.192535 -0.001112
C18   C     C_R   0.178281 0.411637 0.808359 -0.002655
C19   C     C_R   0.712629 0.901649 0.244288 0.129212
C20   C     C_R   0.287700 0.403002 0.756426 0.129760
C21   C     C_R   0.679863 0.979937 0.151213 0.102560
C22   C     C_R   0.321599 0.468371 0.851868 0.100880
C23   C     C_R   0.717539 0.024453 0.081245 -0.255117
C24   C     C_R   0.284404 0.509740 0.922723 -0.255058
C25   C     C_R   0.786503 0.979082 0.097889 0.289141
C26   C     C_R   0.214650 0.471936 0.904479 0.287335
C27   C     C_R   0.670958 0.830820 0.305955 -0.099690
C28   C     C_R   0.328230 0.335203 0.692693 -0.091772
C29   C     C_R   0.569968 0.954676 0.194610 -0.172398
C30   C     C_R   0.431169 0.438517 0.807970 -0.174322
C31   C     C_R   0.892508 0.856750 0.212721 -0.161427
C32   C     C_R   0.107428 0.362849 0.786934 -0.163005
H7    H     H_    0.692530 0.753479 0.372894 0.167765
H8    H     H_    0.305253 0.268645 0.622761 0.165376
H9    H     H_    0.973284 0.721337 0.317779 0.219748
H10   H     H_    0.024089 0.251011 0.676590 0.215191
C33   C     C_R   0.212603 0.020479 0.237950 -0.088430
C34   C     C_R   0.786620 0.521372 0.764363 -0.082189
H11   H     H_    0.186927 0.151243 0.225302 0.142127
H12   H     H_    0.811797 0.652794 0.778487 0.138849
C35   C     C_R   0.278770 0.016827 0.298463 -0.112147
C36   C     C_R   0.720499 0.517543 0.703790 -0.106447
H13   H     H_    0.302363 0.145535 0.327462 0.141876
H14   H     H_    0.696464 0.646560 0.676210 0.142370
C37   C     C_R   0.313690 0.849365 0.321265 -0.056684
C38   C     C_R   0.686164 0.349580 0.679168 -0.056438
C39   C     C_R   0.278936 0.685425 0.286565 -0.092642
C40   C     C_R   0.721345 0.185579 0.712493 -0.092721
H15   H     H_    0.302607 0.552627 0.306135 0.140162
H16   H     H_    0.698052 0.052672 0.691661 0.141583
C41   C     C_R   0.212854 0.690079 0.226013 -0.168577
C42   C     C_R   0.787380 0.190340 0.773230 -0.177748
H17   H     H_    0.187388 0.561633 0.203437 0.148681
H18   H     H_    0.813165 0.061940 0.794881 0.145803
C43   C     C_R   0.180175 0.858031 0.195629 -0.071712
C44   C     C_R   0.819625 0.358380 0.804909 -0.067432
O11   O     O_R   0.913920 0.203370 0.916260 -0.534083
O12   O     O_R   0.086080 0.703370 0.083740 -0.533059
O13   O     O_R   0.047620 0.535540 0.888290 -0.522192
O14   O     O_R   0.952380 0.035540 0.111710 -0.517678
C45   C     C_R   0.064759 0.368790 0.862660 0.811943
C46   C     C_R   0.935261 0.867693 0.137275 0.814757
O15   O     O_R   0.912040 0.532780 0.904220 -0.552132
O16   O     O_R   0.087960 0.032780 0.095780 -0.553061
O17   O     O_R   0.949550 0.708160 0.099720 -0.543494
O18   O     O_R   0.050450 0.208160 0.900280 -0.543264
C47   C     C_R   0.886707 0.364584 0.879472 0.668190
C48   C     C_R   0.113226 0.864507 0.120685 0.670528
O19   O     O_3   0.012480 0.375300 0.064060 -0.375339
O20   O     O_3   0.987520 0.875300 0.935940 -0.379363
V3    V     V_3+5 0.997690 0.648180 0.988110 1.480182
V4    V     V_3+5 0.002310 0.148180 0.011890 1.484173
S1    S     S_3+6 0.798152 0.966817 0.472732 0.044288
O21   O     O_2   0.746473 0.114846 0.435231 -0.338065
O22   O     O_2   0.768392 0.830493 0.534162 -0.340893
O23   O     O_3   0.867035 0.066200 0.546354 -0.433600
H19   H     H_    0.849080 0.136598 0.596669 0.381870
S2    S     S_3+6 0.203872 0.498569 0.529225 0.042482
O24   O     O_2   0.264453 0.620841 0.568052 -0.347071
O25   O     O_2   0.221670 0.361260 0.457288 -0.335159
O26   O     O_3   0.140306 0.633484 0.467506 -0.423243
H20   H     H_    0.158288 0.691669 0.413086 0.388089
S3    S     S_3+6 0.928492 0.656522 0.495817 0.113538
O27   O     O_2   0.899422 0.702065 0.584747 -0.283339
O28   O     O_2   0.919443 0.453973 0.475658 -0.286810
O29   O     O_3   0.012394 0.705814 0.523014 -0.430388
H21   H     H_    0.029596 0.661520 0.592599 0.369836
S4    S     S_3+6 0.069606 0.215673 0.493983 0.129610
O30   O     O_2   0.049463 0.365445 0.417196 -0.271011
O31   O     O_2   0.117822 0.086347 0.459447 -0.289437
O32   O     O_3   0.999278 0.098834 0.504184 -0.439538
H22   H     H_    0.970492 0.095721 0.435272 0.386190
N1    N     N_2   0.817852 0.996070 0.015765 -0.513218
H23   H     H_    0.804798 0.115591 0.975430 0.251594
C49   C     C_3   0.809366 0.835105 0.952745 -0.545392
H24   H     H_    0.849346 0.837838 0.908923 0.217661
H25   H     H_    0.757937 0.835114 0.901425 0.166268
H26   H     H_    0.815796 0.706321 0.998052 0.197665
N2    N     N_2   0.182677 0.490125 0.985749 -0.515633
H27   H     H_    0.195928 0.609881 0.025434 0.251006
C50   C     C_3   0.190283 0.329721 0.049600 -0.542259
H28   H     H_    0.150344 0.334488 0.093402 0.218609
H29   H     H_    0.241704 0.328619 0.100938 0.165139
H30   H     H_    0.183139 0.200794 0.004876 0.199516

loop_
_geom_bond_atom_site_label_1
_geom_bond_atom_site_label_2
_ccdc_geom_bond_type
C40   H16   S    
C37   C39   A    
S3    O27   D    
C33   C35   A    
C9    C11   A    
N1    H23   S    
O1    C3    A    
O12   C48   A    
O2    C4    A    
C32   C45   S    
C2    O7    A    
O3    V1    S    
C21   C23   A    
C40   C42   A    
O14   V4    S    
O5    C3    A    
O13   V3    S    
C5    H5    S    
C25   N1    S    
C6    H6    S    
N2    C50   S    
C45   O18   A    
O14   C46   A    
S4    O30   D    
C27   H7    S    
S2    O26   S    
C28   H8    S    
C36   H14   S    
C5    C21   A    
C41   H17   S    
C6    C22   A    
O11   V4    S    
O19   V4    S    
C10   C32   A    
O11   C47   A    
C39   H15   S    
S2    O25   D    
C42   C44   A    
C13   C15   A    
C41   C43   A    
C12   C14   A    
C17   C25   A    
C7    C29   A    
C16   C18   A    
C8    C30   A    
O12   V3    S    
C49   H26   S    
O15   V3    S    
C22   C24   A    
O6    V2    S    
C12   S4    S    
C11   C13   A    
C23   C25   A    
C24   C26   A    
C46   O17   A    
O29   H21   S    
C50   H29   S    
O17   V3    S    
C35   H13   S    
C34   C44   A    
O4    C2    A    
S1    O21   D    
C10   H10   S    
C3    C8    S    
O16   C48   A    
C15   C19   A    
C34   C36   A    
C1    C38   S    
C38   C40   A    
C2    C37   S    
O4    V2    S    
C17   C31   A    
S1    O22   D    
O26   H20   S    
O6    C4    A    
S2    O24   D    
O13   C45   A    
C11   S3    S    
N1    C49   S    
O1    V2    S    
O2    V1    S    
H2    C30   S    
H3    C23   S    
C14   S2    S    
S3    O29   S    
C13   S1    S    
C33   H11   S    
C18   C26   A    
C19   C27   A    
C7    C27   A    
C18   C32   A    
C49   H24   S    
C50   H30   S    
C16   C20   A    
C5    C29   A    
O3    C1    A    
C6    C30   A    
C50   H28   S    
C9    H9    S    
C35   C37   A    
O16   V4    S    
C31   C46   S    
C4    C7    S    
C36   C38   A    
C10   C12   A    
O7    V1    S    
C1    O8    A    
C19   C21   A    
O8    V2    S    
O32   H22   S    
S1    O23   S    
C20   C22   A    
H4    C24   S    
S4    O31   D    
C26   N2    S    
C39   C41   A    
O5    V1    S    
C15   C17   A    
C34   H12   S    
H1    C29   S    
C44   C47   S    
O23   H19   S    
C43   C48   S    
C20   C28   A    
C8    C28   A    
O18   V4    S    
C33   C43   A    
O20   V3    S    
S3    O28   D    
O9    V2    S    
O10   V1    S    
C42   H18   S    
N2    H27   S    
O15   C47   A    
C9    C31   A    
C14   C16   A    
C49   H25   S    
S4    O32   S    
