data_str_m3_o10_o14_f0_pcu.sym.146
_audit_creation_date              2012-12-10T16:50:03-0500
_audit_creation_method            fapswitch 2.2
_symmetry_space_group_name_H-M    P1
_symmetry_Int_Tables_number       1
_space_group_crystal_system       triclinic
_cell_length_a                    7.81115
_cell_length_b                    8.56592
_cell_length_c                    10.595291
_cell_angle_alpha                 91.272254
_cell_angle_beta                  85.274247
_cell_angle_gamma                 93.882528
_cell_volume                      704.797552971

loop_
_atom_site_label
_atom_site_type_symbol
_atom_type_description
_atom_site_fract_x
_atom_site_fract_y
_atom_site_fract_z
_atom_type_partial_charge
C1    C     C_R   0.545816 0.794623 0.496602 0.926767
C2    C     C_R   0.454195 0.205374 0.502743 0.953808
C3    C     C_R   0.499304 0.502020 0.260785 0.847073
C4    C     C_R   0.427763 0.788911 0.878119 -0.181473
C5    C     C_R   0.390948 0.923626 0.948798 -0.133173
C6    C     C_R   0.389434 0.922907 0.080227 -0.144689
C7    C     C_R   0.423109 0.787259 0.141500 -0.180201
C8    C     C_R   0.460006 0.649540 0.071215 0.097556
C9    C     C_3   0.951452 0.312294 0.289060 0.237654
C10   C     C_3   0.058260 0.202895 0.205207 -0.924430
C11   C     C_R   0.463037 0.650534 0.938915 0.092465
C12   C     C_R   0.506125 0.513146 0.871393 -0.081448
C13   C     C_R   0.551552 0.380345 0.930206 -0.202592
C14   C     C_R   0.548264 0.379298 0.059300 -0.244762
C15   C     C_R   0.499584 0.511056 0.128607 -0.087630
C16   C     C_2   0.569698 0.958350 0.494008 -0.392343
C17   C     C_2   0.430302 0.041614 0.503901 -0.394807
C18   C     C_R   0.501809 0.503331 0.739200 0.848789
H1    H     H_    0.586130 0.276605 0.876003 0.148693
H2    H     H_    0.942867 0.421355 0.235311 0.156180
H3    H     H_    0.822566 0.252288 0.310294 0.166048
H4    H     H_    0.071647 0.092671 0.255758 0.257833
H5    H     H_    0.994439 0.174519 0.116894 0.222488
H6    H     H_    0.188043 0.259939 0.179858 0.263263
H7    H     H_    0.988410 0.624945 0.589190 0.147847
H8    H     H_    0.431155 0.795064 0.776108 0.141710
H9    H     H_    0.365092 0.029170 0.901418 0.139111
H10   H     H_    0.363724 0.027992 0.134905 0.140045
H11   H     H_    0.422541 0.792238 0.243511 0.146068
H12   H     H_    0.581624 0.275133 0.105626 0.140027
H13   H     H_    0.701212 0.009796 0.484323 0.191904
H14   H     H_    0.298791 0.990162 0.513306 0.188298
N1    N     N_2   0.950330 0.457950 0.466250 0.094110
N2    N     N_2   0.049670 0.542050 0.533750 -0.086764
O1    O     O_R   0.389250 0.738570 0.508280 -0.630434
O2    O     O_R   0.678390 0.711630 0.486650 -0.639140
O3    O     O_R   0.355400 0.513470 0.694050 -0.620496
O4    O     O_R   0.644540 0.486530 0.672420 -0.627199
O5    O     O_R   0.321610 0.288370 0.513350 -0.555825
O6    O     O_R   0.610750 0.261430 0.491720 -0.634229
O7    O     O_R   0.355460 0.513470 0.327580 -0.580471
O8    O     O_R   0.644600 0.486530 0.305950 -0.664859
O9    O     O_3   0.032881 0.344998 0.400678 -0.493025
Zn1   Zn    Zn3+2 0.306930 0.517990 0.514440 1.000449
Zn2   Zn    Zn3+2 0.693070 0.482010 0.485560 0.951805

loop_
_geom_bond_atom_site_label_1
_geom_bond_atom_site_label_2
_ccdc_geom_bond_type
C4    H8    S    
C11   C12   A    
C3    O8    A    
C6    C7    A    
C7    H11   S    
C10   H5    S    
N1    Zn2   S    
C9    C10   S    
C9    H2    S    
H7    N2    S    
C4    C11   A    
O3    Zn1   S    
N1    N2    D    
C18   O4    A    
N2    Zn1   S    
O2    Zn2   S    
C1    C16   S    
C13   C14   A    
C10   H4    S    
C2    C17   S    
O1    Zn1   S    
C9    H3    S    
O5    Zn1   S    
C14   H12   S    
C8    C11   A    
C5    C6    A    
C18   O3    A    
C8    C15   A    
O6    Zn2   S    
O7    Zn1   S    
C9    O9    S    
C16   C17   D    
C13   H1    S    
N1    O9    S    
C2    O6    A    
C7    C8    A    
C3    C15   S    
C12   C13   A    
C1    O1    A    
C12   C18   S    
C17   H14   S    
C14   C15   A    
C3    O7    A    
O4    Zn2   S    
C10   H6    S    
C5    H9    S    
C2    O5    A    
C6    H10   S    
C1    O2    A    
C4    C5    A    
C16   H13   S    
O8    Zn2   S    
