data_str_m3_o10_o17_f0_pcu.sym.7
_audit_creation_date              2012-12-10T16:52:09-0500
_audit_creation_method            fapswitch 2.2
_symmetry_space_group_name_H-M    P1
_symmetry_Int_Tables_number       1
_space_group_crystal_system       triclinic
_cell_length_a                    7.79735
_cell_length_b                    8.39663
_cell_length_c                    14.860675
_cell_angle_alpha                 90.935927
_cell_angle_beta                  85.795716
_cell_angle_gamma                 93.740639
_cell_volume                      968.199494095

loop_
_atom_site_label
_atom_site_type_symbol
_atom_type_description
_atom_site_fract_x
_atom_site_fract_y
_atom_site_fract_z
_atom_type_partial_charge
C1    C     C_R   0.546295 0.795684 0.507549 0.822582
C2    C     C_R   0.549068 0.640479 0.812912 -0.205835
C3    C     C_R   0.493355 0.500478 0.232289 -0.027641
C4    C     C_R   0.506538 0.498595 0.767876 -0.050561
C5    C     C_R   0.539275 0.642086 0.186775 -0.254538
C6    C     C_R   0.463125 0.356502 0.813295 -0.204586
C7    C     C_R   0.541384 0.643125 0.093557 0.124856
C8    C     C_R   0.459855 0.355434 0.906565 0.103448
C9    C     C_R   0.498155 0.499648 0.046980 0.062971
C10   C     C_R   0.502021 0.498996 0.953250 0.057824
C11   C     C_R   0.451466 0.356774 0.094228 0.129181
C12   C     C_R   0.455057 0.205254 0.513188 0.817770
C13   C     C_R   0.547592 0.642046 0.906070 0.109689
C14   C     C_R   0.586831 0.784305 0.046292 -0.221038
C15   C     C_R   0.414198 0.214252 0.953777 -0.201057
C16   C     C_R   0.589596 0.783838 0.952656 -0.196131
C17   C     C_R   0.409783 0.214969 0.047504 -0.223580
C18   C     C_2   0.572713 0.958642 0.536562 0.096881
C19   C     C_2   0.434493 0.045344 0.547006 0.128649
C20   C     C_R   0.502097 0.499923 0.672756 0.944432
C21   C     C_R   0.497830 0.499673 0.327321 0.859282
C22   C     C_R   0.448578 0.358661 0.187544 -0.264869
H1    H     H_    0.414264 0.250371 0.225432 0.128975
H2    H     H_    0.985670 0.613689 0.570485 0.261862
H3    H     H_    0.848814 0.905947 0.711523 0.377521
H4    H     H_    0.101628 0.135322 0.724368 0.375922
H5    H     H_    0.580701 0.749184 0.775520 0.199185
H6    H     H_    0.573666 0.750290 0.224091 0.129863
H7    H     H_    0.431410 0.248068 0.775963 0.209333
H8    H     H_    0.620160 0.894593 0.081698 0.151614
H9    H     H_    0.381444 0.103918 0.918265 0.177698
H10   H     H_    0.624764 0.893803 0.916694 0.163076
H11   H     H_    0.374006 0.105073 0.083402 0.153377
H12   H     H_    0.013285 0.383833 0.430349 0.202697
N1    N     N_2   0.950330 0.457950 0.475660 -0.142835
N2    N     N_2   0.049670 0.542050 0.524340 -0.123785
O1    O     O_R   0.389250 0.738570 0.505970 -0.590062
O2    O     O_2   0.733017 0.155693 0.654075 -0.307992
O3    O     O_3   0.807432 0.858405 0.654998 -0.550796
O4    O     O_2   0.151459 0.873012 0.609969 -0.234717
O5    O     O_2   0.365862 0.946943 0.717242 -0.365417
O6    O     O_3   0.172021 0.165636 0.668342 -0.509215
O7    O     O_R   0.610750 0.261430 0.494030 -0.590689
O8    O     O_R   0.678390 0.711620 0.490370 -0.574300
O9    O     O_R   0.321610 0.288380 0.509630 -0.558442
O10   O     O_R   0.355420 0.513510 0.639950 -0.571857
O11   O     O_R   0.644580 0.486490 0.360050 -0.619838
O12   O     O_R   0.644560 0.486560 0.624350 -0.581111
O13   O     O_R   0.355440 0.513440 0.375650 -0.633320
O14   O     O_2   0.907611 0.053229 0.524340 -0.233408
S1    S     S_3+6 0.760727 0.013564 0.593097 0.078878
S2    S     S_3+6 0.278140 0.002859 0.637882 0.048957
Zn1   Zn    Zn3+2 0.306940 0.517990 0.510420 1.068340
Zn2   Zn    Zn3+2 0.693060 0.482010 0.489580 1.052756

loop_
_geom_bond_atom_site_label_1
_geom_bond_atom_site_label_2
_ccdc_geom_bond_type
O3    S1    S    
C15   H9    S    
C2    H5    S    
O2    S1    D    
C16   H10   S    
C5    H6    S    
C5    C7    A    
C9    C10   A    
O7    Zn2   S    
C2    C4    A    
N1    N2    D    
C1    O1    A    
C1    O8    A    
O1    Zn1   S    
C21   O13   A    
O14   S1    D    
O9    Zn1   S    
H2    N2    S    
H3    O3    S    
N1    Zn2   S    
O12   Zn2   S    
C9    C11   A    
C1    C18   S    
C20   O12   A    
C17   H11   S    
C14   H8    S    
O11   Zn2   S    
O13   Zn1   S    
C19   S2    S    
O10   Zn1   S    
C4    C6    A    
C12   C19   S    
C18   S1    S    
C18   C19   D    
C8    C15   A    
C7    C9    A    
C14   C16   A    
C3    C21   S    
C4    C20   S    
O8    Zn2   S    
C6    H7    S    
H4    O6    S    
C11   C22   A    
C8    C10   A    
H12   N1    S    
C13   C16   A    
C15   C17   A    
C2    C13   A    
C22   H1    S    
C11   C17   A    
C3    C22   A    
C6    C8    A    
N2    Zn1   S    
O5    S2    D    
C3    C5    A    
O4    S2    D    
C12   O7    A    
C7    C14   A    
C20   O10   A    
O6    S2    S    
C12   O9    A    
C21   O11   A    
C10   C13   A    
