data_str_m3_o4_o16_f0_pcu.sym.9
_audit_creation_date              2012-12-10T20:30:16-0500
_audit_creation_method            fapswitch 2.2
_symmetry_space_group_name_H-M    P1
_symmetry_Int_Tables_number       1
_space_group_crystal_system       triclinic
_cell_length_a                    10.004363
_cell_length_b                    10.897391
_cell_length_c                    13.357728
_cell_angle_alpha                 93.089597
_cell_angle_beta                  72.20299
_cell_angle_gamma                 86.204883
_cell_volume                      1379.33074593

loop_
_atom_site_label
_atom_site_type_symbol
_atom_type_description
_atom_site_fract_x
_atom_site_fract_y
_atom_site_fract_z
_atom_type_partial_charge
C1    C     C_R   0.496817 0.739872 0.498376 0.907722
C2    C     C_R   0.375080 0.516813 0.822435 -0.143611
C3    C     C_R   0.376285 0.951968 0.542465 0.102163
C4    C     C_R   0.422333 0.505993 0.704070 0.922472
C5    C     C_R   0.494910 0.871789 0.489579 -0.209596
C6    C     C_R   0.617840 0.920217 0.429051 -0.116350
C7    C     C_R   0.626997 0.047752 0.427046 -0.026183
C8    C     C_R   0.510642 0.127238 0.488537 -0.237565
C9    C     C_R   0.384551 0.077722 0.537494 0.121553
C10   C     C_3   0.246045 0.101127 0.515922 -0.174762
C11   C     C_3   0.231642 0.962746 0.527964 -0.192302
C12   C     C_R   0.426987 0.476888 0.986493 -0.040667
C13   C     C_R   0.893782 0.568598 0.575034 0.086672
C14   C     C_R   0.964384 0.428093 0.427105 -0.010322
C15   C     C_R   0.107669 0.430544 0.426552 -0.024237
C16   C     C_R   0.506053 0.260164 0.493435 0.861673
C17   C     C_R   0.033878 0.561068 0.579709 0.232110
C18   C     C_3   0.026107 0.694101 0.604856 -0.559415
C19   C     C_3   0.882986 0.706631 0.589808 -0.299165
C20   C     C_R   0.576957 0.493761 0.297879 0.846241
C21   C     C_R   0.768694 0.356175 0.022707 -0.015270
C22   C     C_R   0.618790 0.465948 0.184852 -0.028165
C23   C     C_R   0.472817 0.488361 0.877177 0.099169
C24   C     C_R   0.232888 0.553479 0.881718 -0.091987
C25   C     C_R   0.185499 0.546032 0.992271 -0.030667
C26   C     C_R   0.280937 0.499701 0.043560 -0.055289
C27   C     C_2   0.746687 0.094116 0.347747 0.494416
C28   C     C_2   0.139315 0.189417 0.598856 0.533131
C29   C     C_2   0.261578 0.138784 0.405255 0.394434
C30   C     C_2   0.116858 0.940606 0.627864 0.425050
C31   C     C_2   0.226788 0.889098 0.428957 0.377244
C32   C     C_2   0.932011 0.348608 0.346748 0.570844
C33   C     C_2   0.884579 0.772072 0.494101 0.594920
C34   C     C_R   0.533982 0.451024 0.034424 0.028647
C35   C     C_2   0.902961 0.281415 0.966873 0.477442
C36   C     C_2   0.135755 0.607142 0.828502 0.407526
C37   C     C_2   0.228980 0.472650 0.155504 0.490272
C38   C     C_2   0.037423 0.592647 0.052970 0.533960
C39   C     C_2   0.671396 0.609931 0.799854 0.422594
C40   C     C_R   0.669405 0.397206 0.972583 0.154309
C41   C     C_R   0.709617 0.413157 0.864765 -0.241523
C42   C     C_R   0.619250 0.489299 0.829233 -0.014062
C43   C     C_R   0.520209 0.499335 0.135443 -0.265682
C44   C     C_R   0.739032 0.388317 0.130670 -0.232322
H1    H     H_    0.020208 0.716837 0.687678 0.236876
H2    H     H_    0.111128 0.731415 0.544526 0.216579
H3    H     H_    0.801410 0.750296 0.660469 0.226095
H4    H     H_    0.820146 0.401859 0.818933 0.212776
H5    H     H_    0.916919 0.723529 0.416211 0.115382
H6    H     H_    0.987167 0.275721 0.002389 0.103138
H7    H     H_    0.434514 0.567361 0.176164 0.188632
H8    H     H_    0.171818 0.676570 0.773752 0.120195
H9    H     H_    0.262307 0.384739 0.178521 0.093001
H10   H     H_    0.987824 0.672810 0.029319 0.088985
H11   H     H_    0.780645 0.623938 0.790542 0.098315
H12   H     H_    0.810091 0.354380 0.171875 0.178463
H13   H     H_    0.704396 0.857904 0.379255 0.189981
H14   H     H_    0.729392 0.176647 0.310308 -0.023980
H15   H     H_    0.033568 0.206674 0.593754 0.066739
H16   H     H_    0.363432 0.155116 0.351392 0.048419
H17   H     H_    0.007393 0.954755 0.630641 0.136321
H18   H     H_    0.315050 0.826334 0.382450 0.088914
H19   H     H_    0.825041 0.334369 0.354667 0.074548
H20   H     H_    0.191641 0.377739 0.365894 0.176513
N1    N     N_R   0.856940 0.500860 0.500710 -0.186709
N2    N     N_R   0.142580 0.500820 0.500710 -0.138912
O1    O     O_R   0.385310 0.683210 0.499990 -0.644416
O2    O     O_2   0.169455 0.240561 0.671751 -0.500889
O3    O     O_2   0.159032 0.147104 0.374134 -0.484112
O4    O     O_2   0.144621 0.911903 0.706940 -0.555997
O5    O     O_2   0.125584 0.903492 0.396963 -0.457535
O6    O     O_2   0.024163 0.297494 0.270863 -0.557542
O7    O     O_2   0.853857 0.883173 0.503887 -0.523278
O8    O     O_2   0.919306 0.221644 0.883407 -0.528288
O9    O     O_2   0.018287 0.572157 0.843259 -0.627058
O10   O     O_2   0.160301 0.551835 0.223165 -0.556773
O11   O     O_2   0.968028 0.541159 0.127852 -0.565238
O12   O     O_R   0.614650 0.683240 0.500000 -0.611012
O13   O     O_2   0.591612 0.697189 0.793786 -0.569936
O14   O     O_R   0.328390 0.499940 0.653610 -0.586187
O15   O     O_R   0.557730 0.499980 0.653620 -0.593559
O16   O     O_R   0.385350 0.316760 0.500000 -0.615833
O17   O     O_R   0.614690 0.316790 0.500010 -0.638093
O18   O     O_R   0.442270 0.500020 0.346380 -0.632724
O19   O     O_R   0.671610 0.500060 0.346390 -0.634545
O20   O     O_2   0.863278 0.037799 0.319979 -0.449729
Zn1   Zn    Zn3+2 0.346870 0.499980 0.499990 0.978264
Zn2   Zn    Zn3+2 0.653130 0.500020 0.500010 0.968789

loop_
_geom_bond_atom_site_label_1
_geom_bond_atom_site_label_2
_ccdc_geom_bond_type
C35   O8    D    
C41   C42   A    
C6    H13   S    
O18   Zn1   S    
C7    C8    A    
C32   O6    D    
C13   N1    A    
C12   C23   A    
C17   N2    A    
C24   C36   S    
C23   C42   A    
C1    C5    S    
C28   O2    D    
C4    O14   A    
O14   Zn1   S    
C5    C6    A    
C19   H3    S    
C28   H15   S    
C33   H5    S    
O16   Zn1   S    
C7    C27   S    
C18   C19   S    
C41   H4    S    
C39   H11   S    
C4    O15   A    
C11   C30   S    
C8    C9    A    
C15   H20   S    
C9    C10   S    
C36   H8    S    
C37   H9    S    
C31   O5    D    
O17   Zn2   S    
C11   C31   S    
C8    C16   S    
C1    O12   A    
C31   H18   S    
C18   H2    S    
C30   O4    D    
C39   C42   S    
C29   O3    D    
O12   Zn2   S    
C13   C19   S    
C24   C25   A    
C19   C33   S    
N2    Zn1   S    
C25   C26   A    
C15   N2    A    
C16   O17   A    
C12   C26   A    
C39   O13   D    
C27   O20   D    
C2    C4    S    
C3    C9    A    
C36   O9    D    
C25   C38   S    
C21   C44   A    
C44   H12   S    
C22   C43   A    
C38   H10   S    
C29   H16   S    
C20   O19   A    
C35   H6    S    
C16   O16   A    
C17   C18   S    
C33   O7    D    
C40   C41   A    
C37   O10   D    
C20   C22   S    
C20   O18   A    
C2    C24   A    
C34   C40   A    
C12   C34   A    
C18   H1    S    
N1    Zn2   S    
O19   Zn2   S    
C10   C28   S    
C22   C44   A    
C34   C43   A    
C32   H19   S    
C14   C32   S    
C3    C5    A    
C27   H14   S    
C26   C37   S    
C6    C7    A    
C21   C35   S    
C38   O11   D    
O1    Zn1   S    
C13   C17   A    
C10   C29   S    
C43   H7    S    
C21   C40   A    
C1    O1    A    
C14   N1    A    
O15   Zn2   S    
C3    C11   S    
C10   C11   S    
C30   H17   S    
C2    C23   A    
C14   C15   A    
