data_str_m2_o14_o18_f0_pcu.sym.170
_audit_creation_date              2012-12-10T17:19:55-0500
_audit_creation_method            fapswitch 2.2
_symmetry_space_group_name_H-M    P1
_symmetry_Int_Tables_number       1
_space_group_crystal_system       triclinic
_cell_length_a                    9.608377
_cell_length_b                    10.78309
_cell_length_c                    15.501246
_cell_angle_alpha                 87.530825
_cell_angle_beta                  73.749578
_cell_angle_gamma                 90.083561
_cell_volume                      1540.30315137

loop_
_atom_site_label
_atom_site_type_symbol
_atom_type_description
_atom_site_fract_x
_atom_site_fract_y
_atom_site_fract_z
_atom_type_partial_charge
C1    C     C_R   0.998437 0.262606 0.503410 0.818053
C2    C     C_R   0.674883 0.533174 0.906050 -0.037427
C3    C     C_R   0.770547 0.590678 0.947396 0.127180
C4    C     C_R   0.524246 0.530550 0.950604 0.089367
C5    C     C_R   0.475877 0.552967 0.043613 0.059166
C6    C     C_R   0.576901 0.599951 0.085562 -0.216643
C7    C     C_R   0.720596 0.623232 0.036893 -0.202962
C8    C     C_R   0.420550 0.517208 0.902862 -0.095492
C9    C     C_R   0.273576 0.507235 0.947199 -0.236980
C10   C     C_R   0.225951 0.510466 0.040680 0.159369
C11   C     C_R   0.326938 0.532385 0.090059 0.091595
C12   C     C_R   0.917820 0.500587 0.672162 0.852395
C13   C     C_R   0.078259 0.492626 0.085399 -0.198605
C14   C     C_R   0.029984 0.492119 0.178956 -0.199281
C15   C     C_R   0.276274 0.528445 0.184318 -0.250174
C16   C     C_R   0.087295 0.120401 0.644053 -0.124772
C17   C     C_R   0.131662 0.051397 0.709508 -0.103466
C18   C     C_R   0.131814 0.922469 0.709314 -0.128967
C19   C     C_R   0.087767 0.861837 0.643593 -0.168769
C20   C     C_R   0.044343 0.929784 0.575652 0.098129
C21   C     C_R   0.044030 0.060959 0.575904 0.098001
C22   C     C_R   0.995423 0.128421 0.509729 -0.087830
C23   C     C_R   0.998832 0.737100 0.502827 0.756556
C24   C     C_R   0.942090 0.067299 0.447813 -0.191198
C25   C     C_R   0.942488 0.939385 0.447540 -0.197893
C26   C     C_R   0.996113 0.870543 0.509228 -0.081892
C27   C     C_R   0.697858 0.667144 0.382259 -0.142502
C28   C     C_R   0.651989 0.750015 0.325244 -0.214693
C29   C     C_R   0.508295 0.751386 0.325915 -0.220612
C30   C     C_R   0.409746 0.669332 0.383144 -0.144850
C31   C     C_R   0.451207 0.583861 0.443164 0.212361
C32   C     C_R   0.600788 0.583514 0.443078 0.202965
C33   C     C_R   0.550794 0.416345 0.550453 -0.016471
C34   C     C_R   0.082462 0.501845 0.327814 0.774425
C35   C     C_R   0.402550 0.417575 0.551685 -0.057037
C36   C     C_R   0.873176 0.516931 0.769810 -0.125665
C37   C     C_R   0.129243 0.507671 0.228956 -0.049153
C38   C     C_R   0.915049 0.614322 0.898637 -0.213188
C39   C     C_R   0.964010 0.582767 0.809125 -0.263682
C40   C     C_R   0.734255 0.478388 0.822534 0.291830
Cu1   Cu    Cu3+1 0.140660 0.499990 0.500010 0.930428
Cu2   Cu    Cu3+1 0.859340 0.500010 0.499990 0.969151
H1    H     H_    0.793455 0.665124 0.069907 0.143607
H2    H     H_    0.000380 0.477127 0.048050 0.147081
H3    H     H_    0.903199 0.119151 0.397923 0.151399
H4    H     H_    0.084259 0.220051 0.649005 0.154393
H5    H     H_    0.164178 0.098169 0.761322 0.155816
H6    H     H_    0.085590 0.761720 0.647887 0.149569
H7    H     H_    0.588193 0.345035 0.589055 0.203585
H8    H     H_    0.810968 0.671378 0.374598 0.191221
H9    H     H_    0.729107 0.812787 0.279509 0.148358
H10   H     H_    0.350887 0.536647 0.224372 0.154770
H11   H     H_    0.473010 0.815265 0.280685 0.155696
H12   H     H_    0.303365 0.675994 0.376026 0.196418
H13   H     H_    0.328323 0.349748 0.594041 0.145161
H14   H     H_    0.915695 0.476919 0.212114 0.160833
H15   H     H_    0.197283 0.495207 0.908206 0.155361
H16   H     H_    0.988391 0.661595 0.928593 0.144849
H17   H     H_    0.073087 0.609733 0.770755 0.164909
H18   H     H_    0.545774 0.627396 0.154318 0.150154
H19   H     H_    0.452030 0.520758 0.830352 0.183783
N1    N     N_R   0.648320 0.501210 0.499140 -0.213455
N2    N     N_R   0.352470 0.501290 0.499110 -0.205071
O1    O     O_R   0.118810 0.319640 0.500010 -0.589049
O2    O     O_R   0.881240 0.319660 0.500000 -0.563372
O3    O     O_R   0.055570 0.499980 0.629840 -0.601458
O4    O     O_R   0.818000 0.500010 0.629830 -0.534463
O5    O     O_R   0.118760 0.680340 0.500000 -0.605610
O6    O     O_R   0.881190 0.680360 0.499990 -0.590926
O7    O     O_R   0.182000 0.499990 0.370170 -0.595829
O8    O     O_R   0.944430 0.500020 0.370160 -0.605672
H20   H     H_    0.164420 0.869076 0.760980 0.139540
H21   H     H_    0.903874 0.893879 0.397452 0.139067
S1    S     S_3+6 0.666138 0.331494 0.802715 -0.007042
O9    O     O_2   0.560886 0.347536 0.747852 -0.313459
O10   O     O_2   0.788348 0.252070 0.753013 -0.317815
O11   O     O_3   0.580406 0.257863 0.901200 -0.495469
H22   H     H_    0.655277 0.247884 0.933702 0.342354

loop_
_geom_bond_atom_site_label_1
_geom_bond_atom_site_label_2
_ccdc_geom_bond_type
C8    C9    A    
C14   H14   S    
C16   C21   A    
C34   C37   S    
Cu1   Cu2   S    
C23   O6    A    
C19   C20   A    
C4    C8    A    
O11   H22   S    
C30   H12   S    
S1    O10   D    
C24   H3    S    
C28   C29   A    
C5    C11   A    
C3    C7    A    
C30   C31   A    
C28   H9    S    
C33   H7    S    
C18   C19   A    
C23   C26   S    
C15   C37   A    
C38   H16   S    
C11   C15   A    
C3    C38   A    
C16   C17   A    
S1    O11   S    
Cu2   O2    S    
C1    O2    A    
C7    H1    S    
C12   C36   S    
C9    C10   A    
Cu2   N1    S    
C9    H15   S    
C27   H8    S    
C8    H19   S    
C1    C22   S    
C21   C22   A    
Cu1   O5    S    
C18   H20   S    
C38   C39   A    
C12   O4    A    
S1    O9    D    
C35   H13   S    
C31   N2    A    
C36   C40   A    
C24   C25   A    
C16   H4    S    
C19   H6    S    
C33   N1    A    
C25   C26   A    
C12   O3    A    
Cu2   O6    S    
C23   O5    A    
C2    C4    A    
C29   C30   A    
C6    H18   S    
C31   C32   A    
C39   H17   S    
C17   C18   A    
C15   H10   S    
Cu1   O3    S    
Cu2   O4    S    
C22   C24   A    
Cu1   N2    S    
C1    O1    A    
C34   O7    A    
C27   C32   A    
C36   C39   A    
C17   H5    S    
C4    C5    A    
C20   C26   A    
C10   C13   A    
C6    C7    A    
C2    C3    A    
C32   N1    A    
C14   C37   A    
C5    C6    A    
C29   H11   S    
Cu2   O8    S    
C33   C35   A    
C40   S1    S    
C25   H21   S    
C10   C11   A    
C2    C40   A    
C20   C21   A    
C27   C28   A    
C35   N2    A    
Cu1   O1    S    
C13   C14   A    
C34   O8    A    
C13   H2    S    
Cu1   O7    S    
