data_str_m3_o10_o12_f0_pcu.sym.165
_audit_creation_date              2012-12-10T16:48:41-0500
_audit_creation_method            fapswitch 2.2
_symmetry_space_group_name_H-M    P1
_symmetry_Int_Tables_number       1
_space_group_crystal_system       triclinic
_cell_length_a                    7.984172
_cell_length_b                    8.541522
_cell_length_c                    11.051931
_cell_angle_alpha                 89.367397
_cell_angle_beta                  96.435625
_cell_angle_gamma                 93.657397
_cell_volume                      747.4276344

loop_
_atom_site_label
_atom_site_type_symbol
_atom_type_description
_atom_site_fract_x
_atom_site_fract_y
_atom_site_fract_z
_atom_type_partial_charge
C1    C     C_R   0.544128 0.793872 0.496881 0.963098
C2    C     C_R   0.455870 0.206127 0.503112 0.941457
C3    C     C_R   0.568266 0.490315 0.732689 0.800997
C4    C     C_R   0.431037 0.504683 0.267127 0.798774
C5    C     C_2   0.606073 0.480716 0.862134 0.196090
C6    C     C_2   0.391788 0.498027 0.137439 0.199228
C7    C     C_2   0.482480 0.479539 0.933163 -0.178314
C8    C     C_2   0.514498 0.488081 0.066571 -0.177404
C9    C     C_2   0.566769 0.958067 0.495162 -0.346103
C10   C     C_2   0.433232 0.041939 0.504840 -0.341518
H1    H     H_    0.692978 0.009292 0.485929 0.186712
H2    H     H_    0.307024 0.990717 0.514074 0.189318
N1    N     N_2   0.940600 0.458860 0.467170 -0.160923
N2    N     N_2   0.059400 0.541140 0.532830 -0.155162
O1    O     O_R   0.391630 0.738350 0.508060 -0.605638
O2    O     O_R   0.608370 0.261650 0.491940 -0.616976
O3    O     O_R   0.674540 0.711990 0.487010 -0.613893
O4    O     O_R   0.325460 0.288010 0.512990 -0.629057
O5    O     O_R   0.411370 0.508250 0.688780 -0.625865
O6    O     O_R   0.588630 0.491750 0.311220 -0.627378
O7    O     O_R   0.694270 0.481880 0.667740 -0.580418
O8    O     O_R   0.305730 0.518120 0.332260 -0.571054
Zn1   Zn    Zn3+2 0.311100 0.517600 0.514050 1.006051
Zn2   Zn    Zn3+2 0.688900 0.482400 0.485950 1.000072
H3    H     H_    0.642367 0.489642 0.110005 0.240657
H4    H     H_    0.354658 0.476839 0.889456 0.240551
S1    S     S_3+6 0.183422 0.493772 0.076502 0.105774
O9    O     O_2   0.168911 0.632355 0.991698 -0.193716
O10   O     O_2   0.150455 0.342262 0.007268 -0.278468
O11   O     O_3   0.046180 0.503265 0.180903 -0.462142
H5    H     H_    0.023841 0.393180 0.206556 0.360805
S2    S     S_3+6 0.814275 0.478498 0.922940 0.100302
O12   O     O_2   0.848979 0.627783 0.994706 -0.191375
O13   O     O_2   0.826602 0.337284 0.005243 -0.284791
O14   O     O_3   0.952058 0.471152 0.818501 -0.473513
H6    H     H_    0.949725 0.359133 0.795579 0.371803
H7    H     H_    0.984667 0.377706 0.412538 0.187812
H8    H     H_    0.015377 0.620113 0.589478 0.224206

loop_
_geom_bond_atom_site_label_1
_geom_bond_atom_site_label_2
_ccdc_geom_bond_type
N2    Zn1   S    
O5    Zn1   S    
C3    O5    A    
C1    O1    A    
S1    O10   D    
C2    O2    A    
C9    C10   D    
C1    O3    A    
C6    S1    S    
C5    S2    S    
S2    O12   D    
O1    Zn1   S    
C1    C9    S    
C7    C8    S    
O2    Zn2   S    
N1    N2    D    
S1    O11   S    
C8    H3    S    
C9    H1    S    
C7    H4    S    
C10   H2    S    
O11   H5    S    
C3    O7    A    
O3    Zn2   S    
N2    H8    S    
O4    Zn1   S    
C4    O6    A    
S2    O14   S    
C4    O8    A    
C4    C6    S    
O7    Zn2   S    
S1    O9    D    
C5    C7    D    
O8    Zn1   S    
C6    C8    D    
N1    H7    S    
O6    Zn2   S    
N1    Zn2   S    
S2    O13   D    
C2    O4    A    
C3    C5    S    
O14   H6    S    
C2    C10   S    
