data_str_m4_o22_o22_f0_acs.sym.23
_audit_creation_date              2012-12-11T15:06:56-0500
_audit_creation_method            fapswitch 2.2
_symmetry_space_group_name_H-M    P1
_symmetry_Int_Tables_number       1
_space_group_crystal_system       triclinic
_cell_length_a                    19.626165
_cell_length_b                    11.379383
_cell_length_c                    18.698493
_cell_angle_alpha                 89.908928
_cell_angle_beta                  89.973142
_cell_angle_gamma                 90.003139
_cell_volume                      4175.99691981

loop_
_atom_site_label
_atom_site_type_symbol
_atom_type_description
_atom_site_fract_x
_atom_site_fract_y
_atom_site_fract_z
_atom_type_partial_charge
C1    C     C_R   0.761238 0.525285 0.639642 0.535215
C2    C     C_3   0.254383 0.061156 0.563748 0.041844
C3    C     C_R   0.740468 0.036255 0.152284 0.527534
C4    C     C_R   0.774346 0.133480 0.859169 0.533460
C5    C     C_R   0.226187 0.131760 0.141556 0.532529
C6    C     C_R   0.274346 0.633481 0.859169 0.533461
C7    C     C_R   0.726187 0.631760 0.141556 0.532529
C8    C     C_R   0.967424 0.353307 0.854476 0.535015
C9    C     C_R   0.030761 0.353379 0.146634 0.532659
C10   C     C_R   0.467424 0.853307 0.854476 0.535017
C11   C     C_R   0.530761 0.853379 0.146634 0.532659
C12   C     C_3   0.685081 0.135134 0.463925 -0.210599
C13   C     C_3   0.245614 0.560781 0.436316 0.042118
C14   C     C_3   0.314918 0.135493 0.535977 -0.210725
C15   C     C_3   0.185081 0.635134 0.463925 -0.210599
C16   C     C_3   0.814918 0.635493 0.535977 -0.210725
C17   C     C_3   0.695112 0.161225 0.543684 -0.042588
C18   C     C_3   0.304918 0.161304 0.456125 -0.042562
C19   C     C_3   0.195112 0.661225 0.543684 -0.042588
C20   C     C_3   0.804917 0.661304 0.456125 -0.042562
C21   C     C_3   0.752234 0.945796 0.481109 -0.231028
C22   C     C_3   0.247784 0.946066 0.519310 -0.230574
C23   C     C_3   0.252234 0.445796 0.481109 -0.231027
C24   C     C_3   0.754384 0.561156 0.563748 0.041843
C25   C     C_3   0.747784 0.446066 0.519310 -0.230573
C26   C     C_3   0.757881 0.093676 0.574464 0.061170
C27   C     C_3   0.242133 0.093625 0.425540 0.061357
C28   C     C_3   0.257881 0.593676 0.574464 0.061170
C29   C     C_3   0.742133 0.593625 0.425540 0.061357
C30   C     C_3   0.745259 0.964307 0.561866 -0.266060
C31   C     C_3   0.254752 0.964300 0.438503 -0.266531
C32   C     C_3   0.245259 0.464307 0.561866 -0.266060
C33   C     C_R   0.238714 0.524972 0.360441 0.534360
C34   C     C_3   0.754752 0.464300 0.438503 -0.266531
C35   C     C_3   0.822654 0.131126 0.530628 -0.247231
C36   C     C_3   0.177351 0.131180 0.469232 -0.247043
C37   C     C_3   0.322654 0.631126 0.530628 -0.247231
C38   C     C_3   0.677351 0.631180 0.469232 -0.247043
C39   C     C_3   0.005176 0.199619 0.459004 -0.224872
C40   C     C_3   0.994786 0.199717 0.541307 -0.224583
C41   C     C_3   0.505176 0.699619 0.459004 -0.224873
C42   C     C_3   0.494786 0.699717 0.541307 -0.224583
C43   C     C_3   0.063610 0.400913 0.473815 -0.215802
C44   C     C_R   0.261238 0.025285 0.639642 0.535215
C45   C     C_3   0.936371 0.401039 0.526038 -0.216007
C46   C     C_3   0.563610 0.900913 0.473815 -0.215801
C47   C     C_3   0.436371 0.901040 0.526038 -0.216007
C48   C     C_3   0.940282 0.379180 0.445488 -0.265451
C49   C     C_3   0.059682 0.379327 0.554424 -0.265646
C50   C     C_3   0.440282 0.879181 0.445488 -0.265451
C51   C     C_3   0.559682 0.879327 0.554424 -0.265646
C52   C     C_3   0.010077 0.327971 0.430718 0.052438
C53   C     C_3   0.989896 0.328151 0.569299 0.052192
C54   C     C_3   0.510077 0.827971 0.430718 0.052438
C55   C     C_R   0.738714 0.024972 0.360441 0.534360
C56   C     C_3   0.489895 0.828151 0.569299 0.052192
C57   C     C_3   0.820320 0.031256 0.048005 -0.231756
C58   C     C_3   0.186907 0.009979 0.956346 -0.226402
C59   C     C_3   0.320320 0.531257 0.048005 -0.231757
C60   C     C_3   0.686908 0.509979 0.956346 -0.226402
C61   C     C_R   0.773578 0.121316 0.649746 0.552270
C62   C     C_R   0.226449 0.121174 0.350222 0.551571
C63   C     C_R   0.273579 0.621316 0.649746 0.552270
C64   C     C_R   0.726449 0.621174 0.350222 0.551571
C65   C     C_3   0.822505 0.037146 0.967716 -0.225562
C66   C     C_3   0.809715 0.133253 0.449518 -0.276058
C67   C     C_3   0.184473 0.016888 0.036518 -0.232763
C68   C     C_3   0.322505 0.537146 0.967716 -0.225561
C69   C     C_3   0.684473 0.516888 0.036518 -0.232762
C70   C     C_3   0.693169 0.012534 0.032061 -0.221907
C71   C     C_3   0.317909 0.033727 0.968851 -0.214530
C72   C     C_3   0.193169 0.512535 0.032061 -0.221908
C73   C     C_3   0.817909 0.533725 0.968852 -0.214530
C74   C     C_3   0.744532 0.204095 0.061349 -0.253684
C75   C     C_3   0.244388 0.199271 0.937704 -0.259315
C76   C     C_3   0.244532 0.704096 0.061349 -0.253684
C77   C     C_3   0.190268 0.133546 0.550335 -0.276355
C78   C     C_3   0.744389 0.699270 0.937704 -0.259315
C79   C     C_3   0.749730 0.072969 0.075846 0.059268
C80   C     C_3   0.252723 0.068022 0.925745 0.062408
C81   C     C_3   0.249730 0.572969 0.075846 0.059267
C82   C     C_3   0.752723 0.568021 0.925746 0.062408
C83   C     C_3   0.760591 0.106255 0.936571 0.061523
C84   C     C_3   0.240285 0.102170 0.064581 0.057677
C85   C     C_3   0.260591 0.606255 0.936571 0.061523
C86   C     C_3   0.740285 0.602170 0.064581 0.057677
C87   C     C_3   0.699232 0.027526 0.949809 -0.259465
C88   C     C_3   0.309715 0.633253 0.449518 -0.276058
C89   C     C_3   0.308760 0.044311 0.050886 -0.252028
C90   C     C_3   0.199232 0.527527 0.949809 -0.259465
C91   C     C_3   0.808760 0.544310 0.050887 -0.252027
C92   C     C_3   0.745084 0.221742 0.979093 -0.217425
C93   C     C_3   0.238916 0.216895 0.019698 -0.229073
C94   C     C_3   0.245085 0.721742 0.979094 -0.217425
C95   C     C_3   0.738916 0.716894 0.019698 -0.229074
C96   C     C_3   0.994968 0.478550 0.042297 -0.233407
C97   C     C_3   0.991874 0.478589 0.961380 -0.226910
C98   C     C_3   0.494968 0.978549 0.042297 -0.233406
C99   C     C_3   0.690268 0.633546 0.550335 -0.276355
C100  C     C_3   0.491873 0.978589 0.961380 -0.226911
C101  C     C_3   0.067536 0.296811 0.026557 -0.224787
C102  C     C_3   0.937299 0.270917 0.973703 -0.212869
C103  C     C_3   0.567536 0.796811 0.026556 -0.224787
C104  C     C_3   0.437299 0.770917 0.973703 -0.212870
C105  C     C_3   0.945602 0.279360 0.055619 -0.254751
C106  C     C_3   0.057748 0.297951 0.944529 -0.261937
C107  C     C_3   0.445602 0.779359 0.055620 -0.254751
C108  C     C_3   0.557748 0.797952 0.944529 -0.261936
C109  C     C_R   0.969607 0.341365 0.645366 0.535532
C110  C     C_3   0.745614 0.060781 0.436316 0.042118
C111  C     C_R   0.030374 0.341265 0.354630 0.534474
C112  C     C_R   0.469607 0.841365 0.645366 0.535532
C113  C     C_R   0.530374 0.841265 0.354630 0.534474
C114  C     C_3   0.008803 0.352114 0.070141 0.058803
C115  C     C_3   0.987953 0.351102 0.931235 0.063165
C116  C     C_3   0.508803 0.852113 0.070141 0.058803
C117  C     C_3   0.487953 0.851102 0.931235 0.063163
C118  C     C_R   0.760782 0.532590 0.849229 0.531567
C119  C     C_R   0.240468 0.536255 0.152284 0.527533
C120  C     C_R   0.260781 0.032591 0.849229 0.531565
Cr1   Cr    Cr6+3 0.885690 0.492860 0.745310 1.019785
Cr2   Cr    Cr6+3 0.111880 0.178590 0.246990 1.003148
Cr3   Cr    Cr6+3 0.388120 0.678590 0.753010 1.003808
Cr4   Cr    Cr6+3 0.611880 0.678590 0.246990 1.003148
Cr5   Cr    Cr6+3 0.114310 0.492860 0.254690 1.018971
Cr6   Cr    Cr6+3 0.385690 0.992860 0.745310 1.019784
Cr7   Cr    Cr6+3 0.614310 0.992860 0.254690 1.018971
Cr8   Cr    Cr6+3 0.729880 0.332270 0.748190 1.036917
Cr9   Cr    Cr6+3 0.270120 0.332270 0.251810 1.036243
Cr10  Cr    Cr6+3 0.229880 0.832270 0.748190 1.036917
Cr11  Cr    Cr6+3 0.770120 0.832270 0.251810 1.036243
Cr12  Cr    Cr6+3 0.888120 0.178590 0.753010 1.003808
H1    H     H_    0.637439 0.089256 0.455771 0.158951
H2    H     H_    0.194370 0.917080 0.527770 0.156058
H3    H     H_    0.450570 0.034528 0.943589 0.134598
H4    H     H_    0.946737 0.511092 0.065105 0.119757
H5    H     H_    0.037906 0.523293 0.939888 0.117046
H6    H     H_    0.446737 0.011091 0.065105 0.119757
H7    H     H_    0.537905 0.023293 0.939888 0.117047
H8    H     H_    0.608509 0.853747 0.038946 0.109061
H9    H     H_    0.384542 0.782712 0.957136 0.109322
H10   H     H_    0.108509 0.353749 0.038945 0.109061
H11   H     H_    0.884542 0.282711 0.957134 0.109322
H12   H     H_    0.598001 0.850441 0.917699 0.106741
H13   H     H_    0.305644 0.416759 0.472798 0.155567
H14   H     H_    0.400107 0.819852 0.080587 0.103749
H15   H     H_    0.098002 0.350440 0.917699 0.106739
H16   H     H_    0.900107 0.319854 0.080586 0.103749
H17   H     H_    0.952851 0.190578 0.079132 0.117629
H18   H     H_    0.060996 0.207343 0.922678 0.112566
H19   H     H_    0.452852 0.690576 0.079132 0.117629
H20   H     H_    0.560996 0.707344 0.922678 0.112567
H21   H     H_    0.951717 0.180176 0.959350 0.124214
H22   H     H_    0.077416 0.206152 0.044877 0.132839
H23   H     H_    0.451716 0.680176 0.959349 0.124215
H24   H     H_    0.694370 0.417080 0.527770 0.156058
H25   H     H_    0.577415 0.706151 0.044876 0.132839
H26   H     H_    0.716829 0.878555 0.463175 0.097384
H27   H     H_    0.283148 0.878873 0.537539 0.097639
H28   H     H_    0.216829 0.378555 0.463175 0.097384
H29   H     H_    0.783148 0.378873 0.537539 0.097639
H30   H     H_    0.693858 0.939662 0.581001 0.132816
H31   H     H_    0.306149 0.939605 0.419447 0.132686
H32   H     H_    0.193858 0.439662 0.581001 0.132816
H33   H     H_    0.806149 0.439605 0.419447 0.132686
H34   H     H_    0.854024 0.095477 0.420684 0.140295
H35   H     H_    0.782954 0.909326 0.591041 0.121805
H36   H     H_    0.145963 0.095810 0.579267 0.140290
H37   H     H_    0.354024 0.595477 0.420684 0.140295
H38   H     H_    0.645963 0.595810 0.579267 0.140290
H39   H     H_    0.801933 0.224317 0.430113 0.105512
H40   H     H_    0.198027 0.224659 0.569471 0.105732
H41   H     H_    0.301933 0.724317 0.430113 0.105512
H42   H     H_    0.698027 0.724659 0.569471 0.105732
H43   H     H_    0.842516 0.216165 0.548615 0.112686
H44   H     H_    0.157470 0.216134 0.450952 0.112973
H45   H     H_    0.342516 0.716165 0.548615 0.112686
H46   H     H_    0.217042 0.909244 0.409507 0.121459
H47   H     H_    0.657470 0.716134 0.450952 0.112973
H48   H     H_    0.282954 0.409326 0.591041 0.121805
H49   H     H_    0.717041 0.409244 0.409507 0.121459
H50   H     H_    0.049340 0.148761 0.443691 0.138020
H51   H     H_    0.950609 0.148878 0.556754 0.138252
H52   H     H_    0.549340 0.648761 0.443691 0.138020
H53   H     H_    0.362587 0.089682 0.544345 0.159187
H54   H     H_    0.450609 0.648878 0.556754 0.138252
H55   H     H_    0.962478 0.152523 0.433020 0.116581
H56   H     H_    0.037475 0.152660 0.567417 0.116744
H57   H     H_    0.462478 0.652523 0.433020 0.116581
H58   H     H_    0.537475 0.652660 0.567417 0.116744
H59   H     H_    0.614649 0.888023 0.453133 0.109488
H60   H     H_    0.385350 0.888140 0.546760 0.109383
H61   H     H_    0.114649 0.388023 0.453133 0.109488
H62   H     H_    0.885350 0.388140 0.546760 0.109383
H63   H     H_    0.600391 0.819375 0.572450 0.104602
H64   H     H_    0.137439 0.589256 0.455771 0.158951
H65   H     H_    0.399566 0.819153 0.427685 0.104368
H66   H     H_    0.100391 0.319375 0.572450 0.104602
H67   H     H_    0.899566 0.319153 0.427685 0.104368
H68   H     H_    0.933333 0.460364 0.415354 0.176416
H69   H     H_    0.066583 0.460654 0.584272 0.176441
H70   H     H_    0.433333 0.960364 0.415354 0.176416
H71   H     H_    0.566583 0.960654 0.584272 0.176441
H72   H     H_    0.949864 0.494646 0.534193 0.167606
H73   H     H_    0.050082 0.494485 0.465401 0.167791
H74   H     H_    0.449864 0.994646 0.534193 0.167606
H75   H     H_    0.862587 0.589682 0.544345 0.159187
H76   H     H_    0.550082 0.994485 0.465401 0.167791
H77   H     H_    0.833242 0.939693 0.062954 0.139481
H78   H     H_    0.180737 0.918644 0.940507 0.138862
H79   H     H_    0.333242 0.439694 0.062955 0.139481
H80   H     H_    0.680736 0.418644 0.940507 0.138862
H81   H     H_    0.680610 0.218374 0.433154 0.113821
H82   H     H_    0.319317 0.218851 0.566473 0.113685
H83   H     H_    0.180610 0.718374 0.433154 0.113821
H84   H     H_    0.819318 0.718851 0.566473 0.113685
H85   H     H_    0.860685 0.086252 0.071703 0.116462
H86   H     H_    0.861483 0.062171 0.540434 0.144594
H87   H     H_    0.141288 0.054504 0.933609 0.116730
H88   H     H_    0.360685 0.586254 0.071703 0.116462
H89   H     H_    0.641289 0.554505 0.933609 0.116730
H90   H     H_    0.871481 0.072095 0.951593 0.135961
H91   H     H_    0.131952 0.042800 0.051083 0.135764
H92   H     H_    0.371481 0.572093 0.951593 0.135960
H93   H     H_    0.631952 0.542800 0.051083 0.135763
H94   H     H_    0.822780 0.946238 0.945737 0.116379
H95   H     H_    0.192001 0.928923 0.060339 0.119135
H96   H     H_    0.322779 0.446238 0.945737 0.116378
H97   H     H_    0.138551 0.062151 0.459604 0.144597
H98   H     H_    0.692001 0.428923 0.060339 0.119135
H99   H     H_    0.701146 0.922427 0.045662 0.108885
H100  H     H_    0.337854 0.948156 0.953256 0.109329
H101  H     H_    0.201147 0.422428 0.045662 0.108885
H102  H     H_    0.837855 0.448154 0.953257 0.109328
H103  H     H_    0.705978 0.941291 0.923157 0.107458
H104  H     H_    0.311223 0.956724 0.076800 0.104405
H105  H     H_    0.205978 0.441292 0.923157 0.107458
H106  H     H_    0.811222 0.456724 0.076800 0.104405
H107  H     H_    0.696297 0.237864 0.084749 0.117526
H108  H     H_    0.361483 0.562171 0.540434 0.144594
H109  H     H_    0.288484 0.249033 0.915776 0.114449
H110  H     H_    0.196297 0.737865 0.084749 0.117525
H111  H     H_    0.788485 0.749031 0.915777 0.114450
H112  H     H_    0.787424 0.251747 0.086740 0.103319
H113  H     H_    0.198217 0.232219 0.909813 0.105340
H114  H     H_    0.287424 0.751748 0.086740 0.103319
H115  H     H_    0.698219 0.732218 0.909813 0.105340
H116  H     H_    0.778014 0.294475 0.963545 0.106907
H117  H     H_    0.189425 0.249765 0.029499 0.109820
H118  H     H_    0.278014 0.794477 0.963545 0.106907
H119  H     H_    0.638551 0.562151 0.459604 0.144597
H120  H     H_    0.689426 0.749764 0.029497 0.109820
H121  H     H_    0.692492 0.246514 0.964480 0.119164
H122  H     H_    0.278998 0.277833 0.038142 0.124136
H123  H     H_    0.192492 0.746515 0.964481 0.119163
H124  H     H_    0.778998 0.777833 0.038142 0.124136
H125  H     H_    0.642765 0.043540 0.050093 0.129558
H126  H     H_    0.356430 0.099982 0.953889 0.122152
H127  H     H_    0.142765 0.543541 0.050093 0.129558
H128  H     H_    0.856430 0.599979 0.953890 0.122152
H129  H     H_    0.710935 0.248966 0.547689 0.146475
H130  H     H_    0.805644 0.916759 0.472798 0.155567
H131  H     H_    0.289156 0.249106 0.451634 0.147262
H132  H     H_    0.210935 0.748966 0.547689 0.146475
H133  H     H_    0.789156 0.749106 0.451634 0.147262
H134  H     H_    0.652246 0.067771 0.927527 0.114378
H135  H     H_    0.349302 0.100596 0.074123 0.119455
H136  H     H_    0.152246 0.567773 0.927528 0.114377
H137  H     H_    0.849302 0.600595 0.074124 0.119455
H138  H     H_    0.034016 0.543177 0.058595 0.134350
H139  H     H_    0.950572 0.534530 0.943588 0.134599
H140  H     H_    0.534015 0.043176 0.058595 0.134350
I1    I     I_    0.600819 0.185422 0.601278 -0.435812
I2    I     I_    0.399274 0.185274 0.398569 -0.436868
I3    I     I_    0.100819 0.685422 0.601278 -0.435812
I4    I     I_    0.899274 0.685274 0.398569 -0.436868
O1    O     O_R   0.957210 0.449410 0.665480 -0.506263
O2    O     O_R   0.167480 0.095300 0.164000 -0.533715
O3    O     O_R   0.332520 0.595300 0.836000 -0.533403
O4    O     O_R   0.667480 0.595300 0.164000 -0.533715
O5    O     O_R   0.946380 0.253940 0.826940 -0.513924
O6    O     O_R   0.053620 0.253940 0.173060 -0.514080
O7    O     O_R   0.446380 0.753940 0.826940 -0.513925
O8    O     O_R   0.553620 0.753940 0.173060 -0.514080
O9    O     O_3   0.834560 0.334570 0.748840 -0.287478
O10   O     O_3   0.165440 0.334570 0.251160 -0.284617
O11   O     O_3   0.334560 0.834570 0.748840 -0.287478
O12   O     O_R   0.042790 0.449410 0.334520 -0.506838
O13   O     O_3   0.665440 0.834570 0.251160 -0.284617
O14   O     O_R   0.820730 0.541240 0.668250 -0.513586
O15   O     O_R   0.179270 0.541240 0.331750 -0.514128
O16   O     O_R   0.320730 0.041240 0.668250 -0.513586
O17   O     O_R   0.679270 0.041240 0.331750 -0.514128
O18   O     O_R   0.714240 0.455060 0.663710 -0.507164
O19   O     O_R   0.285760 0.455060 0.336290 -0.507680
O20   O     O_R   0.214240 0.955060 0.663710 -0.507164
O21   O     O_R   0.785760 0.955060 0.336290 -0.507680
O22   O     O_R   0.736780 0.204870 0.675910 -0.477316
O23   O     O_R   0.457210 0.949410 0.665480 -0.506263
O24   O     O_R   0.263220 0.204870 0.324090 -0.477867
O25   O     O_R   0.236780 0.704870 0.675910 -0.477316
O26   O     O_R   0.763220 0.704870 0.324090 -0.477867
O27   O     O_R   0.833070 0.087590 0.673490 -0.528634
O28   O     O_R   0.166930 0.087590 0.326510 -0.528803
O29   O     O_R   0.333070 0.587590 0.673490 -0.528634
O30   O     O_R   0.666930 0.587590 0.326510 -0.528803
O31   O     O_R   0.946890 0.246800 0.676300 -0.512815
O32   O     O_R   0.053110 0.246800 0.323700 -0.513121
O33   O     O_R   0.446890 0.746800 0.676300 -0.512814
O34   O     O_R   0.542790 0.949410 0.334520 -0.506838
O35   O     O_R   0.553110 0.746800 0.323700 -0.513121
O36   O     O_R   0.956650 0.457120 0.827980 -0.524851
O37   O     O_R   0.043350 0.457120 0.172020 -0.524793
O38   O     O_R   0.456650 0.957120 0.827980 -0.524851
O39   O     O_R   0.543350 0.957120 0.172020 -0.524793
O40   O     O_R   0.820220 0.548390 0.818890 -0.511021
O41   O     O_R   0.179780 0.548390 0.181110 -0.510706
O42   O     O_R   0.320220 0.048390 0.818890 -0.511021
O43   O     O_R   0.679780 0.048390 0.181110 -0.510706
O44   O     O_R   0.713680 0.462770 0.826210 -0.530422
O45   O     O_R   0.736260 0.212010 0.826560 -0.504518
O46   O     O_R   0.286320 0.462770 0.173790 -0.530132
O47   O     O_R   0.213680 0.962770 0.826210 -0.530422
O48   O     O_R   0.786320 0.962770 0.173790 -0.530132
O49   O     O_R   0.263740 0.212010 0.173440 -0.504272
O50   O     O_R   0.236260 0.712010 0.826560 -0.504518
O51   O     O_R   0.763740 0.712010 0.173440 -0.504272
O52   O     O_R   0.832520 0.095300 0.836000 -0.533403

loop_
_geom_bond_atom_site_label_1
_geom_bond_atom_site_label_2
_ccdc_geom_bond_type
C5    C84   S    
Cr11  O26   S    
Cr6   O38   S    
C3    C79   S    
C21   C110  S    
Cr7   O13   S    
C71   H126  S    
Cr8   O18   S    
C6    C85   S    
C1    O18   A    
C98   H6    S    
Cr2   O28   S    
C9    C114  S    
C89   H104  S    
Cr1   O1    S    
Cr3   O3    S    
C22   H27   S    
Cr10  O20   S    
C87   H103  S    
C21   H26   S    
C74   C92   S    
C76   C94   S    
C2    C22   S    
C38   H47   S    
C3    O43   A    
C97   C115  S    
C64   O30   A    
C90   H105  S    
C100  H3    S    
C25   C34   S    
C20   C29   S    
C74   H112  S    
C92   H121  S    
Cr12  O5    S    
C29   C64   S    
C96   C114  S    
C11   O8    A    
C65   H90   S    
C50   H70   S    
C57   H77   S    
C112  O23   A    
C48   H67   S    
C27   C31   S    
C28   C32   S    
C15   H83   S    
C93   H122  S    
C103  H25   S    
C35   C66   S    
C118  O44   A    
C119  O41   A    
C77   H36   S    
C20   I4    S    
C13   C33   S    
C75   H109  S    
C42   H58   S    
C16   C20   S    
C119  O46   A    
C66   C110  S    
C67   H91   S    
C60   H80   S    
C102  H21   S    
C73   H102  S    
C33   O19   A    
C15   H64   S    
C74   C79   S    
Cr10  O25   S    
C30   H30   S    
Cr12  O31   S    
C108  H12   S    
C75   C93   S    
C104  C117  S    
C53   C109  S    
C45   H62   S    
C14   H53   S    
C5    O49   A    
C88   H37   S    
C70   C79   S    
C95   H120  S    
C17   I1    S    
C85   C90   S    
C68   H96   S    
C81   C119  S    
C78   H111  S    
C61   O27   A    
C41   H57   S    
C106  C115  S    
C36   C77   S    
C35   H43   S    
C103  C116  S    
C51   H63   S    
C99   H42   S    
Cr1   O36   S    
C49   C53   S    
C84   C93   S    
C2    C14   S    
C86   C95   S    
C87   H134  S    
C28   C63   S    
C26   C35   S    
C48   C52   S    
C44   O20   A    
C104  H9    S    
C32   H48   S    
C100  C117  S    
C104  C107  S    
Cr7   O39   S    
C112  O33   A    
C106  H18   S    
Cr4   O30   S    
C46   H59   S    
C60   H89   S    
C12   C110  S    
C92   H116  S    
C72   H101  S    
C46   H76   S    
C113  O35   A    
C102  C105  S    
C38   C99   S    
C27   C62   S    
C30   H35   S    
C77   H40   S    
C43   C52   S    
C7    C86   S    
Cr9   O19   S    
C4    O52   A    
C13   C23   S    
Cr4   O35   S    
C58   H87   S    
C47   H60   S    
C6    O50   A    
C70   H99   S    
C19   H132  S    
C70   H125  S    
C38   H119  S    
C25   H29   S    
Cr12  O27   S    
C29   C38   S    
C1    O14   A    
C111  O12   A    
C41   H52   S    
C34   H33   S    
Cr11  O48   S    
Cr7   O17   S    
C40   H51   S    
C107  H19   S    
C45   C53   S    
C108  H20   S    
C96   C97   S    
C25   H24   S    
Cr2   O32   S    
C68   C85   S    
C68   H92   S    
C70   C87   S    
C94   H118  S    
C97   H5    S    
C59   H79   S    
C47   C50   S    
C9    O37   A    
Cr4   O8    S    
C49   H69   S    
Cr11  O13   S    
C31   H46   S    
C66   H39   S    
C39   C40   S    
C107  H14   S    
Cr6   O23   S    
C105  H16   S    
C46   C51   S    
C106  H15   S    
C100  H7    S    
C72   C90   S    
C101  H10   S    
C58   C67   S    
Cr12  O9    S    
C67   H95   S    
C8    O36   A    
C19   C28   S    
Cr5   O15   S    
Cr6   O16   S    
C26   C30   S    
C7    O51   A    
C4    O45   A    
C101  C106  S    
C118  O40   A    
C108  C117  S    
C5    O2    A    
Cr11  O51   S    
C40   H56   S    
C37   H45   S    
C109  O31   A    
C43   H61   S    
C62   O28   A    
C18   H131  S    
C10   C117  S    
C103  H8    S    
C101  H22   S    
C32   H32   S    
C9    O6    A    
C104  H23   S    
C107  C116  S    
C39   H50   S    
C55   O17   A    
C21   H130  S    
Cr12  O52   S    
C72   H127  S    
C102  H11   S    
C95   H124  S    
C47   C56   S    
C18   I2    S    
C83   C87   S    
C41   C42   S    
C37   C88   S    
C16   H75   S    
C96   H4    S    
C99   H38   S    
Cr1   O40   S    
C15   C19   S    
C50   C54   S    
C48   H68   S    
Cr1   O14   S    
C26   C61   S    
Cr8   O9    S    
C59   H88   S    
Cr8   O45   S    
C14   H82   S    
C34   H49   S    
C16   H84   S    
C14   C18   S    
Cr5   O41   S    
C102  C115  S    
C42   C56   S    
Cr10  O50   S    
C55   O21   A    
Cr7   O43   S    
C36   H97   S    
Cr8   O44   S    
C12   C17   S    
C72   C81   S    
C58   C80   S    
C101  C114  S    
C12   H81   S    
C6    O3    A    
C50   H65   S    
C51   H71   S    
Cr4   O4    S    
C64   O26   A    
Cr4   O13   S    
C97   H139  S    
C37   H108  S    
C98   H140  S    
C29   C34   S    
C89   H135  S    
C10   O7    A    
C76   C81   S    
C90   H136  S    
C109  O1    A    
C78   C95   S    
C46   C54   S    
Cr3   O33   S    
Cr1   O9    S    
C11   C116  S    
Cr2   O6    S    
Cr3   O11   S    
C60   C69   S    
C10   O38   A    
C36   H44   S    
C98   C100  S    
C7    O4    A    
C73   C82   S    
Cr10  O47   S    
C45   C48   S    
Cr7   O34   S    
Cr5   O10   S    
C47   H74   S    
Cr9   O49   S    
C59   C81   S    
C57   C65   S    
Cr10  O11   S    
C69   H93   S    
C27   C36   S    
C21   C30   S    
C113  O34   A    
C23   C32   S    
C2    C77   S    
C4    C83   S    
C57   H85   S    
C45   H72   S    
C91   H106  S    
C65   H94   S    
C17   H129  S    
C86   C91   S    
Cr11  O21   S    
C94   H123  S    
C80   C120  S    
C43   H73   S    
C24   C99   S    
C62   O24   A    
C57   C79   S    
C76   H110  S    
C63   O29   A    
C73   H128  S    
C83   C92   S    
C23   H13   S    
C22   H2    S    
C17   C26   S    
C28   C37   S    
Cr9   O10   S    
C65   C83   S    
C120  O47   A    
C96   H138  S    
C54   C113  S    
C51   C56   S    
C74   H107  S    
C78   C82   S    
C8    C115  S    
C60   C82   S    
C19   I3    S    
C71   H100  S    
C103  C108  S    
C120  O42   A    
C75   C80   S    
C75   H113  S    
C39   H55   S    
C42   H54   S    
C39   C52   S    
Cr5   O12   S    
C67   C84   S    
C16   C24   S    
Cr6   O11   S    
C71   C80   S    
C33   O15   A    
C93   H117  S    
C49   H66   S    
C58   H78   S    
C111  O32   A    
C31   H31   S    
C22   C31   S    
C66   H34   S    
C105  C114  S    
C24   C25   S    
C73   C91   S    
Cr5   O37   S    
C2    C44   S    
Cr6   O42   S    
C43   C49   S    
C52   C111  S    
C88   H41   S    
C59   C68   S    
C85   C94   S    
C98   C116  S    
C3    O48   A    
C71   C89   S    
C23   H28   S    
C78   H115  S    
C1    C24   S    
C63   O25   A    
C12   H1    S    
C13   C15   S    
C55   C110  S    
C84   C89   S    
C35   H86   S    
C61   O22   A    
C44   O16   A    
C76   H114  S    
C18   C27   S    
C91   H137  S    
C20   H133  S    
Cr8   O22   S    
C105  H17   S    
Cr9   O24   S    
Cr3   O29   S    
Cr9   O46   S    
Cr2   O10   S    
Cr2   O2    S    
Cr3   O7    S    
C69   H98   S    
C8    O5    A    
C11   O39   A    
C13   C88   S    
C41   C54   S    
C40   C53   S    
C82   C118  S    
C56   C112  S    
C69   C86   S    
