data_str_m3_o10_o29_f0_pcu.sym.125
_audit_creation_date              2012-12-10T16:59:13-0500
_audit_creation_method            fapswitch 2.2
_symmetry_space_group_name_H-M    P1
_symmetry_Int_Tables_number       1
_space_group_crystal_system       triclinic
_cell_length_a                    7.797433
_cell_length_b                    8.568436
_cell_length_c                    27.62817
_cell_angle_alpha                 92.170235
_cell_angle_beta                  86.377546
_cell_angle_gamma                 93.477501
_cell_volume                      1837.73423484

loop_
_atom_site_label
_atom_site_type_symbol
_atom_type_description
_atom_site_fract_x
_atom_site_fract_y
_atom_site_fract_z
_atom_type_partial_charge
C1    C     C_R   0.545417 0.794496 0.498928 0.948456
C2    C     C_R   0.557667 0.618596 0.129278 -0.189972
C3    C     C_R   0.513044 0.512850 0.646502 -0.035612
C4    C     C_R   0.486956 0.487150 0.353498 -0.035612
C5    C     C_R   0.573324 0.630069 0.027453 -0.128237
C6    C     C_R   0.426675 0.369931 0.972547 -0.128237
C7    C     C_R   0.399647 0.379479 0.023764 0.121899
C8    C     C_R   0.600353 0.620521 0.976236 0.121899
C9    C     C_R   0.481605 0.503660 0.050884 -0.001074
C10   C     C_R   0.518395 0.496340 0.949116 -0.001074
C11   C     C_R   0.623925 0.766555 0.055646 0.334955
C12   C     C_R   0.454582 0.205504 0.501072 0.948455
C13   C     C_R   0.376075 0.233445 0.944354 0.334955
C14   C     C_R   0.624141 0.756608 0.106715 0.391100
C15   C     C_R   0.375859 0.243392 0.893285 0.391100
C16   C     C_R   0.503497 0.502868 0.593874 0.848884
C17   C     C_R   0.496503 0.497132 0.406126 0.848884
C18   C     C_R   0.716388 0.726155 0.951239 -0.141340
C19   C     C_R   0.283611 0.273845 0.048761 -0.141340
C20   C     C_2   0.569385 0.957914 0.498887 -0.383586
C21   C     C_2   0.430615 0.042086 0.501113 -0.383586
C22   C     C_R   0.638500 0.619928 0.823581 0.483821
C23   C     C_R   0.531324 0.497937 0.898028 -0.119203
C24   C     C_R   0.361500 0.380071 0.176419 0.483821
C25   C     C_R   0.433536 0.402127 0.820743 0.545670
C26   C     C_R   0.566464 0.597873 0.179257 0.545670
C27   C     C_R   0.379420 0.564891 0.726337 -0.120671
C28   C     C_R   0.620580 0.435109 0.273662 -0.120671
C29   C     C_R   0.370289 0.556906 0.676269 -0.212747
C30   C     C_R   0.629711 0.443094 0.323730 -0.212747
C31   C     C_R   0.666185 0.480725 0.667376 -0.216175
C32   C     C_R   0.333815 0.519275 0.332624 -0.216174
C33   C     C_R   0.674476 0.487686 0.717468 -0.114018
C34   C     C_R   0.468676 0.502063 0.101972 -0.119202
C35   C     C_R   0.325523 0.512314 0.282532 -0.114018
C36   C     C_R   0.530606 0.528075 0.746994 0.292944
C37   C     C_R   0.469393 0.471925 0.253006 0.292944
C38   C     C_3   0.951857 0.247335 0.437547 0.194584
C39   C     C_3   0.061347 0.160621 0.399068 -0.879275
C40   C     C_3   0.048143 0.752665 0.562453 0.194584
C41   C     C_3   0.938653 0.839379 0.600932 -0.879275
C42   C     C_3   0.554100 0.966367 0.156366 0.156663
C43   C     C_3   0.628591 0.082849 0.193556 -0.750852
C44   C     C_3   0.445899 0.033633 0.843634 0.156663
C45   C     C_R   0.633608 0.616332 0.874125 0.036348
C46   C     C_3   0.371409 0.917150 0.806444 -0.750852
C47   C     C_3   0.770827 0.011230 0.043553 0.146238
C48   C     C_3   0.795448 0.132888 0.004584 -0.831859
C49   C     C_3   0.229172 0.988770 0.956447 0.146238
C50   C     C_3   0.204552 0.867112 0.995416 -0.831858
C51   C     C_R   0.366392 0.383668 0.125875 0.036348
C52   C     C_R   0.731281 0.725749 0.901038 -0.206674
C53   C     C_R   0.268719 0.274250 0.098962 -0.206674
C54   C     C_R   0.442332 0.381404 0.870722 -0.189971
H1    H     H_    0.778387 0.447469 0.645135 0.186138
H2    H     H_    0.267864 0.595900 0.749230 0.153837
H3    H     H_    0.801834 0.806631 0.969971 0.166229
H4    H     H_    0.198165 0.193369 0.030029 0.166229
H5    H     H_    0.824043 0.259680 0.423216 0.169138
H6    H     H_    0.938811 0.176246 0.470637 0.125354
H7    H     H_    0.190926 0.145835 0.412213 0.259694
H8    H     H_    0.998908 0.043365 0.391022 0.218324
H9    H     H_    0.075615 0.227403 0.365215 0.263764
H10   H     H_    0.061189 0.823753 0.529363 0.125354
H11   H     H_    0.175957 0.740320 0.576784 0.169138
H12   H     H_    0.221613 0.552531 0.354865 0.186138
H13   H     H_    0.924385 0.772597 0.634785 0.263764
H14   H     H_    0.001092 0.956635 0.608978 0.218324
H15   H     H_    0.809074 0.854165 0.587787 0.259694
H16   H     H_    0.453635 0.889559 0.175573 0.156037
H17   H     H_    0.491645 0.031013 0.128767 0.149355
H18   H     H_    0.523667 0.132262 0.217090 0.236990
H19   H     H_    0.705057 0.178994 0.174884 0.221275
H20   H     H_    0.712987 0.023632 0.217101 0.290486
H21   H     H_    0.546364 0.110441 0.824426 0.156037
H22   H     H_    0.508354 0.968987 0.871233 0.149355
H23   H     H_    0.790975 0.457778 0.733441 0.154831
H24   H     H_    0.287013 0.976368 0.782899 0.290486
H25   H     H_    0.476332 0.867738 0.782910 0.236990
H26   H     H_    0.294942 0.821006 0.825116 0.221275
H27   H     H_    0.889079 0.945402 0.043988 0.124507
H28   H     H_    0.751662 0.078678 0.078218 0.194472
H29   H     H_    0.684044 0.207115 0.006805 0.287561
H30   H     H_    0.912439 0.209607 0.010404 0.188471
H31   H     H_    0.806338 0.076644 0.967801 0.249909
H32   H     H_    0.248337 0.921322 0.921782 0.194472
H33   H     H_    0.110921 0.054598 0.956012 0.124507
H34   H     H_    0.209025 0.542222 0.266559 0.154831
H35   H     H_    0.193661 0.923356 0.032199 0.249909
H36   H     H_    0.087560 0.790394 0.989596 0.188471
H37   H     H_    0.315956 0.792885 0.993194 0.287561
H38   H     H_    0.700703 0.008351 0.497392 0.163016
H39   H     H_    0.299297 0.991649 0.502608 0.163016
H40   H     H_    0.818641 0.812397 0.883497 0.184774
H41   H     H_    0.181359 0.187603 0.116503 0.184774
H42   H     H_    0.748448 0.415828 0.339027 0.165056
H43   H     H_    0.251552 0.584172 0.660973 0.165056
H44   H     H_    0.732136 0.404100 0.250770 0.153837
N1    N     N_R   0.533009 0.518229 0.798348 -0.358302
N2    N     N_R   0.466990 0.481771 0.201652 -0.358302
N3    N     N_2   0.950320 0.457960 0.486880 0.161756
N4    N     N_2   0.049680 0.542040 0.513120 0.161756
O1    O     O_R   0.389250 0.738570 0.503220 -0.657224
O2    O     O_2   0.255392 0.274128 0.200109 -0.588348
O3    O     O_2   0.672288 0.693078 0.205510 -0.521207
O4    O     O_2   0.327711 0.306922 0.794490 -0.521206
O5    O     O_3   0.033479 0.394474 0.447499 -0.526747
O6    O     O_3   0.966521 0.605526 0.552501 -0.526747
O7    O     O_3   0.690019 0.881528 0.134329 -0.603973
O8    O     O_3   0.309981 0.118472 0.865671 -0.603973
O9    O     O_3   0.623851 0.911922 0.034329 -0.585752
O10   O     O_3   0.376148 0.088078 0.965671 -0.585752
O11   O     O_R   0.610750 0.261430 0.496780 -0.657224
O12   O     O_R   0.678390 0.711630 0.494810 -0.601665
O13   O     O_R   0.321610 0.288370 0.505190 -0.601665
O14   O     O_R   0.355440 0.513440 0.575450 -0.641197
O15   O     O_R   0.644560 0.486560 0.424550 -0.641197
O16   O     O_R   0.644590 0.486500 0.567040 -0.570977
O17   O     O_R   0.355410 0.513500 0.432960 -0.570977
O18   O     O_2   0.744608 0.725871 0.799891 -0.588348
Zn1   Zn    Zn3+2 0.306940 0.517990 0.505620 1.014150
Zn2   Zn    Zn3+2 0.693060 0.482010 0.494380 1.014150

loop_
_geom_bond_atom_site_label_1
_geom_bond_atom_site_label_2
_ccdc_geom_bond_type
C43   H19   S    
C14   O7    S    
C51   C53   A    
N3    O5    S    
C43   H18   S    
C23   C45   A    
C53   H41   S    
C49   H33   S    
C33   H23   S    
C18   C52   A    
C41   H13   S    
C22   O18   S    
C20   H38   S    
C34   C51   A    
N3    N4    D    
O13   Zn1   S    
C32   H12   S    
C35   C37   A    
C42   O7    S    
C5    C11   A    
C13   O10   S    
C46   H25   S    
C11   C14   A    
C27   C29   A    
C42   H16   S    
C33   C36   A    
C44   H22   S    
O16   Zn2   S    
C47   H28   S    
C38   O5    S    
C3    C29   A    
C30   H42   S    
C18   H3    S    
C25   N1    A    
O11   Zn2   S    
C44   C46   S    
C31   C33   A    
C52   H40   S    
N4    Zn1   S    
C1    O1    A    
C17   O15   A    
C40   O6    S    
C12   O13   A    
C2    C34   A    
C24   C51   A    
C15   O8    S    
C16   O14   A    
C26   O3    S    
C50   H36   S    
C25   O4    S    
C41   H14   S    
O17   Zn1   S    
C19   H4    S    
C39   H7    S    
N4    O6    S    
O14   Zn1   S    
C11   O9    S    
C32   C35   A    
C25   C54   A    
C46   H24   S    
C27   H2    S    
C45   C52   A    
C12   C21   S    
C8    C18   A    
C48   H30   S    
C24   O2    S    
C44   H21   S    
O15   Zn2   S    
C15   C54   A    
C5    C9    A    
C16   O16   A    
C35   H34   S    
C50   H35   S    
C47   C48   S    
C2    C26   A    
C3    C31   A    
C4    C32   A    
C49   O10   S    
C38   H6    S    
C4    C17   S    
C40   C41   S    
C7    C19   A    
C40   H11   S    
C13   C15   A    
C9    C34   A    
C10   C23   A    
C1    O12   A    
O1    Zn1   S    
C23   C54   A    
C41   H15   S    
C12   O11   A    
C28   H44   S    
C7    C9    A    
C39   H8    S    
C1    C20   S    
C22   N1    A    
C24   N2    A    
C49   H32   S    
C6    C10   A    
C5    C8    A    
C6    C7    A    
C27   C36   A    
C39   H9    S    
N3    Zn2   S    
C40   H10   S    
C48   H29   S    
C29   H43   S    
C28   C30   A    
C6    C13   A    
C46   H26   S    
C19   C53   A    
C38   C39   S    
C21   H39   S    
C28   C37   A    
C43   H20   S    
C47   O9    S    
C42   H17   S    
C36   N1    S    
C47   H27   S    
C2    C14   A    
C17   O17   A    
C38   H5    S    
O12   Zn2   S    
C50   H37   S    
C22   C45   A    
C20   C21   D    
C8    C10   A    
C49   C50   S    
C42   C43   S    
C48   H31   S    
C31   H1    S    
C37   N2    S    
C4    C30   A    
C3    C16   S    
C26   N2    A    
C44   O8    S    
