data_str_m9_o2_o25_f0_sra.sym.9
_audit_creation_date              2012-12-11T16:33:32-0500
_audit_creation_method            fapswitch 2.2
_symmetry_space_group_name_H-M    P1
_symmetry_Int_Tables_number       1
_space_group_crystal_system       triclinic
_cell_length_a                    6.950098
_cell_length_b                    18.251075
_cell_length_c                    20.164403
_cell_angle_alpha                 68.39006
_cell_angle_beta                  90.494102
_cell_angle_gamma                 90.930693
_cell_volume                      2377.68553335

loop_
_atom_site_label
_atom_site_type_symbol
_atom_type_description
_atom_site_fract_x
_atom_site_fract_y
_atom_site_fract_z
_atom_type_partial_charge
O1    O     O_R   0.488960 0.443750 0.941980 -0.528971
O2    O     O_R   0.823890 0.406510 0.087590 -0.545368
O3    O     O_R   0.999680 0.556250 0.058020 -0.541130
C1    C     C_R   0.653834 0.381579 0.113677 0.798934
O4    O     O_R   0.818360 0.434410 0.944340 -0.535102
O5    O     O_R   0.994110 0.584350 0.913750 -0.539112
C2    C     C_R   0.648932 0.421122 0.923226 0.769629
O6    O     O_R   0.494530 0.415650 0.086250 -0.518594
O7    O     O_3   0.662590 0.549160 0.990130 -0.375499
V1    V     V_3+5 0.935320 0.490880 0.001830 1.463684
O8    O     O_R   0.324180 0.593490 0.912410 -0.542082
C3    C     C_R   0.155551 0.616433 0.884905 0.682686
O9    O     O_R   0.329720 0.565590 0.055660 -0.540249
C4    C     C_R   0.162136 0.580046 0.075872 0.713164
V2    V     V_3+5 0.435990 0.509120 0.998170 1.468589
O10   O     O_3   0.158850 0.450840 0.009870 -0.358332
C5    C     C_3   0.007401 0.717137 0.300659 -0.218204
C6    C     C_3   0.190996 0.678468 0.285601 -0.145038
H1    H     H_    0.239784 0.617730 0.316582 0.123239
H2    H     H_    0.906785 0.687524 0.345257 0.132983
C7    C     C_1   0.156031 0.626741 0.120574 -0.169261
C8    C     C_1   0.109948 0.875410 0.377509 -0.183935
C9    C     C_3   0.958388 0.749654 0.219567 -0.132246
C10   C     C_3   0.142543 0.711764 0.205176 0.102072
C11   C     C_3   0.077037 0.825108 0.210576 0.169297
C12   C     C_3   0.124476 0.793081 0.290690 0.148448
C13   C     C_3   0.260727 0.787650 0.194705 -0.140650
C14   C     C_3   0.305715 0.754992 0.275585 0.169352
C15   C     C_1   0.150441 0.665355 0.158408 -0.022757
C16   C     C_1   0.115908 0.838251 0.338501 -0.035544
H3    H     H_    0.365467 0.816820 0.151366 0.122304
H4    H     H_    0.815535 0.748184 0.195011 0.128058
H5    H     H_    0.329609 0.536579 0.687010 0.123044
C17   C     C_R   0.047221 0.769522 0.880915 -0.142990
C18   C     C_R   0.994761 0.841797 0.882868 0.377307
C19   C     C_R   0.985628 0.907366 0.819307 -0.296398
C20   C     C_R   0.027763 0.901402 0.753351 0.313395
C21   C     C_R   0.077647 0.826770 0.750517 0.034318
C22   C     C_R   0.089359 0.760208 0.816040 -0.062135
C23   C     C_R   0.118821 0.816766 0.684944 -0.172944
C24   C     C_R   0.175262 0.741921 0.685838 0.044935
C25   C     C_R   0.189815 0.676644 0.751554 0.074772
C26   C     C_R   0.145884 0.685613 0.816510 -0.136550
C27   C     C_R   0.216581 0.730397 0.621674 -0.140517
C28   C     C_R   0.272055 0.657070 0.622441 -0.110828
C29   C     C_R   0.286871 0.593502 0.686681 -0.099043
C30   C     C_R   0.245887 0.602775 0.750604 -0.143763
H6    H     H_    0.055519 0.720641 0.931527 0.127844
H7    H     H_    0.946865 0.963825 0.821197 0.107854
H8    H     H_    0.205948 0.777659 0.570130 0.087751
H9    H     H_    0.303210 0.649526 0.572844 0.114583
H10   H     H_    0.258175 0.551298 0.799101 0.105315
H11   H     H_    0.780149 0.353834 0.424762 0.133403
C31   C     C_R   0.575153 0.090314 0.244996 0.099024
C32   C     C_R   0.512917 0.081797 0.182262 -0.243371
C33   C     C_R   0.481922 0.146624 0.120026 0.294876
C34   C     C_R   0.523219 0.223073 0.118624 0.324985
C35   C     C_R   0.585202 0.234731 0.182134 -0.053917
C36   C     C_R   0.594670 0.167627 0.247989 -0.007045
C37   C     C_R   0.639850 0.311318 0.181422 -0.149230
C38   C     C_R   0.682093 0.321765 0.246296 0.046093
C39   C     C_R   0.669988 0.256903 0.312186 0.065874
C40   C     C_R   0.625240 0.180329 0.313462 -0.135896
C41   C     C_R   0.731686 0.397219 0.247019 -0.149404
C42   C     C_R   0.767253 0.408257 0.310777 -0.118273
C43   C     C_R   0.753359 0.345004 0.375240 -0.106305
C44   C     C_R   0.705123 0.270245 0.376292 -0.129058
H12   H     H_    0.491289 0.023260 0.181197 0.126298
H13   H     H_    0.742213 0.448855 0.198518 0.096967
H14   H     H_    0.804679 0.466340 0.310125 0.116227
H15   H     H_    0.696468 0.223207 0.428073 0.096514
O11   O     O_R   0.770540 0.084530 0.414050 -0.542915
O12   O     O_R   0.445710 0.065660 0.555720 -0.530813
O13   O     O_R   0.270420 0.915650 0.586190 -0.537601
C45   C     C_R   0.615143 0.079765 0.576298 0.745076
O14   O     O_R   0.441140 0.093540 0.412470 -0.540817
O15   O     O_R   0.265820 0.943740 0.441930 -0.546161
C46   C     C_R   0.610419 0.114723 0.383943 0.698839
O16   O     O_R   0.775150 0.056440 0.558310 -0.521293
O17   O     O_3   0.602370 0.950960 0.510050 -0.375045
V3    V     V_3+5 0.329450 0.009140 0.498150 1.458317
O18   O     O_R   0.935790 0.934280 0.444060 -0.544416
C47   C     C_R   0.103517 0.920459 0.423527 0.699048
O19   O     O_R   0.940370 0.906390 0.587310 -0.526593
C48   C     C_R   0.108915 0.884061 0.615328 0.813727
V4    V     V_3+5 0.828810 0.990710 0.501460 1.453496
O20   O     O_3   0.105780 0.049100 0.489960 -0.361032
C49   C     C_3   0.767402 0.304062 0.730470 0.335306
C50   C     C_3   0.598410 0.296811 0.684396 0.337733
H16   H     H_    0.316064 0.312426 0.742535 0.158086
C51   C     C_1   0.624975 0.125217 0.621899 -0.180500
C52   C     C_1   0.638627 0.375252 0.877989 -0.184613
C53   C     C_3   0.804570 0.214907 0.754836 -0.259637
C54   C     C_3   0.631929 0.208070 0.708219 0.095487
C55   C     C_3   0.664369 0.200994 0.818445 -0.151774
C56   C     C_3   0.630399 0.290773 0.793072 0.097159
C57   C     C_3   0.492065 0.193448 0.771300 -0.163340
C58   C     C_3   0.457689 0.283830 0.746548 -0.257410
C59   C     C_1   0.629516 0.162741 0.660615 0.004591
C60   C     C_1   0.633589 0.337077 0.839839 0.025095
H17   H     H_    0.378239 0.146936 0.788319 0.133317
H18   H     H_    0.690327 0.161274 0.874483 0.145728
H19   H     H_    0.947548 0.187564 0.757857 0.131393
O21   O     O_3   0.023694 0.968444 0.692093 -0.646052
H20   H     H_    0.987154 0.014533 0.703881 0.282757
C61   C     C_3   0.637905 0.015056 0.303538 -0.704283
H21   H     H_    0.785727 0.023023 0.320967 0.207819
H22   H     H_    0.534985 0.996852 0.348347 0.213569
H23   H     H_    0.645049 0.964747 0.285154 0.181251
O22   O     O_3   0.417747 0.136447 0.058784 -0.655116
H24   H     H_    0.394339 0.079601 0.068865 0.289062
O23   O     O_3   0.499146 0.287169 0.055925 -0.651391
H25   H     H_    0.451396 0.270820 0.017054 0.324810
O24   O     O_3   0.567352 0.346775 0.613697 -0.643867
H26   H     H_    0.547535 0.399673 0.615496 0.290585
O25   O     O_3   0.909185 0.363260 0.708771 -0.648402
H27   H     H_    0.975971 0.355854 0.668500 0.292330
C62   C     C_3   0.502365 0.756655 0.308143 -0.812892
H28   H     H_    0.596743 0.715902 0.294786 0.209716
H29   H     H_    0.564213 0.817294 0.286561 0.213025
H30   H     H_    0.489964 0.736846 0.367001 0.215324
C63   C     C_3   0.011095 0.908379 0.168071 -0.785879
H31   H     H_    0.986508 0.915235 0.111656 0.222008
H32   H     H_    0.875100 0.919806 0.190856 0.209931
H33   H     H_    0.123128 0.951402 0.170437 0.209509
O26   O     O_3   0.955247 0.846537 0.948115 -0.642847
H34   H     H_    0.920781 0.901518 0.940739 0.286519

loop_
_geom_bond_atom_site_label_1
_geom_bond_atom_site_label_2
_ccdc_geom_bond_type
C32   C33   A    
C49   C56   S    
C53   C54   S    
C18   O26   S    
C24   C25   A    
C55   C56   S    
C10   C13   S    
C1    O6    A    
C53   H19   S    
O24   H26   S    
C28   C29   A    
C33   C34   A    
C5    C9    S    
C39   C44   A    
C6    C10   S    
C5    C12   S    
C4    C7    S    
C19   C20   A    
C20   C21   A    
O19   V4    S    
C6    H1    S    
C3    C26   S    
O5    C3    A    
C21   C22   A    
C34   O23   S    
C61   H21   S    
O15   C47   A    
C35   C37   A    
C42   H14   S    
C5    H2    S    
O25   H27   S    
C17   C18   A    
C29   C30   A    
O12   V3    S    
C50   C54   S    
C62   H28   S    
O21   H20   S    
O17   V4    S    
C50   O24   S    
O8    V2    S    
C18   C19   A    
C56   C58   S    
O11   C46   A    
C9    C10   S    
O1    V2    S    
C11   C63   S    
C55   H18   S    
C45   C51   S    
C43   C44   A    
C53   C55   S    
O9    C4    A    
C49   C53   S    
H5    C29   S    
O12   C45   A    
C33   O22   S    
O23   H25   S    
C57   C58   S    
C31   C36   A    
C31   C61   S    
C13   H3    S    
C17   C22   A    
C6    C14   S    
O19   C48   A    
O4    C2    A    
C32   H12   S    
V4    O20   S    
C22   C26   A    
C54   C57   S    
C11   C12   S    
O18   V4    S    
C7    C15   T    
O22   H24   S    
C37   C38   A    
C62   H30   S    
C23   C48   S    
C49   O25   S    
C38   C41   A    
O2    C1    A    
C39   C40   A    
O15   V3    S    
C1    C37   S    
C5    C6    S    
C41   H13   S    
C40   C46   S    
H11   C43   S    
V3    O20   S    
O3    C4    A    
C23   C24   A    
C12   C16   S    
O6    V2    S    
O9    V2    S    
C24   C27   A    
C17   H6    S    
C25   C26   A    
O13   V3    S    
C63   H32   S    
O2    V1    S    
C27   C28   A    
C52   C60   T    
O7    V1    S    
C27   H8    S    
C31   C32   A    
C8    C16   T    
O1    C2    A    
C12   C14   S    
O14   C46   A    
O17   V3    S    
O14   V3    S    
O5    V1    S    
C20   O21   S    
O11   V4    S    
O8    C3    A    
C55   C57   S    
C30   H10   S    
C11   C13   S    
C36   C40   A    
C50   C58   S    
C9    H4    S    
C63   H33   S    
C35   C36   A    
O4    V1    S    
C42   C43   A    
O3    V1    S    
V1    O10   S    
C41   C42   A    
C8    C47   S    
C21   C23   A    
C34   C35   A    
C61   H22   S    
C54   C59   S    
O26   H34   S    
C2    C52   S    
C56   C60   S    
C44   H15   S    
C25   C30   A    
C9    C11   S    
O13   C48   A    
O7    V2    S    
C38   C39   A    
C62   H29   S    
C10   C15   S    
C49   C50   S    
O18   C47   A    
C13   C14   S    
C28   H9    S    
C14   C62   S    
C51   C59   T    
C63   H31   S    
C45   O16   A    
H16   C58   S    
O16   V4    S    
C57   H17   S    
C19   H7    S    
V2    O10   S    
C61   H23   S    
