data_str_m2_o14_o18_f0_pcu.sym.50
_audit_creation_date              2012-10-26T18:50:25-0400
_audit_creation_method            fapswitch 2.2
_symmetry_space_group_name_H-M    P1
_symmetry_Int_Tables_number       1
_space_group_crystal_system       triclinic
_cell_length_a                    9.579182
_cell_length_b                    10.860999
_cell_length_c                    15.404908
_cell_angle_alpha                 87.508221
_cell_angle_beta                  74.285492
_cell_angle_gamma                 90.3717
_cell_volume                      1541.07749586

loop_
_atom_site_label
_atom_site_type_symbol
_atom_type_description
_atom_site_fract_x
_atom_site_fract_y
_atom_site_fract_z
_atom_type_partial_charge
C1    C     C_R   0.003640 0.263172 0.492605 0.546754
C2    C     C_R   0.235892 0.581560 0.046032 0.034536
C3    C     C_R   0.328774 0.524498 0.092918 0.043824
C4    C     C_R   0.918116 0.499993 0.672441 0.552474
C5    C     C_R   0.092270 0.606241 0.091479 -0.155796
C6    C     C_R   0.040661 0.576901 0.183250 -0.159766
C7    C     C_R   0.264876 0.470455 0.180738 -0.009433
C8    C     C_R   0.281138 0.123036 0.441549 -0.103620
C9    C     C_R   0.405186 0.064697 0.451578 -0.133259
C10   C     C_R   0.392972 0.949483 0.495748 -0.124700
C11   C     C_R   0.259232 0.887482 0.521417 -0.097879
C12   C     C_R   0.676736 0.523848 0.909420 0.031361
C13   C     C_R   0.134894 0.939625 0.501852 0.024558
C14   C     C_R   0.142245 0.065674 0.475002 0.023975
C15   C     C_R   0.010344 0.129471 0.484114 -0.012458
C16   C     C_R   0.999538 0.737639 0.504684 0.537070
C17   C     C_R   0.879990 0.063125 0.497525 -0.163489
C18   C     C_R   0.878091 0.935924 0.505244 -0.164910
C19   C     C_R   0.003817 0.872383 0.507751 -0.009279
C20   C     C_R   0.698624 0.662616 0.379130 -0.103012
C21   C     C_R   0.653107 0.742591 0.320006 -0.186562
C22   C     C_R   0.509189 0.743629 0.320303 -0.169151
C23   C     C_R   0.777381 0.501808 0.960679 0.048556
C24   C     C_R   0.410004 0.664630 0.379680 -0.089230
C25   C     C_R   0.451689 0.580724 0.440824 0.145237
C26   C     C_R   0.601431 0.580241 0.440678 0.151599
C27   C     C_R   0.548908 0.423111 0.556126 -0.012640
C28   C     C_R   0.081715 0.500404 0.327793 0.523467
C29   C     C_R   0.400912 0.423092 0.556063 -0.015575
C30   C     C_R   0.872727 0.502477 0.771569 -0.004511
C31   C     C_R   0.127185 0.511709 0.228813 0.002904
C32   C     C_R   0.924269 0.484094 0.917059 -0.141607
C33   C     C_R   0.971956 0.485563 0.823041 -0.140161
C34   C     C_R   0.528863 0.544267 0.954260 0.026329
C35   C     C_R   0.726472 0.520994 0.815030 -0.136145
C36   C     C_3   0.323093 0.353121 0.216689 -0.242678
C37   C     C_3   0.357081 0.252305 0.147309 -0.305613
C38   C     C_3   0.392723 0.130879 0.189705 -0.458642
C39   C     C_R   0.479818 0.522531 0.049266 0.024605
C40   C     C_R   0.583854 0.510279 0.098415 -0.143282
C41   C     C_R   0.730316 0.499236 0.054765 -0.145002
C42   C     C_R   0.430014 0.591061 0.908145 -0.143051
C43   C     C_R   0.287443 0.613883 0.954285 -0.142256
Cu1   Cu    Cu3+1 0.140660 0.499990 0.500010 0.899255
Cu2   Cu    Cu3+1 0.859340 0.500010 0.499990 0.913390
H1    H     H_    0.806732 0.487758 0.094903 0.115036
H2    H     H_    0.811231 0.669309 0.373413 0.183302
H3    H     H_    0.730352 0.804432 0.273739 0.118225
H4    H     H_    0.473640 0.806666 0.274517 0.125752
H5    H     H_    0.302289 0.674665 0.374830 0.190239
H6    H     H_    0.324984 0.360069 0.601952 0.120823
H7    H     H_    0.933364 0.606102 0.218638 0.120180
H8    H     H_    0.216541 0.655642 0.917608 0.110753
H9    H     H_    0.002013 0.467763 0.955688 0.115008
H10   H     H_    0.085631 0.471065 0.790829 0.125791
H11   H     H_    0.651682 0.528849 0.774041 0.122046
H12   H     H_    0.022001 0.653514 0.056923 0.112777
H13   H     H_    0.554250 0.516492 0.170732 0.122772
H14   H     H_    0.462191 0.619081 0.837419 0.105239
H15   H     H_    0.486441 0.143948 0.218124 0.154540
H16   H     H_    0.297613 0.095732 0.244215 0.155286
H17   H     H_    0.420998 0.061060 0.137498 0.148065
H18   H     H_    0.261815 0.236939 0.120642 0.166336
H19   H     H_    0.451213 0.280279 0.089863 0.178781
H20   H     H_    0.417541 0.371947 0.242663 0.140436
H21   H     H_    0.239128 0.312229 0.275611 0.150583
H22   H     H_    0.778555 0.109488 0.502293 0.134050
H23   H     H_    0.296561 0.211817 0.405681 0.139101
H24   H     H_    0.510120 0.110649 0.427579 0.109188
H25   H     H_    0.487718 0.906872 0.508649 0.114515
H26   H     H_    0.255418 0.801202 0.559389 0.151426
H27   H     H_    0.776609 0.887394 0.510883 0.136218
H28   H     H_    0.583724 0.360081 0.602097 0.116791
N1    N     N_R   0.648320 0.501210 0.499140 -0.242949
N2    N     N_R   0.352470 0.501290 0.499110 -0.249777
O1    O     O_R   0.118810 0.319640 0.500010 -0.508413
O2    O     O_R   0.881240 0.319660 0.500000 -0.500422
O3    O     O_R   0.055570 0.499980 0.629840 -0.498335
O4    O     O_R   0.818000 0.500010 0.629830 -0.502104
O5    O     O_R   0.118760 0.680340 0.500000 -0.533049
O6    O     O_R   0.881190 0.680360 0.499990 -0.520373
O7    O     O_R   0.182000 0.499990 0.370170 -0.526416
O8    O     O_R   0.944430 0.500020 0.370160 -0.517605

loop_
_geom_bond_atom_site_label_1
_geom_bond_atom_site_label_2
_ccdc_geom_bond_type
C33   H10   S    
C27   C29   A    
C1    O2    A    
C7    C36   S    
C34   C42   A    
C12   C23   A    
C30   C35   A    
C21   C22   A    
C36   C37   S    
C9    H24   S    
Cu1   O7    S    
C5    C6    A    
C36   H21   S    
C18   C19   A    
Cu1   O1    S    
C43   H8    S    
C8    C9    A    
C41   H1    S    
C1    C15   S    
C27   N1    A    
C9    C10   A    
C38   H16   S    
C6    C31   A    
C3    C39   A    
C13   C14   A    
C28   O8    A    
C18   H27   S    
Cu2   O8    S    
C32   H9    S    
C37   H18   S    
C24   H5    S    
C17   H22   S    
C40   H13   S    
C13   C19   A    
C28   O7    A    
C34   C39   A    
Cu1   O5    S    
C7    C31   A    
C24   C25   A    
C4    O4    A    
C39   C40   A    
C36   H20   S    
C25   C26   A    
Cu2   N1    S    
C16   O5    A    
Cu1   N2    S    
C4    O3    A    
C37   C38   S    
C2    C43   A    
C17   C18   A    
Cu2   O4    S    
C12   C35   A    
C22   H4    S    
C38   H15   S    
C10   H25   S    
C40   C41   A    
C8    H23   S    
C22   C24   A    
C2    C5    A    
C42   C43   A    
C12   C34   A    
C37   H19   S    
Cu1   Cu2   S    
C29   H6    S    
C15   C17   A    
C8    C14   A    
C30   C33   A    
C35   H11   S    
C1    O1    A    
C28   C31   S    
Cu2   O6    S    
C42   H14   S    
C29   N2    A    
C3    C7    A    
C23   C41   A    
C5    H12   S    
C6    H7    S    
C23   C32   A    
C21   H3    S    
Cu1   O3    S    
C2    C3    A    
C32   C33   A    
C11   C13   A    
C20   C26   A    
C16   C19   S    
C16   O6    A    
C26   N1    A    
C11   H26   S    
C20   H2    S    
C10   C11   A    
C20   C21   A    
C14   C15   A    
Cu2   O2    S    
C25   N2    A    
C27   H28   S    
C4    C30   S    
C38   H17   S    
