data_str_m12_o9_o10_f0_bcu.sym.8
_audit_creation_date              2012-12-11T17:37:54-0500
_audit_creation_method            fapswitch 2.2
_symmetry_space_group_name_H-M    P1
_symmetry_Int_Tables_number       1
_space_group_crystal_system       triclinic
_cell_length_a                    13.056642
_cell_length_b                    13.025804
_cell_length_c                    15.352365
_cell_angle_alpha                 117.133992
_cell_angle_beta                  63.602712
_cell_angle_gamma                 97.572467
_cell_volume                      2073.11241681

loop_
_atom_site_label
_atom_site_type_symbol
_atom_type_description
_atom_site_fract_x
_atom_site_fract_y
_atom_site_fract_z
_atom_type_partial_charge
C1    C     C_R   0.013261 0.835469 0.043051 -0.279936
C2    C     C_R   0.295367 0.598921 0.793181 0.808399
C3    C     C_R   0.257945 0.431296 0.063017 0.365954
C4    C     C_R   0.679146 0.473696 0.219847 -0.013902
C5    C     C_R   0.984675 0.298178 0.697048 0.781458
C6    C     C_R   0.361074 0.445917 0.988922 -0.177617
C7    C     C_R   0.917715 0.206363 0.699919 -0.096719
C8    C     C_R   0.292099 0.570825 0.697300 -0.240105
C9    C     C_R   0.043607 0.140571 0.004030 -0.046300
C10   C     C_R   0.307395 0.057391 0.277264 -0.068256
C11   C     C_R   0.203443 0.033751 0.345448 -0.168473
C12   C     C_R   0.672255 0.547841 0.321948 0.044060
C13   C     C_R   0.099174 0.062659 0.352388 0.209125
C14   C     C_R   0.100780 0.114493 0.289149 -0.116036
C15   C     C_R   0.205079 0.137241 0.220543 -0.120751
C16   C     C_R   0.757455 0.511390 0.888476 0.574253
C17   C     C_R   0.308138 0.109694 0.215314 -0.037769
C18   C     C_R   0.922734 0.138139 0.522878 0.539086
C19   C     C_R   0.872795 0.131630 0.620790 -0.103556
C20   C     C_R   0.831201 0.026102 0.619794 -0.202672
C21   C     C_R   0.874563 0.926165 0.520309 0.668447
C22   C     C_R   0.965260 0.931725 0.427051 -0.190013
C23   C     C_R   0.665078 0.451421 0.922723 -0.037705
C24   C     C_R   0.989977 0.042034 0.429497 -0.222657
C25   C     C_R   0.736487 0.930793 0.744213 -0.116708
C26   C     C_R   0.645240 0.925539 0.834860 -0.006885
C27   C     C_R   0.552653 0.010205 0.900365 -0.054213
C28   C     C_R   0.989682 0.714118 0.312823 -0.048328
C29   C     C_R   0.551624 0.101014 0.876049 -0.168148
C30   C     C_R   0.642904 0.106926 0.785593 -0.138638
C31   C     C_R   0.736104 0.021268 0.718025 0.199847
C32   C     C_R   0.867937 0.348588 0.351685 -0.268202
C33   C     C_R   0.752501 0.377029 0.385013 0.536960
C34   C     C_R   0.014053 0.824825 0.324136 0.113498
C35   C     C_R   0.697771 0.484415 0.473727 -0.152249
C36   C     C_R   0.755461 0.555879 0.535362 -0.316709
C37   C     C_R   0.869882 0.525532 0.502883 0.914465
C38   C     C_R   0.927229 0.423944 0.408990 -0.235219
C39   C     C_R   0.492661 0.540272 0.585302 -0.128875
C40   C     C_R   0.678921 0.417945 0.989158 -0.221089
C41   C     C_R   0.386139 0.581600 0.607995 0.103608
C42   C     C_R   0.373136 0.621062 0.541611 0.049156
C43   C     C_R   0.469747 0.609305 0.446796 -0.253761
C44   C     C_R   0.575482 0.564032 0.422693 0.107132
C45   C     C_R   0.338496 0.520302 0.957026 0.688893
C46   C     C_R   0.587674 0.531030 0.493720 0.128794
C47   C     C_R   0.227021 0.662628 0.494174 -0.126723
C48   C     C_R   0.132876 0.729989 0.521045 0.005515
C49   C     C_R   0.074257 0.816536 0.627007 0.001059
C50   C     C_R   0.108927 0.835292 0.706626 -0.086510
C51   C     C_R   0.204166 0.769510 0.679796 -0.146931
C52   C     C_R   0.062587 0.816107 0.219685 -0.106157
C53   C     C_R   0.264721 0.682566 0.572998 0.106102
C54   C     C_2   0.471560 0.410221 0.968904 -0.161235
C55   C     C_2   0.567956 0.429214 0.897952 -0.089081
C56   C     C_R   0.900303 0.201468 0.793625 -0.286505
C57   C     C_2   0.860833 0.967279 0.070340 0.732994
C58   C     C_2   0.850643 0.052267 0.165735 -0.051516
C59   C     C_R   0.781776 0.566789 0.312899 -0.136838
C60   C     C_R   0.910363 0.751529 0.950404 0.848589
C61   C     C_R   0.929696 0.857306 0.019564 -0.330992
C62   C     C_R   0.199150 0.508625 0.694723 -0.153477
C63   C     C_R   0.071019 0.247596 0.066001 -0.111779
C64   C     C_R   0.974835 0.165185 0.967026 -0.016469
Cl1   Cl    Cl    0.243004 0.411001 0.173782 -0.770175
Cl2   Cl    Cl    0.881966 0.257187 0.517357 -0.580193
Cl3   Cl    Cl    0.804429 0.523741 0.767347 -0.461888
Cl4   Cl    Cl    0.679355 0.280702 0.311994 -0.656838
F1    F     F_    0.351509 0.686882 0.838430 -0.658251
F2    F     F_    0.017426 0.342240 0.625123 -0.657894
F3    F     F_    0.824657 0.826603 0.514876 -0.748031
F4    F     F_    0.925857 0.596045 0.561172 -0.660140
F5    F     F_    0.798749 0.979668 0.023861 -0.658826
F6    F     F_    0.832633 0.736030 0.910995 -0.643500
F7    F     F_    0.414837 0.578062 0.905701 -0.662375
H1    H     H_    0.051822 0.900069 0.090844 0.149978
H2    H     H_    0.021899 0.136053 0.292002 0.139593
H3    H     H_    0.206210 0.176419 0.171530 0.152387
H4    H     H_    0.807050 0.864079 0.694861 0.178170
H5    H     H_    0.646100 0.855373 0.853981 0.192349
H6    H     H_    0.481488 0.004999 0.969608 0.128261
H7    H     H_    0.479469 0.166184 0.926818 0.142042
H8    H     H_    0.640026 0.177201 0.767260 0.151366
H9    H     H_    0.016587 0.401520 0.382575 0.216162
H10   H     H_    0.912113 0.268577 0.281107 0.169886
H11   H     H_    0.713935 0.638168 0.604591 0.205738
H12   H     H_    0.843432 0.148913 0.828979 0.170078
H13   H     H_    0.501315 0.509906 0.637108 0.164793
H14   H     H_    0.464149 0.638197 0.392937 0.137637
H15   H     H_    0.271463 0.596184 0.411455 0.157301
H16   H     H_    0.105738 0.715467 0.459494 0.120552
H17   H     H_    0.002743 0.869805 0.647155 0.091302
H18   H     H_    0.063479 0.902470 0.788688 0.122241
H19   H     H_    0.968706 0.682747 0.372342 0.146541
H20   H     H_    0.232548 0.789221 0.741705 0.141900
H21   H     H_    0.471296 0.384765 0.026948 0.185054
H22   H     H_    0.569387 0.450770 0.837162 0.228585
H23   H     H_    0.167017 0.481724 0.634409 0.233798
H24   H     H_    0.894033 0.045967 0.209311 0.043119
H25   H     H_    0.635740 0.352897 0.014591 0.140402
H26   H     H_    0.105537 0.879914 0.193734 0.115387
H27   H     H_    0.804557 0.618034 0.378430 0.161443
H28   H     H_    0.114365 0.259301 0.114275 0.164114
H29   H     H_    0.933798 0.103227 0.919511 0.135565
H30   H     H_    0.388530 0.129152 0.163503 0.126132
H31   H     H_    0.387315 0.035842 0.272990 0.148903
H32   H     H_    0.203955 0.994349 0.394010 0.119234
H33   H     H_    0.609198 0.437549 0.198971 0.116579
N1    N     N_R   0.037320 0.720000 0.995830 -0.066269
N2    N     N_R   0.824900 0.517970 0.936430 -0.116089
N3    N     N_R   0.003190 0.648180 0.211390 -0.058504
N4    N     N_R   0.774330 0.457010 0.995830 -0.078245
N5    N     N_R   0.053760 0.709130 0.151980 -0.045871
N6    N     N_R   0.853840 0.498830 0.211390 -0.046699
N7    N     N_R   0.974250 0.667320 0.936430 -0.126918
N8    N     N_R   0.225670 0.542990 0.004170 -0.136796
N9    N     N_R   0.946240 0.290870 0.848020 -0.086231
N10   N     N_R   0.146160 0.501170 0.788610 -0.097381
N11   N     N_R   0.025750 0.332680 0.063570 -0.042492
N12   N     N_R   0.962680 0.280000 0.004170 -0.044370
N13   N     N_R   0.209230 0.553860 0.848010 -0.131326
N14   N     N_R   0.175100 0.482030 0.063570 -0.120532
N15   N     N_R   0.996810 0.351820 0.788610 -0.122295
N16   N     N_R   0.790770 0.446140 0.151990 -0.036727
Ni1   Ni    Ni4+2 0.130310 0.630310 0.000000 0.270777
Ni2   Ni    Ni4+2 0.869690 0.369690 0.000000 0.222729
Ni3   Ni    Ni4+2 0.985660 0.509480 0.863750 0.300668
Ni4   Ni    Ni4+2 0.014340 0.490520 0.136250 0.232398

loop_
_geom_bond_atom_site_label_1
_geom_bond_atom_site_label_2
_ccdc_geom_bond_type
C25   C31   A    
C6    C45   A    
C27   C29   A    
C9    C64   A    
C11   C13   A    
C56   N9    A    
C19   C20   A    
C3    C6    A    
C16   N2    A    
C39   C41   A    
C52   N5    A    
C4    H33   S    
C26   C27   A    
C43   H14   S    
N8    N14   A    
C21   F3    S    
C18   C24   A    
C7    C56   A    
C36   C37   A    
C42   C53   S    
C30   C31   A    
N12   Ni2   S    
C15   H3    S    
N5    Ni1   S    
C10   C17   A    
C23   C40   A    
N7    Ni3   S    
C4    N16   A    
C28   H19   S    
C18   C19   A    
C41   C42   A    
C14   H2    S    
C57   F5    S    
C30   H8    S    
C1    N1    A    
C62   H23   S    
C12   C59   A    
C35   C36   A    
C48   H16   S    
C32   C38   A    
C4    C12   A    
C2    F1    S    
N9    Ni2   S    
N4    Ni2   S    
C3    N14   A    
N2    Ni3   S    
C47   C53   A    
N6    N16   A    
N11   Ni4   S    
C28   C34   A    
C25   H4    S    
C21   C22   A    
C1    H1    S    
C3    Cl1   S    
C39   H13   S    
C6    C54   S    
C64   H29   S    
C44   C46   A    
C28   N3    A    
C22   C34   S    
C52   H26   S    
C27   H6    S    
C8    C41   S    
C63   H28   S    
C5    C7    A    
C56   H12   S    
C36   H11   S    
C25   C26   A    
C26   H5    S    
C13   C24   S    
C60   C61   A    
C51   C53   A    
N10   N13   A    
C43   C44   A    
N13   Ni1   S    
C37   C38   A    
C17   H30   S    
N6    Ni4   S    
N15   Ni3   S    
C47   C48   A    
C55   H22   S    
C50   C51   A    
N3    N5    A    
C16   Cl3   S    
C57   C61   S    
C39   C46   A    
N1    Ni1   S    
C48   C49   A    
C49   C50   A    
C16   C23   A    
C7    C19   S    
N8    Ni1   S    
C11   H32   S    
C47   H15   S    
C22   C24   A    
C10   H31   S    
C42   C43   A    
C49   H17   S    
N16   Ni2   S    
C2    N13   A    
C15   C17   A    
C54   C55   D    
C38   H9    S    
C9    C63   A    
C59   H27   S    
C54   H21   S    
C2    C8    A    
C58   H24   S    
C5    F2    S    
C1    C61   A    
C40   H25   S    
N11   N12   A    
C50   H18   S    
C23   C55   S    
C18   Cl2   S    
C5    N15   A    
C34   C52   A    
C64   N12   A    
C45   F7    S    
C32   C33   A    
N9    N15   A    
C29   H7    S    
C12   C44   S    
C40   N4    A    
C45   N8    A    
C57   C58   D    
C59   N6    A    
C32   H10   S    
C60   F6    S    
C33   C35   A    
N14   Ni4   S    
N2    N4    A    
C62   N10   A    
C10   C11   A    
N1    N7    A    
C29   C30   A    
C20   C21   A    
C63   N11   A    
N10   Ni3   S    
C37   F4    S    
C8    C62   A    
N3    Ni4   S    
C14   C15   A    
C60   N7    A    
C13   C14   A    
C35   C46   S    
C33   Cl4   S    
C51   H20   S    
C20   C31   S    
