data_str_m3_o10_o14_f0_pcu.sym.19
_audit_creation_date              2012-12-10T16:50:06-0500
_audit_creation_method            fapswitch 2.2
_symmetry_space_group_name_H-M    P1
_symmetry_Int_Tables_number       1
_space_group_crystal_system       triclinic
_cell_length_a                    7.786468
_cell_length_b                    8.566156
_cell_length_c                    10.602487
_cell_angle_alpha                 90.944086
_cell_angle_beta                  85.698517
_cell_angle_gamma                 93.73397
_cell_volume                      703.65017728

loop_
_atom_site_label
_atom_site_type_symbol
_atom_type_description
_atom_site_fract_x
_atom_site_fract_y
_atom_site_fract_z
_atom_type_partial_charge
C1    C     C_R   0.545792 0.794681 0.496830 0.931128
C2    C     C_R   0.454211 0.205310 0.503263 0.970343
C3    C     C_R   0.498839 0.503212 0.260678 0.861274
C4    C     C_R   0.412520 0.786564 0.876899 -0.303486
C5    C     C_R   0.363429 0.919225 0.947144 0.506862
C6    C     C_R   0.359203 0.916267 0.078755 -0.139592
C7    C     C_R   0.402572 0.783239 0.140232 -0.280862
C8    C     C_R   0.450247 0.648677 0.070510 0.098221
C9    C     C_R   0.455538 0.650440 0.938280 0.051224
C10   C     C_R   0.508274 0.515990 0.871249 -0.076181
C11   C     C_R   0.561271 0.385995 0.930645 -0.140289
C12   C     C_R   0.555492 0.384029 0.059617 -0.190501
C13   C     C_R   0.497887 0.512538 0.128454 -0.078595
C14   C     C_2   0.569785 0.958267 0.494983 -0.378302
C15   C     C_2   0.430179 0.041694 0.505062 -0.413716
C16   C     C_R   0.502629 0.504651 0.739217 0.875019
H1    H     H_    0.602668 0.284452 0.876981 0.170269
H2    H     H_    0.330697 0.037412 0.796946 0.327352
H3    H     H_    0.986690 0.617963 0.594571 0.195841
H4    H     H_    0.419110 0.791801 0.774813 0.141230
H5    H     H_    0.323205 0.018205 0.133892 0.155819
H6    H     H_    0.400084 0.787868 0.242259 0.173033
H7    H     H_    0.594010 0.281418 0.106200 0.150461
H8    H     H_    0.701577 0.009490 0.485325 0.187537
H9    H     H_    0.298388 0.990456 0.514778 0.184504
H10   H     H_    0.013331 0.382060 0.405422 0.195528
N1    N     N_2   0.950330 0.457950 0.466250 -0.169728
N2    N     N_2   0.049670 0.542050 0.533750 -0.169518
O1    O     O_R   0.389250 0.738570 0.508280 -0.625645
O2    O     O_R   0.678390 0.711630 0.486650 -0.624423
O3    O     O_R   0.355400 0.513470 0.694050 -0.603994
O4    O     O_R   0.644540 0.486530 0.672420 -0.627107
O5    O     O_R   0.321610 0.288370 0.513350 -0.623480
O6    O     O_R   0.610750 0.261430 0.491720 -0.612160
O7    O     O_R   0.355460 0.513470 0.327580 -0.625846
O8    O     O_R   0.644600 0.486530 0.305950 -0.610260
O9    O     O_3   0.320156 0.053258 0.890003 -0.781976
Zn1   Zn    Zn3+2 0.306930 0.517990 0.514440 0.949262
Zn2   Zn    Zn3+2 0.693070 0.482010 0.485560 0.950754

loop_
_geom_bond_atom_site_label_1
_geom_bond_atom_site_label_2
_ccdc_geom_bond_type
O1    Zn1   S    
C8    C9    A    
C11   C12   A    
C6    C7    A    
H3    N2    S    
C5    O9    S    
C16   O4    A    
C7    H6    S    
C9    C10   A    
O5    Zn1   S    
C3    C13   S    
O3    Zn1   S    
N2    Zn1   S    
C2    O6    A    
C1    O1    A    
C7    C8    A    
C10   C16   S    
C16   O3    A    
C2    C15   S    
C12   H7    S    
H10   N1    S    
C8    C13   A    
C3    O8    A    
C2    O5    A    
C1    O2    A    
H2    O9    S    
O2    Zn2   S    
C5    C6    A    
C15   H9    S    
C10   C11   A    
C3    O7    A    
O6    Zn2   S    
C4    H4    S    
O7    Zn1   S    
C12   C13   A    
O4    Zn2   S    
C14   H8    S    
N1    N2    D    
C14   C15   D    
C11   H1    S    
C1    C14   S    
C4    C9    A    
C6    H5    S    
O8    Zn2   S    
N1    Zn2   S    
C4    C5    A    
