data_str_m9_o2_o25_f0_sra.sym.14
_audit_creation_date              2012-12-11T16:33:20-0500
_audit_creation_method            fapswitch 2.2
_symmetry_space_group_name_H-M    P1
_symmetry_Int_Tables_number       1
_space_group_crystal_system       triclinic
_cell_length_a                    6.945313
_cell_length_b                    18.240439
_cell_length_c                    20.166043
_cell_angle_alpha                 68.408078
_cell_angle_beta                  90.944837
_cell_angle_gamma                 90.658656
_cell_volume                      2375.11225762

loop_
_atom_site_label
_atom_site_type_symbol
_atom_type_description
_atom_site_fract_x
_atom_site_fract_y
_atom_site_fract_z
_atom_type_partial_charge
O1    O     O_R   0.488960 0.443750 0.941980 -0.537698
O2    O     O_R   0.823890 0.406510 0.087590 -0.540950
O3    O     O_R   0.999680 0.556250 0.058020 -0.538647
C1    C     C_R   0.656081 0.382721 0.114402 0.693755
O4    O     O_R   0.818360 0.434410 0.944340 -0.537907
O5    O     O_R   0.994110 0.584350 0.913750 -0.535925
C2    C     C_R   0.648567 0.420140 0.923940 0.719830
O6    O     O_R   0.494530 0.415650 0.086250 -0.534907
O7    O     O_3   0.662590 0.549160 0.990130 -0.365638
V1    V     V_3+5 0.935320 0.490880 0.001830 1.432184
O8    O     O_R   0.324180 0.593490 0.912410 -0.537451
C3    C     C_R   0.154709 0.616438 0.884967 0.697958
O9    O     O_R   0.329720 0.565590 0.055660 -0.535270
C4    C     C_R   0.162250 0.579933 0.075963 0.720189
V2    V     V_3+5 0.435990 0.509120 0.998170 1.440091
O10   O     O_3   0.158850 0.450840 0.009870 -0.368432
C5    C     C_3   0.006796 0.716890 0.301101 -0.141698
C6    C     C_3   0.190075 0.677370 0.286722 -0.151478
H1    H     H_    0.902598 0.688683 0.344394 0.111330
H2    H     H_    0.453745 0.755119 0.300904 0.114522
C7    C     C_1   0.155946 0.626217 0.121000 -0.177969
C8    C     C_1   0.109875 0.874859 0.377799 -0.192297
C9    C     C_3   0.957668 0.749562 0.220079 -0.125300
C10   C     C_3   0.140731 0.710472 0.206259 0.127039
C11   C     C_3   0.075604 0.825595 0.210786 -0.145474
C12   C     C_3   0.125130 0.792120 0.291249 0.150833
C13   C     C_3   0.257075 0.785324 0.197332 -0.002887
C14   C     C_3   0.308650 0.753181 0.277599 -0.181970
C15   C     C_1   0.149405 0.664412 0.159168 -0.035313
C16   C     C_1   0.116353 0.837441 0.338941 -0.053544
H3    H     H_    0.029443 0.886856 0.179436 0.131153
H4    H     H_    0.812981 0.747693 0.196499 0.137673
C17   C     C_R   0.058981 0.772778 0.879118 -0.168030
C18   C     C_R   0.011367 0.847319 0.878232 0.011795
C19   C     C_R   0.998383 0.911004 0.813561 -0.159771
C20   C     C_R   0.033564 0.900662 0.749705 -0.157594
C21   C     C_R   0.082170 0.825834 0.749036 0.066354
C22   C     C_R   0.094540 0.760554 0.815072 0.058428
C23   C     C_R   0.120218 0.815584 0.684078 -0.173240
C24   C     C_R   0.168785 0.739868 0.685206 0.071108
C25   C     C_R   0.179828 0.674483 0.751182 0.054200
C26   C     C_R   0.143672 0.684879 0.816171 -0.166143
C27   C     C_R   0.203846 0.727540 0.621212 -0.146279
C28   C     C_R   0.247033 0.652828 0.622027 -0.162039
C29   C     C_R   0.256392 0.588682 0.686403 0.020217
C30   C     C_R   0.223990 0.599243 0.750459 -0.184889
H5    H     H_    0.022847 0.952054 0.700975 0.110290
H6    H     H_    0.196444 0.775263 0.569785 0.101862
H7    H     H_    0.271797 0.645032 0.572114 0.118543
H8    H     H_    0.231784 0.547926 0.799434 0.107501
H9    H     H_    0.691041 0.378190 0.419228 0.117540
C31   C     C_R   0.556226 0.097460 0.253224 -0.143342
C32   C     C_R   0.530534 0.084439 0.189734 -0.118055
C33   C     C_R   0.540718 0.147077 0.124596 -0.112036
C34   C     C_R   0.577976 0.223159 0.122405 -0.135668
C35   C     C_R   0.605349 0.238119 0.185937 0.068825
C36   C     C_R   0.592659 0.174174 0.252817 0.071180
C37   C     C_R   0.650037 0.314913 0.183584 -0.174639
C38   C     C_R   0.681884 0.327802 0.247900 0.065172
C39   C     C_R   0.642245 0.266687 0.314714 0.027939
C40   C     C_R   0.612654 0.187915 0.317548 -0.184382
C41   C     C_R   0.746846 0.402063 0.246723 -0.144185
C42   C     C_R   0.762823 0.417282 0.309195 -0.136387
C43   C     C_R   0.698381 0.361809 0.372811 -0.133204
C44   C     C_R   0.628786 0.288502 0.375457 -0.037705
H10   H     H_    0.545665 0.046794 0.302459 0.105524
H11   H     H_    0.502033 0.025408 0.191121 0.122887
H12   H     H_    0.520584 0.136625 0.075450 0.121121
H13   H     H_    0.786184 0.449157 0.197631 0.113161
H14   H     H_    0.813050 0.474403 0.307377 0.119672
O11   O     O_R   0.770540 0.084530 0.414050 -0.534970
O12   O     O_R   0.445710 0.065660 0.555720 -0.521648
O13   O     O_R   0.270420 0.915650 0.586190 -0.539277
C45   C     C_R   0.615356 0.078451 0.577499 0.747420
O14   O     O_R   0.441140 0.093540 0.412470 -0.531801
O15   O     O_R   0.265820 0.943740 0.441930 -0.539922
C46   C     C_R   0.609135 0.119335 0.386887 0.707689
O16   O     O_R   0.775150 0.056440 0.558310 -0.543360
O17   O     O_3   0.602370 0.950960 0.510050 -0.373538
V3    V     V_3+5 0.329450 0.009140 0.498150 1.468228
O18   O     O_R   0.935790 0.934280 0.444060 -0.539312
C47   C     C_R   0.103393 0.920292 0.423605 0.717140
O19   O     O_R   0.940370 0.906390 0.587310 -0.540233
C48   C     C_R   0.109643 0.883938 0.615190 0.688107
V4    V     V_3+5 0.828810 0.990710 0.501460 1.438834
O20   O     O_3   0.105780 0.049100 0.489960 -0.357528
C49   C     C_3   0.706584 0.319795 0.716912 -0.105006
C50   C     C_3   0.525501 0.284297 0.693726 -0.100256
H15   H     H_    0.436294 0.314212 0.645252 0.134955
H16   H     H_    0.766459 0.379639 0.688138 0.128839
H17   H     H_    0.302924 0.259476 0.787640 0.120645
C51   C     C_1   0.626116 0.123339 0.623724 -0.159483
C52   C     C_1   0.638272 0.373837 0.878880 -0.187284
C53   C     C_3   0.815039 0.241233 0.732634 -0.150678
C54   C     C_3   0.633927 0.206392 0.710065 0.142331
C55   C     C_3   0.742079 0.210892 0.810445 -0.148970
C56   C     C_3   0.633505 0.288856 0.794074 0.166844
C57   C     C_3   0.560939 0.175392 0.787226 -0.151636
C58   C     C_3   0.452485 0.253961 0.771495 -0.117454
C59   C     C_1   0.631352 0.160710 0.662649 -0.049435
C60   C     C_1   0.634468 0.335392 0.840828 -0.034022
H18   H     H_    0.501064 0.115548 0.815975 0.123779
H19   H     H_    0.831402 0.180817 0.858847 0.120082
H20   H     H_    0.964563 0.235761 0.716429 0.120424
H21   H     H_    0.236763 0.616143 0.317875 0.118488
H22   H     H_    0.961628 0.969047 0.812427 0.120283
H23   H     H_    0.586788 0.269893 0.070459 0.090665
C61   C     C_1   0.498532 0.249510 0.432674 0.251830
N1    N     N_1   0.388711 0.221405 0.477564 -0.339789
C62   C     C_1   0.395163 0.823111 0.140393 0.284895
N2    N     N_1   0.504121 0.852888 0.095495 -0.334067
C63   C     C_1   0.296384 0.511316 0.686746 0.276898
N3    N     N_1   0.327923 0.449095 0.686996 -0.386452
H24   H     H_    0.068692 0.724733 0.930371 0.098076
C64   C     C_1   0.976790 0.858366 0.944188 0.298668
N4    N     N_1   0.949213 0.867099 0.997239 -0.330535

loop_
_geom_bond_atom_site_label_1
_geom_bond_atom_site_label_2
_ccdc_geom_bond_type
C28   H7    S    
C11   H3    S    
C49   C50   S    
C25   C26   A    
C19   C20   A    
C10   C13   S    
O11   C46   A    
C1    O6    A    
O18   C47   A    
C54   C57   S    
C32   C33   A    
C35   C36   A    
C17   H24   S    
C5    C9    S    
C6    C10   S    
C5    C12   S    
C8    C47   S    
C4    C7    S    
C20   C21   A    
C21   C22   A    
C23   C48   S    
C22   C26   A    
O5    C3    A    
C33   H12   S    
V2    O10   S    
C49   C53   S    
C61   N1    T    
C20   H5    S    
C18   C19   A    
C45   C51   S    
C62   N2    T    
V3    O20   S    
O11   V4    S    
O8    V2    S    
C24   C27   A    
C13   C62   S    
C40   C46   S    
C55   C57   S    
C3    C26   S    
C25   C30   A    
O1    V2    S    
C8    C16   T    
O7    V1    S    
O13   C48   A    
C49   H16   S    
C50   C54   S    
C53   H20   S    
C38   C39   A    
O9    C4    A    
C63   N3    T    
C56   C58   S    
C17   C18   A    
C2    C52   S    
C29   C63   S    
H9    C43   S    
C6    C14   S    
O12   C45   A    
C52   C60   T    
C23   C24   A    
O4    C2    A    
C54   C59   S    
H2    C14   S    
C11   C12   S    
V4    O20   S    
C7    C15   T    
O17   V3    S    
C41   H13   S    
C34   H23   S    
C39   C40   A    
O2    C1    A    
C27   C28   A    
C41   C42   A    
O19   C48   A    
C42   H14   S    
C9    C10   S    
C55   C56   S    
C34   C35   A    
C5    C6    S    
C53   C55   S    
O14   C46   A    
O3    C4    A    
O16   V4    S    
C24   C25   A    
O19   V4    S    
C39   C44   A    
C12   C16   S    
O6    V2    S    
O9    V2    S    
C37   C38   A    
O15   C47   A    
O2    V1    S    
O17   V4    S    
C31   H10   S    
C31   C32   A    
C51   C59   T    
C27   H6    S    
C33   C34   A    
C38   C41   A    
C44   C61   S    
O1    C2    A    
C28   C29   A    
O15   V3    S    
O5    V1    S    
O8    C3    A    
C36   C40   A    
C11   C13   S    
C30   H8    S    
C12   C14   S    
C17   C22   A    
C9    H4    S    
C18   C64   S    
C6    H21   S    
O4    V1    S    
O12   V3    S    
C19   H22   S    
C57   H18   S    
C43   C44   A    
C5    H1    S    
O13   V3    S    
C35   C37   A    
C9    C11   S    
O7    V2    S    
C53   C54   S    
C32   H11   S    
C56   C60   S    
C50   C58   S    
C31   C36   A    
C42   C43   A    
C29   C30   A    
C10   C15   S    
O14   V3    S    
C50   H15   S    
C21   C23   A    
C57   C58   S    
C45   O16   A    
C55   H19   S    
C1    C37   S    
C13   C14   S    
O3    V1    S    
V1    O10   S    
H17   C58   S    
O18   V4    S    
C64   N4    T    
C49   C56   S    
