data_str_m3_o40_o40_f0_fof.sym.21
_audit_creation_date              2012-12-10T16:37:23-0500
_audit_creation_method            fapswitch 2.2
_symmetry_space_group_name_H-M    P1
_symmetry_Int_Tables_number       1
_space_group_crystal_system       triclinic
_cell_length_a                    16.76584
_cell_length_b                    16.868163
_cell_length_c                    16.784503
_cell_angle_alpha                 65.829426
_cell_angle_beta                  66.595031
_cell_angle_gamma                 66.247539
_cell_volume                      3807.35452084

loop_
_atom_site_label
_atom_site_type_symbol
_atom_type_description
_atom_site_fract_x
_atom_site_fract_y
_atom_site_fract_z
_atom_type_partial_charge
C1    C     C_R   0.394434 0.073839 0.660682 -0.223408
C2    C     C_R   0.389766 0.650621 0.102661 -0.207808
C3    C     C_R   0.924845 0.603188 0.345971 -0.222551
C4    C     C_R   0.036656 0.406184 0.665566 -0.217410
C5    C     C_R   0.960785 0.179388 0.438057 0.913569
C6    C     C_R   0.023015 0.822881 0.568656 0.937531
C7    C     C_R   0.160587 0.424567 0.008444 0.917955
C8    C     C_R   0.821387 0.563084 0.033606 0.918327
C9    C     C_R   0.431363 0.978354 0.176776 0.914777
C10   C     C_R   0.564624 0.031164 0.821293 0.899009
C11   C     C_R   0.563686 0.821035 0.033900 0.891505
C12   C     C_R   0.532672 0.092505 0.294723 -0.219838
C13   C     C_R   0.431267 0.178167 0.976314 0.878075
C14   C     C_R   0.038741 0.561334 0.820694 0.987559
C15   C     C_R   0.960020 0.438596 0.179543 0.873997
C16   C     C_R   0.820824 0.035299 0.562298 0.900963
C17   C     C_R   0.179605 0.963977 0.437912 0.925251
C18   C     C_R   0.442487 0.084800 0.704720 -0.175446
C19   C     C_R   0.488631 0.071337 0.254154 -0.161712
C20   C     C_R   0.939185 0.739499 0.507798 -0.130934
C21   C     C_R   0.934411 0.289258 0.554907 -0.164183
C22   C     C_R   0.704455 0.443519 0.080134 -0.179750
C23   C     C_R   0.923453 0.697750 0.461284 -0.227331
C24   C     C_R   0.242369 0.499220 0.083821 -0.159293
C25   C     C_R   0.290596 0.959629 0.547458 -0.157913
C26   C     C_R   0.697988 0.093941 0.440977 -0.195933
C27   C     C_R   0.530238 0.298186 0.967426 -0.187085
C28   C     C_R   0.441782 0.700352 0.098591 -0.177950
C29   C     C_R   0.919632 0.556474 0.296947 -0.182498
C30   C     C_R   0.060360 0.448441 0.705414 -0.163009
C31   C     C_R   0.524350 0.071335 0.528905 0.028335
C32   C     C_R   0.433581 0.037183 0.442002 0.026877
C33   C     C_R   0.985569 0.551030 0.558437 0.026359
C34   C     C_R   0.955712 0.329936 0.597825 -0.222207
C35   C     C_R   0.950795 0.464025 0.468085 0.025958
C36   C     C_R   0.525652 0.528873 0.072459 0.028749
C37   C     C_R   0.431239 0.438724 0.047633 0.025575
C38   C     C_R   0.560142 0.080879 0.434934 0.045091
C39   C     C_R   0.397299 0.030819 0.535341 0.045369
C40   C     C_R   0.996674 0.456797 0.593275 0.049673
C41   C     C_R   0.942215 0.557869 0.431512 0.050318
C42   C     C_R   0.431044 0.566163 0.084372 0.042733
C43   C     C_R   0.525893 0.404005 0.034321 0.048452
C44   C     C_R   0.509857 0.070944 0.389727 0.045101
C45   C     C_R   0.657599 0.398283 0.069684 -0.218379
C46   C     C_R   0.437570 0.058371 0.575490 0.049479
C47   C     C_R   0.382316 0.517408 0.077487 0.045040
C48   C     C_R   0.570306 0.443057 0.057947 0.049110
C49   C     C_R   0.969583 0.415840 0.553256 0.048716
C50   C     C_R   0.950986 0.602828 0.482027 0.044514
C51   C     C_R   0.537752 0.068104 0.670475 0.062171
C52   C     C_R   0.425407 0.020521 0.306900 0.044294
C53   C     C_R   0.990526 0.688756 0.571407 0.054728
C54   C     C_R   0.937590 0.326989 0.461650 0.054809
C55   C     C_R   0.670265 0.538128 0.066926 0.042336
C56   C     C_R   0.287017 0.545077 0.096981 -0.209986
C57   C     C_R   0.290851 0.425479 0.047847 0.055284
C58   C     C_R   0.319655 0.973150 0.452922 0.060676
C59   C     C_R   0.667489 0.071751 0.536850 0.036642
C60   C     C_R   0.434784 0.319325 0.995475 0.062329
C61   C     C_R   0.537544 0.668948 0.073852 0.053403
C62   C     C_R   0.931863 0.461956 0.330586 0.053176
C63   C     C_R   0.042272 0.543349 0.676945 0.067364
C64   C     C_R   0.596896 0.042936 0.724684 -0.202493
C65   C     C_R   0.393264 0.979303 0.270233 -0.160052
C66   C     C_R   0.026393 0.728261 0.606125 -0.133102
C67   C     C_R   0.326544 0.990340 0.587325 -0.216525
C68   C     C_R   0.934154 0.278977 0.410162 -0.211949
C69   C     C_R   0.724805 0.595372 0.044181 -0.139737
C70   C     C_R   0.247209 0.379942 0.030523 -0.141595
C71   C     C_R   0.277657 0.951082 0.408416 -0.221081
C72   C     C_R   0.724012 0.045069 0.594584 -0.131223
C73   C     C_R   0.386218 0.266984 0.993149 -0.195896
C74   C     C_R   0.596100 0.724246 0.046556 -0.193865
C75   C     C_R   0.932174 0.410735 0.279949 -0.193822
C76   C     C_R   0.057739 0.589838 0.721645 -0.225339
C77   C     C_R   0.689734 0.013035 0.687803 -0.136401
C78   C     C_R   0.645739 0.097534 0.391132 -0.208297
C79   C     C_R   0.324384 0.937885 0.324502 -0.087410
C80   C     C_R   0.067940 0.675228 0.675793 -0.098904
C81   C     C_R   0.918089 0.325530 0.325275 -0.065817
C82   C     C_R   0.688955 0.688252 0.016228 -0.126797
C83   C     C_R   0.291290 0.293012 0.024274 -0.131811
C84   C     C_R   0.576420 0.070952 0.578356 0.085666
C85   C     C_R   0.393470 0.009574 0.400793 0.076597
C86   C     C_R   0.007413 0.594107 0.601300 0.073792
C87   C     C_R   0.939715 0.417798 0.420091 0.077347
C88   C     C_R   0.577524 0.578551 0.071457 0.086102
C89   C     C_R   0.574637 0.336181 0.990571 -0.227553
C90   C     C_R   0.385582 0.394026 0.031201 0.078416
C91   C     C_2   0.748497 0.933806 0.742493 0.498114
C92   C     C_2   0.304004 0.875011 0.298665 0.425824
C93   C     C_2   0.127183 0.704072 0.698634 0.426073
C94   C     C_2   0.874947 0.290676 0.289288 0.429303
C95   C     C_2   0.747131 0.744395 0.940344 0.479969
C96   C     C_2   0.235374 0.229589 0.059218 0.514296
H1    H     H_    0.323123 0.079234 0.693220 0.141445
H2    H     H_    0.317484 0.681814 0.117045 0.147001
H3    H     H_    0.917572 0.674814 0.313966 0.141292
H4    H     H_    0.053552 0.333005 0.689938 0.140478
H5    H     H_    0.403474 0.102918 0.766636 0.174134
H6    H     H_    0.505403 0.096273 0.180962 0.184033
H7    H     H_    0.909034 0.811909 0.493155 0.188493
H8    H     H_    0.912604 0.229519 0.597972 0.170118
H9    H     H_    0.768111 0.402780 0.095399 0.181313
H10   H     H_    0.168978 0.520784 0.104790 0.170847
H11   H     H_    0.242313 0.921869 0.592668 0.176556
H12   H     H_    0.582947 0.127921 0.250140 0.140972
H13   H     H_    0.762705 0.107091 0.402679 0.177238
H14   H     H_    0.572859 0.253046 0.926550 0.176233
H15   H     H_    0.405053 0.763706 0.114386 0.187073
H16   H     H_    0.901122 0.597268 0.234509 0.173411
H17   H     H_    0.095563 0.405452 0.756970 0.160965
H18   H     H_    0.744994 0.927959 0.810146 0.075121
H19   H     H_    0.331046 0.802383 0.326415 0.016195
H20   H     H_    0.200274 0.678278 0.674249 0.021480
H21   H     H_    0.801549 0.310292 0.305887 0.007341
H22   H     H_    0.757153 0.800349 0.947490 0.073541
H23   H     H_    0.886143 0.741202 0.411699 0.144011
H24   H     H_    0.229718 0.202378 0.013908 0.079684
H25   H     H_    0.955588 0.295478 0.668174 0.140133
H26   H     H_    0.689476 0.327419 0.073112 0.141406
H27   H     H_    0.244794 0.600943 0.124502 0.141457
H28   H     H_    0.301764 0.976845 0.660327 0.147813
H29   H     H_    0.676075 0.108724 0.318890 0.141680
H30   H     H_    0.648031 0.315156 0.969242 0.146896
O1    O     O_R   0.982940 0.138950 0.510160 -0.650313
O2    O     O_R   0.982940 0.510160 0.138950 -0.679316
O3    O     O_R   0.861050 0.017060 0.489840 -0.651464
O4    O     O_R   0.138950 0.982940 0.510160 -0.643532
O5    O     O_R   0.867700 0.025880 0.612340 -0.626501
O6    O     O_R   0.132300 0.974120 0.387660 -0.549385
O7    O     O_R   0.025880 0.612340 0.867700 -0.545746
O8    O     O_R   0.974120 0.387660 0.132300 -0.574225
O9    O     O_R   0.612340 0.867700 0.025880 -0.654825
O10   O     O_R   0.387660 0.132300 0.974120 -0.655037
O11   O     O_R   0.387660 0.974120 0.132300 -0.569430
O12   O     O_R   0.017060 0.861050 0.489840 -0.663379
O13   O     O_R   0.612340 0.025880 0.867700 -0.654355
O14   O     O_R   0.132300 0.387660 0.974120 -0.650220
O15   O     O_R   0.867700 0.612340 0.025880 -0.633675
O16   O     O_R   0.974120 0.132300 0.387660 -0.558697
O17   O     O_R   0.025880 0.867700 0.612340 -0.563397
O18   O     O_2   0.802617 0.872364 0.710696 -0.526887
O19   O     O_2   0.255060 0.903760 0.249122 -0.521036
O20   O     O_2   0.095015 0.753507 0.747060 -0.521202
O21   O     O_2   0.920537 0.240978 0.241013 -0.516277
O22   O     O_2   0.788483 0.724143 0.869709 -0.518982
O23   O     O_R   0.138950 0.510160 0.982940 -0.637345
O24   O     O_2   0.191697 0.211023 0.139029 -0.542834
O25   O     O_R   0.861050 0.489840 0.017060 -0.636275
O26   O     O_R   0.510160 0.982940 0.138950 -0.652591
O27   O     O_R   0.489840 0.017060 0.861050 -0.626830
O28   O     O_R   0.489840 0.861050 0.017060 -0.620825
O29   O     O_R   0.510160 0.138950 0.982940 -0.640332
O30   O     O_R   0.017060 0.489840 0.861050 -0.638340
Zn1   Zn    Zn3+2 0.004880 0.004880 0.583590 0.987832
Zn2   Zn    Zn3+2 0.995120 0.995120 0.416410 1.039052
Zn3   Zn    Zn3+2 0.004880 0.583590 0.004880 0.977258
Zn4   Zn    Zn3+2 0.995120 0.416410 0.995120 0.985479
Zn5   Zn    Zn3+2 0.583590 0.004880 0.004880 0.914241
Zn6   Zn    Zn3+2 0.416410 0.995120 0.995120 0.982637

loop_
_geom_bond_atom_site_label_1
_geom_bond_atom_site_label_2
_ccdc_geom_bond_type
O8    Zn4   S    
C9    O26   A    
C37   C43   A    
C65   C79   A    
C64   C77   A    
C29   H16   S    
C36   C42   A    
C16   C72   S    
C67   H28   S    
C7    C70   S    
C71   C79   A    
C15   O8    A    
O10   Zn6   S    
C54   C87   A    
O29   Zn5   S    
C1    C18   A    
C26   C78   A    
C37   C90   A    
O4    Zn1   S    
C68   C81   A    
C52   C85   A    
C74   C82   A    
C27   C60   A    
C23   H23   S    
C21   C54   A    
C94   H21   S    
C58   C71   A    
C54   C68   A    
C63   C76   A    
C83   C96   S    
C40   C49   A    
C60   C73   A    
O5    Zn1   S    
C32   C39   A    
C55   C88   A    
C3    C29   A    
C16   O5    A    
C13   O29   A    
C69   C82   A    
C11   O28   A    
C7    O23   A    
C21   H8    S    
C9    O11   A    
C19   C52   A    
O15   Zn3   S    
C3    C41   A    
C4    C40   A    
C27   H14   S    
C24   C57   A    
C31   C46   A    
C25   C67   A    
C35   C49   A    
C36   C48   A    
C53   C86   A    
C57   C70   A    
C37   C47   A    
C43   C48   A    
O1    Zn1   S    
O26   Zn5   S    
C59   C72   A    
C28   C61   A    
C92   O19   D    
C95   H22   S    
C30   C63   A    
C17   O6    A    
O9    Zn5   S    
C35   C87   A    
O16   Zn2   S    
C5    C68   S    
C35   C41   A    
C10   O27   A    
O3    Zn2   S    
O28   Zn6   S    
C18   C51   A    
O17   Zn1   S    
C89   H30   S    
C28   H15   S    
C32   C44   A    
C33   C40   A    
C57   C90   A    
C51   C64   A    
C56   H27   S    
O30   Zn4   S    
C8    O25   A    
C59   C84   A    
C1    H1    S    
C20   H7    S    
C75   C81   A    
C23   C50   A    
C21   C34   A    
C38   C78   A    
C33   C50   A    
O6    Zn2   S    
C31   C84   A    
O7    Zn3   S    
C93   H20   S    
C14   C76   S    
C6    O12   A    
C33   C86   A    
C38   C44   A    
C72   C77   A    
C70   C83   A    
C61   C88   A    
C11   O9    A    
O12   Zn2   S    
C20   C23   A    
O13   Zn5   S    
C96   O24   D    
C5    O1    A    
C8    C69   S    
C93   O20   D    
C43   C89   A    
C16   O3    A    
O23   Zn3   S    
C26   H13   S    
C79   C92   S    
C8    O15   A    
C39   C46   A    
C13   C73   S    
C17   C71   S    
C34   H25   S    
C15   O2    A    
C4    H4    S    
C63   C86   A    
C61   C74   A    
C13   O10   A    
C62   C75   A    
C24   H10   S    
C10   O13   A    
C58   C85   A    
C41   C50   A    
C25   H11   S    
C12   H12   S    
C91   O18   D    
C26   C59   A    
C45   C48   A    
C94   O21   D    
C29   C62   A    
C77   C91   S    
C34   C49   A    
C82   C95   S    
C14   O30   A    
C17   O4    A    
C39   C67   A    
C96   H24   S    
C10   C64   S    
C95   O22   D    
C76   C80   A    
C20   C53   A    
C11   C74   S    
C31   C38   A    
C22   C55   A    
C14   O7    A    
C60   C90   A    
C45   H26   S    
C24   C56   A    
C22   H9    S    
C66   C80   A    
C62   C87   A    
C91   H18   S    
O27   Zn6   S    
C15   C75   S    
O25   Zn4   S    
C55   C69   A    
C6    O17   A    
C36   C88   A    
C53   C66   A    
O14   Zn4   S    
C81   C94   S    
C5    O16   A    
O11   Zn6   S    
C2    C42   A    
C32   C85   A    
C12   C19   A    
C19   H6    S    
C27   C89   A    
C42   C47   A    
C1    C46   A    
C92   H19   S    
C9    C65   S    
C3    H3    S    
C7    O14   A    
C6    C66   S    
C22   C45   A    
C2    H2    S    
C12   C44   A    
C25   C58   A    
C2    C28   A    
C80   C93   S    
C78   H29   S    
C51   C84   A    
C73   C83   A    
C4    C30   A    
C52   C65   A    
O2    Zn3   S    
C47   C56   A    
C18   H5    S    
C30   H17   S    
