data_str_m2_o1_o9_f0_pcu.sym.3
_audit_creation_date              2012-10-26T20:08:13-0400
_audit_creation_method            fapswitch 2.2
_symmetry_space_group_name_H-M    P1
_symmetry_Int_Tables_number       1
_space_group_crystal_system       triclinic
_cell_length_a                    10.890357
_cell_length_b                    10.823974
_cell_length_c                    9.550936
_cell_angle_alpha                 90.038279
_cell_angle_beta                  90.904555
_cell_angle_gamma                 90.550485
_cell_volume                      1125.6424846

loop_
_atom_site_label
_atom_site_type_symbol
_atom_type_description
_atom_site_fract_x
_atom_site_fract_y
_atom_site_fract_z
_atom_type_partial_charge
C1    C     C_R   0.500036 0.262184 0.499936 0.550755
C2    C     C_R   0.498855 0.063983 0.627214 -0.107489
C3    C     C_R   0.499930 0.871719 0.500060 0.012735
C4    C     C_R   0.500092 0.128281 0.499940 0.012731
C5    C     C_R   0.459349 0.399263 0.073356 0.008517
C6    C     C_R   0.540648 0.600738 0.926644 0.008509
C7    C     C_R   0.459503 0.399245 0.924988 0.011765
C8    C     C_R   0.540494 0.600756 0.075012 0.011776
C9    C     C_R   0.262247 0.501576 0.498560 0.549183
C10   C     C_R   0.737753 0.498424 0.501440 0.549182
C11   C     C_R   0.212261 0.689015 0.071143 0.036912
C12   C     C_R   0.499970 0.737816 0.500064 0.550757
C13   C     C_R   0.787788 0.310937 0.928850 0.036883
C14   C     C_R   0.160421 0.666825 0.202821 -0.034709
C15   C     C_R   0.839632 0.333140 0.797177 -0.034759
C16   C     C_R   0.113453 0.549307 0.235400 0.024229
C17   C     C_R   0.886546 0.450672 0.764594 0.024229
C18   C     C_R   0.118136 0.453955 0.136687 -0.080533
C19   C     C_R   0.881811 0.546023 0.863299 -0.080505
C20   C     C_R   0.169799 0.475458 0.006475 -0.123354
C21   C     C_R   0.830149 0.524505 0.993509 -0.123339
C22   C     C_R   0.215602 0.592692 0.972932 -0.137370
C23   C     C_R   0.871722 0.497466 0.503923 -0.001151
C24   C     C_R   0.784393 0.407260 0.027053 -0.137367
C25   C     C_R   0.931727 0.521855 0.378642 -0.150448
C26   C     C_R   0.068272 0.478146 0.621356 -0.150448
C27   C     C_2   0.264494 0.811217 0.035078 0.202466
C28   C     C_2   0.735614 0.188714 0.964921 0.202467
C29   C     C_R   0.128278 0.502535 0.496075 -0.001154
C30   C     C_R   0.941299 0.475050 0.627165 -0.033779
C31   C     C_R   0.058700 0.524947 0.372833 -0.033779
C32   C     C_R   0.501271 0.063792 0.372714 -0.119849
C33   C     C_R   0.498755 0.936208 0.627285 -0.119857
C34   C     C_R   0.501175 0.936017 0.372784 -0.107453
Cu1   Cu    Cu3+1 0.500000 0.500020 0.640660 0.938666
Cu2   Cu    Cu3+1 0.500000 0.499980 0.359340 0.938681
H1    H     H_    0.255273 0.607864 0.871107 0.128667
H2    H     H_    0.824153 0.599829 0.067306 0.108605
H3    H     H_    0.879514 0.540445 0.284345 0.130683
H4    H     H_    0.120485 0.459555 0.715652 0.130677
H5    H     H_    0.502327 0.111736 0.273194 0.129875
H6    H     H_    0.497698 0.888264 0.726805 0.129873
H7    H     H_    0.502166 0.887909 0.273320 0.152692
H8    H     H_    0.497873 0.112092 0.726676 0.152624
H9    H     H_    0.425272 0.318708 0.127654 0.117050
H10   H     H_    0.574723 0.681293 0.872346 0.117049
H11   H     H_    0.305402 0.825706 0.933375 0.094982
H12   H     H_    0.744721 0.392077 0.128875 0.128650
H13   H     H_    0.694658 0.174236 0.066594 0.094988
H14   H     H_    0.425536 0.318669 0.869313 0.112419
H15   H     H_    0.574460 0.681333 0.130687 0.112429
H16   H     H_    0.157017 0.739922 0.280203 0.147318
H17   H     H_    0.843080 0.260043 0.719803 0.147312
H18   H     H_    0.082649 0.362793 0.161178 0.122288
H19   H     H_    0.917257 0.637197 0.838806 0.122292
H20   H     H_    0.175760 0.400131 0.932676 0.108611
N1    N     N_R   0.500030 0.500030 0.852070 -0.228585
N2    N     N_R   0.499970 0.499970 0.147930 -0.228584
O1    O     O_R   0.499990 0.319660 0.618740 -0.510299
O2    O     O_2   0.737338 0.102926 0.881909 -0.528831
O3    O     O_R   0.500010 0.680340 0.381260 -0.510285
O4    O     O_R   0.499990 0.319630 0.381170 -0.520521
O5    O     O_R   0.500010 0.680370 0.618830 -0.520524
O6    O     O_R   0.319650 0.500020 0.618780 -0.521267
O7    O     O_R   0.680350 0.499980 0.381220 -0.521268
O8    O     O_R   0.319640 0.500000 0.381210 -0.481568
O9    O     O_R   0.680360 0.500000 0.618790 -0.481568
O10   O     O_2   0.262877 0.896972 0.118143 -0.528877

loop_
_geom_bond_atom_site_label_1
_geom_bond_atom_site_label_2
_ccdc_geom_bond_type
C25   C31   A    
C2    C4    A    
C32   H5    S    
C13   C28   S    
Cu1   O6    S    
C12   O3    A    
C9    C29   S    
C10   C23   S    
C9    O6    A    
C5    C7    A    
C28   H13   S    
C11   C22   A    
Cu2   N2    S    
Cu1   Cu2   S    
C8    H15   S    
C11   C27   S    
Cu1   N1    S    
C1    C4    S    
C1    O4    A    
C1    O1    A    
C29   C31   A    
C10   O9    A    
C25   H3    S    
C16   C31   S    
C17   C30   S    
C6    N1    A    
C26   H4    S    
C4    C32   A    
C28   O2    D    
C5    N2    A    
Cu2   O4    S    
C33   H6    S    
C15   H17   S    
C2    C33   A    
C16   C18   A    
C17   C19   A    
C20   C22   A    
C26   C30   A    
C18   C20   A    
C20   H20   S    
C13   C15   A    
C34   H7    S    
C6    H10   S    
C11   C14   A    
C14   C16   A    
C21   C24   A    
Cu1   O9    S    
C3    C33   A    
C27   H11   S    
Cu2   O3    S    
C24   H12   S    
C23   C30   A    
C23   C25   A    
C3    C34   A    
C13   C24   A    
C26   C29   A    
Cu1   O1    S    
C10   O7    A    
C19   H19   S    
C15   C17   A    
C12   O5    A    
C18   H18   S    
C9    O8    A    
C6    C8    A    
C3    C12   S    
Cu2   O8    S    
C27   O10   D    
C8    N2    A    
Cu2   O7    S    
C22   H1    S    
C5    H9    S    
Cu1   O5    S    
C7    N1    A    
C14   H16   S    
C21   H2    S    
C7    H14   S    
C2    H8    S    
C19   C21   A    
C32   C34   A    
