data_str_m4_o4_o15_f0_acs.sym.78
_audit_creation_date              2012-12-11T15:45:05-0500
_audit_creation_method            fapswitch 2.2
_symmetry_space_group_name_H-M    P1
_symmetry_Int_Tables_number       1
_space_group_crystal_system       triclinic
_cell_length_a                    19.016619
_cell_length_b                    10.929168
_cell_length_c                    18.726272
_cell_angle_alpha                 90.288193
_cell_angle_beta                  90.067942
_cell_angle_gamma                 89.684827
_cell_volume                      3891.87944198

loop_
_atom_site_label
_atom_site_type_symbol
_atom_type_description
_atom_site_fract_x
_atom_site_fract_y
_atom_site_fract_z
_atom_type_partial_charge
C1    C     C_R   0.759988 0.535572 0.646624 0.529182
C2    C     C_R   0.239201 0.535149 0.353135 0.535505
C3    C     C_R   0.259989 0.035570 0.646623 0.528532
C4    C     C_R   0.739205 0.035159 0.353128 0.549571
C5    C     C_R   0.733920 0.038087 0.550578 -0.126939
C6    C     C_R   0.162495 0.114428 0.480181 -0.167182
C7    C     C_R   0.233886 0.538125 0.550581 -0.127420
C8    C     C_R   0.662494 0.614412 0.480178 -0.167200
C9    C     C_R   0.718741 0.009379 0.479780 -0.128548
C10   C     C_R   0.173797 0.088612 0.552279 -0.161518
C11   C     C_R   0.218707 0.509418 0.479784 -0.126358
C12   C     C_R   0.673795 0.588597 0.552277 -0.161402
C13   C     C_3   0.797315 0.299694 0.417731 -0.274105
C14   C     C_3   0.366149 0.159293 0.534412 -0.255671
C15   C     C_3   0.297387 0.799646 0.417729 -0.278523
C16   C     C_3   0.866138 0.659357 0.534420 -0.255993
C17   C     C_3   0.812009 0.332560 0.494989 -0.284104
C18   C     C_3   0.353217 0.184169 0.455747 -0.262845
C19   C     C_3   0.312079 0.832514 0.494988 -0.282050
C20   C     C_3   0.853204 0.684242 0.455756 -0.262544
C21   C     C_R   0.776702 0.138594 0.566043 0.033083
C22   C     C_R   0.217049 0.161510 0.438474 -0.000824
C23   C     C_R   0.276699 0.638591 0.566045 0.032988
C24   C     C_R   0.717043 0.661517 0.438475 -0.001366
C25   C     C_R   0.003558 0.347222 0.429045 -0.045590
C26   C     C_R   0.010384 0.329246 0.579066 -0.041829
C27   C     C_R   0.503590 0.847222 0.429061 -0.045767
C28   C     C_R   0.510407 0.829236 0.579081 -0.041721
C29   C     C_R   0.967898 0.130994 0.422103 -0.085340
C30   C     C_R   0.992908 0.105049 0.567630 -0.083542
C31   C     C_R   0.467911 0.630998 0.422120 -0.085953
C32   C     C_R   0.492924 0.605045 0.567646 -0.083491
C33   C     C_R   0.960787 0.017135 0.454045 -0.120140
C34   C     C_R   0.974669 0.003592 0.526399 -0.131553
C35   C     C_R   0.460786 0.517142 0.454063 -0.120555
C36   C     C_R   0.474672 0.503593 0.526416 -0.131020
C37   C     C_R   0.997687 0.222901 0.537021 0.006934
C38   C     C_R   0.989983 0.233919 0.462139 -0.009173
C39   C     C_R   0.497711 0.722895 0.537035 0.007048
C40   C     C_R   0.490008 0.733917 0.462154 -0.008378
C41   C     C_R   0.031353 0.437557 0.545592 -0.000715
C42   C     C_R   0.016709 0.453154 0.472701 0.003497
C43   C     C_R   0.531392 0.937540 0.545613 -0.000637
C44   C     C_R   0.516755 0.953147 0.472720 0.004033
C45   C     C_R   0.791596 0.170975 0.638749 0.560417
C46   C     C_R   0.208154 0.172692 0.361094 0.561978
C47   C     C_R   0.291595 0.670974 0.638749 0.560146
C48   C     C_R   0.708152 0.672695 0.361094 0.565883
C49   C     C_R   0.061157 0.534897 0.585293 -0.082722
C50   C     C_R   0.016305 0.575270 0.446632 -0.075688
C51   C     C_R   0.561198 0.034867 0.585322 -0.082648
C52   C     C_R   0.516361 0.075268 0.446658 -0.075895
C53   C     C_R   0.067783 0.650757 0.555702 -0.117100
C54   C     C_R   0.042967 0.671870 0.487173 -0.132109
C55   C     C_R   0.567834 0.150730 0.555738 -0.116809
C56   C     C_R   0.543025 0.171857 0.487207 -0.132254
C57   C     C_R   0.728829 0.998331 0.062698 0.028690
C58   C     C_R   0.251589 0.063801 0.926531 0.018860
C59   C     C_R   0.246670 0.562086 0.072274 0.018666
C60   C     C_R   0.746363 0.581093 0.922729 0.018649
C61   C     C_R   0.787604 0.956972 0.025106 -0.002764
C62   C     C_R   0.209236 0.987035 0.967475 0.020055
C63   C     C_R   0.298637 0.500436 0.033743 0.010098
C64   C     C_R   0.689697 0.533438 0.961187 0.000455
C65   C     C_R   0.796626 0.985790 0.953842 0.026578
C66   C     C_R   0.205135 0.001944 0.040582 0.014919
C67   C     C_R   0.302763 0.510551 0.960753 0.015105
C68   C     C_R   0.687206 0.543721 0.033944 0.013143
C69   C     C_R   0.683742 0.085850 0.951266 -0.168977
C70   C     C_R   0.291242 0.163729 0.034142 -0.165614
C71   C     C_R   0.196351 0.632069 0.960287 -0.163709
C72   C     C_R   0.793731 0.661437 0.033540 -0.156270
C73   C     C_R   0.674235 0.054635 0.023593 -0.139447
C74   C     C_R   0.293028 0.151903 0.960038 -0.170491
C75   C     C_R   0.193454 0.623546 0.034712 -0.161910
C76   C     C_R   0.796143 0.652527 0.958954 -0.153322
C77   C     C_3   0.863618 0.976512 0.042435 -0.259369
C78   C     C_3   0.131498 0.974684 0.958807 -0.254359
C79   C     C_3   0.376293 0.507432 0.044297 -0.273796
C80   C     C_3   0.661465 0.405264 0.963832 -0.256866
C81   C     C_3   0.873036 0.009664 0.965038 -0.124612
C82   C     C_3   0.126389 0.000716 0.037436 -0.122750
C83   C     C_3   0.381283 0.523509 0.964376 -0.115465
C84   C     C_3   0.658303 0.418354 0.044309 -0.140178
C85   C     C_R   0.748083 0.060117 0.917513 0.002917
C86   C     C_R   0.246373 0.089547 0.075004 0.003218
C87   C     C_R   0.253680 0.581463 0.923142 0.006774
C88   C     C_R   0.740457 0.601902 0.071724 0.024676
C89   C     C_R   0.973836 0.343924 0.648382 0.520765
C90   C     C_R   0.029037 0.347927 0.354119 0.520165
C91   C     C_R   0.473840 0.843923 0.648386 0.520275
C92   C     C_R   0.529046 0.847927 0.354126 0.521895
C93   C     C_R   0.989707 0.338453 0.080605 0.025073
C94   C     C_R   0.983408 0.342961 0.931134 0.018614
C95   C     C_R   0.498688 0.831736 0.076962 0.014395
C96   C     C_R   0.489157 0.842867 0.928232 0.018690
C97   C     C_R   0.968216 0.444542 0.044975 0.021497
C98   C     C_R   0.965223 0.445658 0.971794 0.036487
C99   C     C_R   0.463322 0.928614 0.044743 0.012278
C100  C     C_R   0.460832 0.934546 0.971856 0.037879
C101  C     C_R   0.993132 0.231768 0.966824 -0.184871
C102  C     C_R   0.991538 0.228534 0.041617 -0.173943
C103  C     C_R   0.514728 0.736086 0.960105 -0.180332
C104  C     C_R   0.519173 0.730103 0.034454 -0.168420
C105  C     C_3   0.993489 0.574179 0.047320 -0.252327
C106  C     C_3   0.991144 0.573491 0.966682 -0.259412
C107  C     C_3   0.469949 0.064733 0.051888 -0.275135
C108  C     C_3   0.472014 0.069318 0.971144 -0.246535
C109  C     C_R   0.760166 0.532184 0.852187 0.548216
C110  C     C_R   0.238978 0.530184 0.146815 0.548904
C111  C     C_R   0.260458 0.031234 0.852506 0.546668
C112  C     C_R   0.725483 0.980106 0.140411 0.579670
C113  C     C_R   0.771537 0.122552 0.852221 0.541788
C114  C     C_R   0.227155 0.127577 0.146406 0.553894
C115  C     C_R   0.272546 0.625750 0.852981 0.551696
C116  C     C_R   0.726912 0.628144 0.146091 0.556450
C117  C     C_R   0.967985 0.347244 0.855369 0.541240
C118  C     C_R   0.027715 0.346754 0.147727 0.549741
C119  C     C_R   0.469978 0.847127 0.853879 0.540487
C120  C     C_R   0.529631 0.845832 0.146692 0.543064
C121  C     C_R   0.747587 0.079415 0.424531 0.031574
C122  C     C_R   0.240509 0.107244 0.583526 0.004426
C123  C     C_R   0.247584 0.579415 0.424535 0.034369
C124  C     C_R   0.740504 0.607249 0.583527 0.004622
C125  C     C_R   0.796987 0.168861 0.440285 0.011245
C126  C     C_R   0.289098 0.176613 0.545365 0.013097
C127  C     C_R   0.297010 0.668816 0.440291 0.010119
C128  C     C_R   0.789084 0.676641 0.545371 0.013279
C129  C     C_R   0.810618 0.199225 0.510725 0.011990
C130  C     C_R   0.277581 0.202395 0.473828 0.025529
C131  C     C_R   0.310641 0.699181 0.510729 0.012976
C132  C     C_R   0.777566 0.702425 0.473835 0.024498
Cr1   Cr    Cr6+3 0.885860 0.491680 0.749630 1.024173
Cr2   Cr    Cr6+3 0.114140 0.491680 0.250370 1.025870
Cr3   Cr    Cr6+3 0.385860 0.991680 0.749630 1.024952
Cr4   Cr    Cr6+3 0.614140 0.991680 0.250370 1.006835
Cr5   Cr    Cr6+3 0.730490 0.332970 0.748720 1.004429
Cr6   Cr    Cr6+3 0.269510 0.332970 0.251280 1.000055
Cr7   Cr    Cr6+3 0.230490 0.832970 0.748720 1.008145
Cr8   Cr    Cr6+3 0.769510 0.832970 0.251280 1.007342
Cr9   Cr    Cr6+3 0.887570 0.179310 0.750150 1.021244
Cr10  Cr    Cr6+3 0.112430 0.179310 0.249850 1.019093
Cr11  Cr    Cr6+3 0.387570 0.679310 0.750150 1.018846
Cr12  Cr    Cr6+3 0.612430 0.679310 0.249850 0.996057
H1    H     H_    0.711207 0.984245 0.593039 0.129921
H2    H     H_    0.113334 0.087802 0.455846 0.158139
H3    H     H_    0.211150 0.484312 0.593043 0.129679
H4    H     H_    0.613339 0.587765 0.455840 0.157953
H5    H     H_    0.089629 0.725071 0.586904 0.125523
H6    H     H_    0.043997 0.763353 0.465357 0.108700
H7    H     H_    0.589680 0.225035 0.586947 0.125473
H8    H     H_    0.544059 0.263345 0.465399 0.107536
H9    H     H_    0.643958 0.139528 0.924247 0.120698
H10   H     H_    0.320941 0.236842 0.058713 0.141033
H11   H     H_    0.157107 0.685686 0.932625 0.129123
H12   H     H_    0.833586 0.712721 0.061393 0.127515
H13   H     H_    0.627505 0.084960 0.050507 0.129224
H14   H     H_    0.324865 0.213260 0.928758 0.144832
H15   H     H_    0.151399 0.667966 0.063084 0.154626
H16   H     H_    0.838676 0.694805 0.930226 0.144211
H17   H     H_    0.891469 0.891668 0.058915 0.136455
H18   H     H_    0.115843 0.880894 0.942679 0.152337
H19   H     H_    0.398631 0.420016 0.064692 0.133883
H20   H     H_    0.700551 0.336746 0.944663 0.166472
H21   H     H_    0.872073 0.055819 0.078824 0.163683
H22   H     H_    0.108555 0.048142 0.925125 0.131194
H23   H     H_    0.392243 0.590195 0.074934 0.133593
H24   H     H_    0.608614 0.398265 0.938738 0.144533
H25   H     H_    0.884285 0.107294 0.956545 0.143801
H26   H     H_    0.105289 0.092684 0.049239 0.137326
H27   H     H_    0.398552 0.615905 0.948406 0.150812
H28   H     H_    0.604098 0.418665 0.066452 0.116092
H29   H     H_    0.000689 0.147829 0.937010 0.130370
H30   H     H_    0.997958 0.142179 0.068709 0.129444
H31   H     H_    0.531897 0.658915 0.927899 0.134269
H32   H     H_    0.544280 0.650627 0.057801 0.146635
H33   H     H_    0.047551 0.583474 0.067830 0.181270
H34   H     H_    0.951154 0.636259 0.944436 0.171319
H35   H     H_    0.518606 0.098096 0.077121 0.154188
H36   H     H_    0.427743 0.119006 0.946854 0.178197
H37   H     H_    0.954397 0.637339 0.071930 0.145552
H38   H     H_    0.043811 0.578811 0.941331 0.140950
H39   H     H_    0.421937 0.106237 0.075244 0.138165
H40   H     H_    0.524332 0.094212 0.949616 0.140580
H41   H     H_    0.684709 0.932612 0.468017 0.122055
H42   H     H_    0.133078 0.040355 0.580695 0.141529
H43   H     H_    0.184653 0.432680 0.468021 0.122162
H44   H     H_    0.633082 0.540321 0.580688 0.141499
H45   H     H_    0.245126 0.832147 0.398675 0.157008
H46   H     H_    0.884573 0.564975 0.545490 0.159205
H47   H     H_    0.745039 0.332142 0.398689 0.158474
H48   H     H_    0.384572 0.064905 0.545487 0.159167
H49   H     H_    0.841998 0.320264 0.381580 0.139687
H50   H     H_    0.397098 0.232074 0.561302 0.144433
H51   H     H_    0.342085 0.820160 0.381588 0.135251
H52   H     H_    0.897074 0.732147 0.561317 0.144505
H53   H     H_    0.864970 0.371741 0.503446 0.134885
H54   H     H_    0.377899 0.269574 0.436805 0.138668
H55   H     H_    0.365051 0.871643 0.503452 0.134876
H56   H     H_    0.877869 0.769665 0.436821 0.139228
H57   H     H_    0.768004 0.382818 0.520764 0.148557
H58   H     H_    0.362002 0.102501 0.421148 0.140569
H59   H     H_    0.268085 0.882824 0.520752 0.148529
H60   H     H_    0.862002 0.602588 0.421151 0.141745
H61   H     H_    0.945633 0.939160 0.422042 0.109239
H62   H     H_    0.971423 0.914294 0.550759 0.105977
H63   H     H_    0.445614 0.439174 0.422064 0.106902
H64   H     H_    0.471415 0.414298 0.550777 0.105897
H65   H     H_    0.954511 0.138085 0.366119 0.134757
H66   H     H_    0.006434 0.088823 0.622862 0.134138
H67   H     H_    0.454518 0.638093 0.366138 0.130696
H68   H     H_    0.506449 0.588819 0.622878 0.133967
H69   H     H_    0.992853 0.599469 0.396071 0.140983
H70   H     H_    0.078291 0.521563 0.639919 0.128130
H71   H     H_    0.492910 0.099485 0.396101 0.138523
H72   H     H_    0.578322 0.021521 0.639951 0.128127
O1    O     O_R   0.957020 0.451640 0.669920 -0.516724
O2    O     O_R   0.042980 0.451640 0.330080 -0.524788
O3    O     O_R   0.457020 0.951640 0.669920 -0.517066
O4    O     O_R   0.542980 0.951640 0.330080 -0.525898
O5    O     O_R   0.736470 0.210100 0.823360 -0.505267
O6    O     O_R   0.263530 0.210100 0.176640 -0.506571
O7    O     O_R   0.236470 0.710100 0.823360 -0.499663
O8    O     O_R   0.763530 0.710100 0.176640 -0.519881
O9    O     O_R   0.831960 0.093290 0.830130 -0.505778
O10   O     O_R   0.168040 0.093290 0.169870 -0.505751
O11   O     O_R   0.331960 0.593290 0.830130 -0.510095
O12   O     O_R   0.668040 0.593290 0.169870 -0.512026
O13   O     O_R   0.945600 0.250580 0.824860 -0.506587
O14   O     O_R   0.054400 0.250580 0.175140 -0.507108
O15   O     O_R   0.445600 0.750580 0.824860 -0.509301
O16   O     O_R   0.554400 0.750580 0.175140 -0.513155
O17   O     O_3   0.834640 0.334650 0.749500 -0.265403
O18   O     O_3   0.165360 0.334650 0.250500 -0.267874
O19   O     O_3   0.334640 0.834650 0.749500 -0.266073
O20   O     O_3   0.665360 0.834650 0.250500 -0.289785
O21   O     O_R   0.821450 0.543440 0.674610 -0.496272
O22   O     O_R   0.178550 0.543440 0.325390 -0.497762
O23   O     O_R   0.321450 0.043440 0.674610 -0.496382
O24   O     O_R   0.678550 0.043440 0.325390 -0.494032
O25   O     O_R   0.715320 0.458650 0.668100 -0.536062
O26   O     O_R   0.284680 0.458650 0.331900 -0.528237
O27   O     O_R   0.215320 0.958650 0.668100 -0.536696
O28   O     O_R   0.784680 0.958650 0.331900 -0.522593
O29   O     O_R   0.737170 0.209590 0.674530 -0.509196
O30   O     O_R   0.262830 0.209590 0.325470 -0.501451
O31   O     O_R   0.237170 0.709590 0.674530 -0.509905
O32   O     O_R   0.762830 0.709590 0.325470 -0.498078
O33   O     O_R   0.832710 0.092740 0.669580 -0.508402
O34   O     O_R   0.167290 0.092740 0.330420 -0.516053
O35   O     O_R   0.332710 0.592740 0.669580 -0.508654
O36   O     O_R   0.667290 0.592740 0.330420 -0.515189
O37   O     O_R   0.946290 0.250060 0.676040 -0.521340
O38   O     O_R   0.053710 0.250060 0.323960 -0.519289
O39   O     O_R   0.446290 0.750060 0.676040 -0.521768
O40   O     O_R   0.553710 0.750060 0.323960 -0.517630
O41   O     O_R   0.956270 0.452200 0.830470 -0.512099
O42   O     O_R   0.043730 0.452200 0.169530 -0.518187
O43   O     O_R   0.456270 0.952200 0.830470 -0.511486
O44   O     O_R   0.543730 0.952200 0.169530 -0.534141
O45   O     O_R   0.820760 0.543950 0.823440 -0.496964
O46   O     O_R   0.179240 0.543950 0.176560 -0.496489
O47   O     O_R   0.320760 0.043950 0.823440 -0.495798
O48   O     O_R   0.679240 0.043950 0.176560 -0.486176
O49   O     O_R   0.714570 0.459210 0.828640 -0.519782
O50   O     O_R   0.285430 0.459210 0.171360 -0.522534
O51   O     O_R   0.214570 0.959210 0.828640 -0.516505
O52   O     O_R   0.785430 0.959210 0.171360 -0.513224
C133  C     C_1   0.918755 0.925336 0.924680 0.199498
N1    N     N_1   0.955073 0.860248 0.892463 -0.344168
C134  C     C_1   0.093573 0.903671 0.079699 0.205495
N2    N     N_1   0.066806 0.829250 0.113774 -0.341576
C135  C     C_1   0.419262 0.424173 0.927580 0.194429
N3    N     N_1   0.449618 0.347044 0.898151 -0.349273
C136  C     C_1   0.707979 0.337833 0.082472 0.206429
N4    N     N_1   0.747666 0.276402 0.112715 -0.282444

loop_
_geom_bond_atom_site_label_1
_geom_bond_atom_site_label_2
_ccdc_geom_bond_type
C51   H72   S    
C58   C62   A    
C119  O43   A    
C55   C56   A    
C82   H26   S    
C67   C83   S    
C101  C102  A    
C72   H12   S    
Cr5   O5    S    
Cr4   O48   S    
Cr9   O33   S    
C41   C42   A    
C14   C18   S    
C96   C119  S    
C101  H29   S    
C35   C36   A    
Cr10  O38   S    
C75   H15   S    
C72   C76   A    
C30   C34   A    
Cr7   O31   S    
Cr3   O43   S    
C120  O16   A    
C47   O31   A    
C97   C98   A    
C54   H6    S    
C63   C79   S    
C53   C54   A    
C34   H62   S    
C26   C89   S    
Cr1   O45   S    
Cr12  O40   S    
C33   H61   S    
C25   C90   S    
C50   C54   A    
Cr11  O35   S    
C116  O12   A    
C11   H43   S    
C64   C68   A    
C115  O7    A    
C16   C20   S    
C37   C38   A    
C1    O25   A    
C9    H41   S    
C83   C135  S    
C32   H68   S    
C94   C117  S    
C95   C99   A    
Cr10  O14   S    
C57   C112  S    
C66   C82   S    
C94   C98   A    
C92   O40   A    
C77   H21   S    
C134  N2    T    
C12   H44   S    
C73   H13   S    
C17   H57   S    
C59   C110  S    
C117  O41   A    
C31   C40   A    
C108  H36   S    
Cr8   O32   S    
C51   C55   A    
C36   H64   S    
C32   C39   A    
C57   C73   A    
C92   O4    A    
C24   C132  A    
C46   O34   A    
Cr2   O42   S    
Cr10  O34   S    
C45   O33   A    
C121  C125  A    
Cr5   O49   S    
C27   C44   A    
C41   C49   A    
C106  H38   S    
C136  N4    T    
C29   C33   A    
C61   C77   S    
C113  O5    A    
C83   H27   S    
C29   C38   A    
C70   C74   A    
C9    C121  A    
C107  C108  S    
Cr8   O52   S    
C69   C73   A    
C60   C109  S    
C81   H25   S    
C56   H8    S    
Cr7   O27   S    
C112  O52   A    
C47   O35   A    
Cr6   O26   S    
C3    C122  S    
C119  O15   A    
C124  C128  A    
C97   C105  S    
C122  C126  A    
C44   C52   A    
C6    C22   A    
Cr1   O41   S    
Cr12  O36   S    
C71   H11   S    
Cr2   O46   S    
C15   C127  S    
C133  N1    T    
C22   C130  A    
C53   H5    S    
C64   C80   S    
C79   H23   S    
C8    H4    S    
Cr1   O21   S    
C29   H65   S    
C20   C132  S    
Cr6   O18   S    
C128  C132  A    
C19   H59   S    
C72   C88   A    
C62   C78   S    
C7    C11   A    
C46   O30   A    
C21   C45   S    
C14   C126  S    
C19   C131  S    
C63   C67   A    
C100  C108  S    
C5    H1    S    
C103  H31   S    
Cr12  O20   S    
C17   C129  S    
C80   C84   S    
C68   C84   S    
C80   H24   S    
C23   C47   S    
C88   C116  S    
C20   H60   S    
C104  H32   S    
C30   H66   S    
Cr9   O13   S    
C45   O29   A    
C39   C40   A    
C126  C130  A    
C62   C66   A    
Cr8   O8    S    
Cr1   O17   S    
Cr6   O50   S    
C50   H69   S    
C1    O21   A    
Cr2   O2    S    
C2    O22   A    
C89   O1    A    
C49   H70   S    
C60   C76   A    
C7    H3    S    
C80   H20   S    
C58   C111  S    
C30   C37   A    
C107  H39   S    
C82   C134  S    
Cr8   O28   S    
C5    C21   A    
C24   C48   S    
C116  O8    A    
C15   C19   S    
C43   C44   A    
C115  O11   A    
C18   H54   S    
Cr6   O30   S    
Cr10  O10   S    
C125  C129  A    
C25   C38   A    
C114  O10   A    
Cr9   O9    S    
Cr5   O29   S    
C78   C82   S    
C93   C97   A    
C113  O9    A    
C99   C100  A    
C12   C124  A    
C77   C81   S    
C27   C40   A    
C8    C12   A    
Cr3   O3    S    
C81   C133  S    
C33   C34   A    
C4    O24   A    
C23   C131  A    
C27   C92   S    
C18   H58   S    
C3    O27   A    
Cr4   O44   S    
C114  O6    A    
C74   H14   S    
C17   H53   S    
C16   C128  S    
C21   C129  A    
C78   H22   S    
C16   H46   S    
C42   C50   A    
C71   C87   A    
C90   O38   A    
C35   H63   S    
C22   C46   S    
C109  O49   A    
C112  O48   A    
C15   H45   S    
C78   H18   S    
Cr4   O24   S    
Cr7   O19   S    
C68   C88   A    
C31   C35   A    
C79   H19   S    
C93   C118  S    
C14   H50   S    
Cr5   O17   S    
C70   C86   A    
C59   C75   A    
C123  C127  A    
C110  O50   A    
C4    O28   A    
C69   C85   A    
C95   C104  A    
C58   C74   A    
C105  H33   S    
C69   H9    S    
Cr7   O7    S    
C55   H7    S    
C2    O26   A    
Cr7   O51   S    
C76   H16   S    
C94   C101  A    
C107  H35   S    
C86   C114  S    
C70   H10   S    
C93   C102  A    
C59   C63   A    
Cr12  O16   S    
C11   C123  A    
C71   C75   A    
Cr11  O11   S    
C84   H28   S    
C98   C106  S    
C25   C42   A    
C66   C86   A    
Cr4   O20   S    
C32   C36   A    
C26   C37   A    
C57   C61   A    
Cr3   O47   S    
Cr4   O4    S    
C108  H40   S    
C95   C120  S    
C102  H30   S    
C99   C107  S    
C105  C106  S    
C28   C39   A    
C28   C43   A    
C19   H55   S    
C13   H47   S    
C13   C17   S    
C60   C64   A    
C87   C115  S    
C127  C131  A    
C85   C113  S    
C1    C124  S    
C15   H51   S    
C48   O32   A    
C65   C85   A    
C120  O44   A    
C110  O46   A    
C79   C83   S    
Cr11  O39   S    
C43   C51   A    
C96   C103  A    
C7    C23   A    
C91   O39   A    
Cr5   O25   S    
C118  O14   A    
C6    H2    S    
C96   C100  A    
C117  O13   A    
C16   H52   S    
C10   H42   S    
C77   H17   S    
Cr3   O23   S    
C4    C121  S    
C28   C91   S    
Cr3   O19   S    
C14   H48   S    
C52   H71   S    
C48   O36   A    
C91   O3    A    
Cr11  O15   S    
C89   O37   A    
Cr1   O1    S    
C90   O2    A    
C49   C53   A    
C18   C130  S    
C6    C10   A    
Cr2   O22   S    
C111  O51   A    
Cr11  O19   S    
C61   C65   A    
C10   C122  A    
Cr10  O18   S    
C31   H67   S    
C8    C24   A    
C26   C41   A    
Cr9   O17   S    
C118  O42   A    
C84   C136  S    
C103  C104  A    
Cr8   O20   S    
Cr6   O6    S    
C65   C81   S    
Cr12  O12   S    
C13   H49   S    
C5    C9    A    
C105  H37   S    
C67   C87   A    
C111  O47   A    
C109  O45   A    
C13   C125  S    
C106  H34   S    
C20   H56   S    
C2    C123  S    
C52   C56   A    
Cr9   O37   S    
C3    O23   A    
Cr2   O18   S    
C135  N3    T    
