data_str_m4_o22_o22_f0_acs.sym.3
_audit_creation_date              2012-12-11T15:07:00-0500
_audit_creation_method            fapswitch 2.2
_symmetry_space_group_name_H-M    P1
_symmetry_Int_Tables_number       1
_space_group_crystal_system       triclinic
_cell_length_a                    19.822475
_cell_length_b                    11.245355
_cell_length_c                    18.710376
_cell_angle_alpha                 90.000067
_cell_angle_beta                  89.47873
_cell_angle_gamma                 89.999989
_cell_volume                      4170.5716824

loop_
_atom_site_label
_atom_site_type_symbol
_atom_type_description
_atom_site_fract_x
_atom_site_fract_y
_atom_site_fract_z
_atom_type_partial_charge
C1    C     C_R   0.761653 0.523534 0.639129 0.536356
C2    C     C_3   0.253300 0.056710 0.563077 0.066905
C3    C     C_R   0.740370 0.036445 0.152496 0.534005
C4    C     C_R   0.775875 0.136155 0.860173 0.535493
C5    C     C_R   0.224127 0.136150 0.139828 0.535488
C6    C     C_R   0.275875 0.636155 0.860173 0.535493
C7    C     C_R   0.724127 0.636150 0.139828 0.535488
C8    C     C_R   0.968415 0.354344 0.853985 0.518362
C9    C     C_R   0.031585 0.354345 0.146014 0.518363
C10   C     C_R   0.468415 0.854344 0.853985 0.518362
C11   C     C_R   0.531585 0.854345 0.146014 0.518363
C12   C     C_3   0.687525 0.131860 0.466512 -0.234820
C13   C     C_3   0.246700 0.556710 0.436923 0.066906
C14   C     C_3   0.312475 0.131860 0.533488 -0.234819
C15   C     C_3   0.187525 0.631860 0.466512 -0.234820
C16   C     C_3   0.812475 0.631860 0.533488 -0.234819
C17   C     C_3   0.693200 0.144374 0.547653 -0.230404
C18   C     C_3   0.306800 0.144374 0.452347 -0.230405
C19   C     C_3   0.193200 0.644374 0.547653 -0.230404
C20   C     C_3   0.806800 0.644374 0.452347 -0.230405
C21   C     C_3   0.756158 0.938411 0.480629 -0.215458
C22   C     C_3   0.243842 0.938412 0.519371 -0.215459
C23   C     C_3   0.256159 0.438411 0.480629 -0.215458
C24   C     C_3   0.753300 0.556710 0.563077 0.066905
C25   C     C_3   0.743842 0.438412 0.519371 -0.215459
C26   C     C_R   0.957434 0.581009 0.085190 0.010980
C27   C     C_R   0.945927 0.698569 0.061578 -0.152016
C28   C     C_R   0.928418 0.789098 0.109313 -0.127898
C29   C     C_R   0.912345 0.762368 0.179966 -0.062780
C30   C     C_R   0.909575 0.644131 0.201411 -0.084549
C31   C     C_R   0.929657 0.554262 0.154225 -0.062021
C32   C     C_R   0.042567 0.581006 0.914808 0.010980
C33   C     C_R   0.054073 0.698566 0.938418 -0.152021
C34   C     C_R   0.071582 0.789093 0.890681 -0.127897
C35   C     C_3   0.760652 0.090102 0.574338 0.068355
C36   C     C_R   0.087653 0.762360 0.820029 -0.062780
C37   C     C_R   0.090425 0.644122 0.798587 -0.084547
C38   C     C_R   0.070345 0.554255 0.845775 -0.062020
C39   C     C_R   0.457434 0.081009 0.085190 0.010980
C40   C     C_R   0.445927 0.198569 0.061578 -0.152016
C41   C     C_R   0.428418 0.289098 0.109313 -0.127898
C42   C     C_R   0.412345 0.262368 0.179966 -0.062780
C43   C     C_R   0.409575 0.144131 0.201411 -0.084549
C44   C     C_R   0.429657 0.054262 0.154225 -0.062021
C45   C     C_R   0.542567 0.081006 0.914808 0.010980
C46   C     C_3   0.239347 0.090102 0.425662 0.068355
C47   C     C_R   0.554073 0.198566 0.938418 -0.152021
C48   C     C_R   0.571582 0.289093 0.890681 -0.127897
C49   C     C_R   0.587653 0.262360 0.820029 -0.062780
C50   C     C_R   0.590425 0.144122 0.798587 -0.084547
C51   C     C_R   0.570345 0.054255 0.845775 -0.062020
C52   C     C_3   0.260652 0.590102 0.574338 0.068355
C53   C     C_3   0.739348 0.590102 0.425662 0.068355
C54   C     C_3   0.754092 0.957047 0.562103 -0.263145
C55   C     C_3   0.245908 0.957048 0.437897 -0.263144
C56   C     C_3   0.254092 0.457047 0.562103 -0.263145
C57   C     C_R   0.238347 0.523534 0.360871 0.536356
C58   C     C_3   0.745908 0.457048 0.437897 -0.263144
C59   C     C_3   0.822923 0.133332 0.529196 -0.214846
C60   C     C_3   0.177076 0.133332 0.470805 -0.214846
C61   C     C_3   0.322923 0.633332 0.529196 -0.214846
C62   C     C_3   0.677076 0.633332 0.470805 -0.214846
C63   C     C_3   0.004066 0.203396 0.458978 -0.233038
C64   C     C_3   0.995933 0.203396 0.541022 -0.233039
C65   C     C_3   0.504066 0.703396 0.458978 -0.233038
C66   C     C_3   0.495933 0.703396 0.541022 -0.233039
C67   C     C_3   0.064094 0.405991 0.473629 -0.209748
C68   C     C_R   0.261653 0.023534 0.639129 0.536356
C69   C     C_3   0.935906 0.405992 0.526371 -0.209748
C70   C     C_3   0.564094 0.905991 0.473629 -0.209748
C71   C     C_3   0.435907 0.905992 0.526371 -0.209748
C72   C     C_3   0.941920 0.390238 0.445281 -0.265075
C73   C     C_3   0.058080 0.390237 0.554719 -0.265076
C74   C     C_3   0.441920 0.890238 0.445281 -0.265075
C75   C     C_3   0.558080 0.890237 0.554719 -0.265076
C76   C     C_3   0.010336 0.332725 0.430920 0.067310
C77   C     C_3   0.989664 0.332725 0.569080 0.067309
C78   C     C_3   0.510336 0.832725 0.430920 0.067310
C79   C     C_R   0.738347 0.023534 0.360871 0.536356
C80   C     C_3   0.489664 0.832725 0.569080 0.067309
C81   C     C_3   0.817130 0.020530 0.047144 -0.226131
C82   C     C_3   0.182870 0.020532 0.952855 -0.226132
C83   C     C_3   0.317130 0.520530 0.047144 -0.226131
C84   C     C_3   0.682870 0.520532 0.952855 -0.226132
C85   C     C_R   0.774575 0.121054 0.649510 0.534446
C86   C     C_R   0.225425 0.121054 0.350490 0.534444
C87   C     C_R   0.274575 0.621054 0.649510 0.534446
C88   C     C_R   0.725425 0.621054 0.350490 0.534444
C89   C     C_3   0.824449 0.038284 0.967879 -0.224902
C90   C     C_3   0.810106 0.131203 0.448458 -0.259798
C91   C     C_3   0.175551 0.038288 0.032121 -0.224911
C92   C     C_3   0.324449 0.538284 0.967879 -0.224902
C93   C     C_3   0.675551 0.538288 0.032121 -0.224911
C94   C     C_3   0.688077 0.033746 0.033405 -0.214279
C95   C     C_3   0.311923 0.033745 0.966594 -0.214277
C96   C     C_3   0.188077 0.533746 0.033405 -0.214279
C97   C     C_3   0.811923 0.533745 0.966594 -0.214277
C98   C     C_3   0.756480 0.208690 0.063886 -0.263804
C99   C     C_3   0.243521 0.208691 0.936115 -0.263805
C100  C     C_3   0.256480 0.708690 0.063886 -0.263804
C101  C     C_3   0.189894 0.131204 0.551542 -0.259798
C102  C     C_3   0.743521 0.708691 0.936115 -0.263805
C103  C     C_3   0.750300 0.075013 0.076843 0.067344
C104  C     C_3   0.249700 0.075015 0.923157 0.067344
C105  C     C_3   0.250300 0.575013 0.076843 0.067344
C106  C     C_3   0.749700 0.575015 0.923157 0.067344
C107  C     C_3   0.764180 0.109624 0.938189 0.055636
C108  C     C_3   0.235821 0.109621 0.061812 0.055635
C109  C     C_3   0.264180 0.609624 0.938189 0.055636
C110  C     C_3   0.735821 0.609621 0.061812 0.055635
C111  C     C_3   0.703771 0.030758 0.952618 -0.270775
C112  C     C_3   0.310106 0.631203 0.448458 -0.259798
C113  C     C_3   0.296227 0.030750 0.047381 -0.270782
C114  C     C_3   0.203771 0.530758 0.952618 -0.270775
C115  C     C_3   0.796227 0.530750 0.047381 -0.270782
C116  C     C_3   0.752020 0.227222 0.981556 -0.222002
C117  C     C_3   0.247982 0.227220 0.018446 -0.221997
C118  C     C_3   0.252020 0.727222 0.981556 -0.222002
C119  C     C_3   0.747982 0.727220 0.018446 -0.221997
C120  C     C_3   0.004950 0.493756 0.041494 -0.091583
C121  C     C_3   0.995051 0.493755 0.958506 -0.091582
C122  C     C_3   0.504950 0.993756 0.041494 -0.091583
C123  C     C_3   0.689894 0.631204 0.551542 -0.259798
C124  C     C_3   0.495051 0.993755 0.958506 -0.091582
C125  C     C_3   0.062431 0.284956 0.026669 -0.229573
C126  C     C_3   0.937567 0.284958 0.973332 -0.229569
C127  C     C_3   0.562431 0.784956 0.026669 -0.229573
C128  C     C_3   0.437567 0.784958 0.973332 -0.229569
C129  C     C_3   0.940821 0.303784 0.054697 -0.277131
C130  C     C_3   0.059176 0.303779 0.945304 -0.277134
C131  C     C_3   0.440821 0.803784 0.054697 -0.277131
C132  C     C_3   0.559176 0.803778 0.945304 -0.277134
C133  C     C_R   0.969491 0.342003 0.645088 0.532002
C134  C     C_3   0.746700 0.056710 0.436923 0.066906
C135  C     C_R   0.030509 0.342003 0.354912 0.532002
C136  C     C_R   0.469490 0.842003 0.645088 0.532002
C137  C     C_R   0.530509 0.842003 0.354912 0.532002
C138  C     C_3   0.009285 0.360159 0.069757 0.044715
C139  C     C_3   0.990714 0.360158 0.930244 0.044715
C140  C     C_3   0.509285 0.860159 0.069757 0.044715
C141  C     C_3   0.490714 0.860158 0.930244 0.044715
C142  C     C_R   0.759630 0.536446 0.847503 0.534003
C143  C     C_R   0.240370 0.536445 0.152496 0.534005
C144  C     C_R   0.259630 0.036446 0.847503 0.534003
Cr1   Cr    Cr6+3 0.885690 0.492860 0.745310 0.995860
Cr2   Cr    Cr6+3 0.111880 0.178590 0.246990 0.989587
Cr3   Cr    Cr6+3 0.388120 0.678590 0.753010 0.989586
Cr4   Cr    Cr6+3 0.611880 0.678590 0.246990 0.989587
Cr5   Cr    Cr6+3 0.114310 0.492860 0.254690 0.995860
Cr6   Cr    Cr6+3 0.385690 0.992860 0.745310 0.995860
Cr7   Cr    Cr6+3 0.614310 0.992860 0.254690 0.995860
Cr8   Cr    Cr6+3 0.729880 0.332270 0.748190 0.965465
Cr9   Cr    Cr6+3 0.270120 0.332270 0.251810 0.965465
Cr10  Cr    Cr6+3 0.229880 0.832270 0.748190 0.965465
Cr11  Cr    Cr6+3 0.770120 0.832270 0.251810 0.965464
Cr12  Cr    Cr6+3 0.888120 0.178590 0.753010 0.989586
H1    H     H_    0.639076 0.094388 0.452377 0.129241
H2    H     H_    0.191952 0.907962 0.531361 0.126145
H3    H     H_    0.445103 0.030248 0.950071 0.135665
H4    H     H_    0.613276 0.793814 0.046872 0.112984
H5    H     H_    0.386722 0.793817 0.953128 0.112983
H6    H     H_    0.113276 0.293814 0.046872 0.112984
H7    H     H_    0.886722 0.293816 0.953128 0.112983
H8    H     H_    0.601216 0.861529 0.927957 0.109971
H9    H     H_    0.398784 0.861540 0.072044 0.109971
H10   H     H_    0.101215 0.361529 0.927957 0.109971
H11   H     H_    0.898784 0.361540 0.072044 0.109971
H12   H     H_    0.935591 0.217608 0.083217 0.108249
H13   H     H_    0.308049 0.407963 0.468639 0.126144
H14   H     H_    0.064404 0.217600 0.916786 0.108250
H15   H     H_    0.435591 0.717608 0.083217 0.108249
H16   H     H_    0.564404 0.717600 0.916786 0.108250
H17   H     H_    0.951862 0.191312 0.963597 0.125933
H18   H     H_    0.048133 0.191310 0.036405 0.125935
H19   H     H_    0.451862 0.691312 0.963597 0.125933
H20   H     H_    0.548133 0.691311 0.036405 0.125935
H21   H     H_    0.649943 0.099353 0.574004 0.100740
H22   H     H_    0.350057 0.099355 0.425996 0.100741
H23   H     H_    0.149943 0.599353 0.574004 0.100740
H24   H     H_    0.691952 0.407962 0.531361 0.126145
H25   H     H_    0.850057 0.599355 0.425996 0.100741
H26   H     H_    0.721400 0.868559 0.464474 0.111099
H27   H     H_    0.278601 0.868560 0.535525 0.111098
H28   H     H_    0.221400 0.368559 0.464474 0.111099
H29   H     H_    0.778601 0.368560 0.535525 0.111098
H30   H     H_    0.706441 0.922741 0.585739 0.101391
H31   H     H_    0.293559 0.922742 0.414261 0.101390
H32   H     H_    0.206441 0.422741 0.585739 0.101391
H33   H     H_    0.793559 0.422742 0.414261 0.101390
H34   H     H_    0.854064 0.091443 0.420019 0.122081
H35   H     H_    0.796293 0.909157 0.588083 0.119594
H36   H     H_    0.145936 0.091442 0.579981 0.122081
H37   H     H_    0.354064 0.591443 0.420019 0.122081
H38   H     H_    0.645936 0.591442 0.579981 0.122081
H39   H     H_    0.803453 0.222219 0.427296 0.103461
H40   H     H_    0.196546 0.222220 0.572704 0.103461
H41   H     H_    0.303454 0.722219 0.427296 0.103461
H42   H     H_    0.696546 0.722220 0.572704 0.103461
H43   H     H_    0.841943 0.219425 0.546886 0.112046
H44   H     H_    0.158056 0.219425 0.453114 0.112046
H45   H     H_    0.341943 0.719425 0.546886 0.112046
H46   H     H_    0.203707 0.909158 0.411917 0.119594
H47   H     H_    0.658056 0.719425 0.453114 0.112046
H48   H     H_    0.947510 0.721676 0.005966 0.104324
H49   H     H_    0.927109 0.880100 0.091094 0.096273
H50   H     H_    0.898462 0.832468 0.216886 0.129859
H51   H     H_    0.892098 0.621783 0.254741 0.106046
H52   H     H_    0.923695 0.464351 0.173322 0.107439
H53   H     H_    0.052489 0.721678 0.994029 0.104325
H54   H     H_    0.072891 0.880095 0.908899 0.096277
H55   H     H_    0.101536 0.832458 0.783108 0.129855
H56   H     H_    0.107902 0.621772 0.745258 0.106045
H57   H     H_    0.296293 0.409157 0.588083 0.119594
H58   H     H_    0.076307 0.464344 0.826679 0.107437
H59   H     H_    0.447510 0.221676 0.005966 0.104324
H60   H     H_    0.427109 0.380100 0.091094 0.096273
H61   H     H_    0.398462 0.332468 0.216886 0.129859
H62   H     H_    0.392098 0.121783 0.254741 0.106046
H63   H     H_    0.423695 0.964351 0.173322 0.107439
H64   H     H_    0.552489 0.221678 0.994029 0.104325
H65   H     H_    0.572892 0.380095 0.908899 0.096277
H66   H     H_    0.601536 0.332458 0.783108 0.129855
H67   H     H_    0.607902 0.121772 0.745258 0.106045
H68   H     H_    0.703707 0.409158 0.411917 0.119594
H69   H     H_    0.576307 0.964344 0.826679 0.107437
H70   H     H_    0.046872 0.149487 0.442167 0.131232
H71   H     H_    0.953128 0.149488 0.557833 0.131233
H72   H     H_    0.546871 0.649487 0.442167 0.131232
H73   H     H_    0.360924 0.094388 0.547622 0.129240
H74   H     H_    0.453128 0.649489 0.557833 0.131233
H75   H     H_    0.960088 0.158881 0.434533 0.105120
H76   H     H_    0.039912 0.158880 0.565467 0.105120
H77   H     H_    0.460088 0.658881 0.434533 0.105120
H78   H     H_    0.539912 0.658880 0.565467 0.105120
H79   H     H_    0.615630 0.890861 0.454424 0.112577
H80   H     H_    0.384370 0.890862 0.545576 0.112577
H81   H     H_    0.115631 0.390861 0.454424 0.112577
H82   H     H_    0.884370 0.390862 0.545576 0.112577
H83   H     H_    0.599604 0.834424 0.575339 0.102896
H84   H     H_    0.139076 0.594388 0.452377 0.129241
H85   H     H_    0.400396 0.834426 0.424660 0.102895
H86   H     H_    0.099604 0.334424 0.575339 0.102896
H87   H     H_    0.900396 0.334426 0.424660 0.102895
H88   H     H_    0.938635 0.478003 0.418330 0.116633
H89   H     H_    0.061366 0.478001 0.581671 0.116632
H90   H     H_    0.438635 0.978003 0.418330 0.116633
H91   H     H_    0.561366 0.978001 0.581671 0.116632
H92   H     H_    0.947942 0.500653 0.536623 0.129665
H93   H     H_    0.052059 0.500653 0.463377 0.129665
H94   H     H_    0.447942 0.000653 0.536623 0.129665
H95   H     H_    0.860924 0.594388 0.547622 0.129240
H96   H     H_    0.552059 0.000653 0.463377 0.129665
H97   H     H_    0.819399 0.925349 0.057677 0.140864
H98   H     H_    0.180601 0.925350 0.942323 0.140865
H99   H     H_    0.319399 0.425349 0.057677 0.140864
H100  H     H_    0.680601 0.425350 0.942323 0.140865
H101  H     H_    0.687476 0.220818 0.441375 0.106678
H102  H     H_    0.312524 0.220818 0.558626 0.106679
H103  H     H_    0.187476 0.720818 0.441375 0.106678
H104  H     H_    0.812524 0.720818 0.558626 0.106679
H105  H     H_    0.861221 0.059901 0.074790 0.109346
H106  H     H_    0.863397 0.067422 0.538607 0.123822
H107  H     H_    0.138779 0.059903 0.925209 0.109346
H108  H     H_    0.361221 0.559901 0.074790 0.109346
H109  H     H_    0.638779 0.559903 0.925209 0.109346
H110  H     H_    0.872263 0.081161 0.956298 0.131910
H111  H     H_    0.127741 0.081176 0.043699 0.131916
H112  H     H_    0.372263 0.581161 0.956298 0.131910
H113  H     H_    0.627741 0.581176 0.043699 0.131916
H114  H     H_    0.828275 0.949983 0.941154 0.120063
H115  H     H_    0.171718 0.949990 0.058846 0.120065
H116  H     H_    0.328275 0.449983 0.941154 0.120063
H117  H     H_    0.136603 0.067422 0.461393 0.123822
H118  H     H_    0.671718 0.449990 0.058846 0.120065
H119  H     H_    0.665275 0.952772 0.053726 0.108981
H120  H     H_    0.334725 0.952774 0.946270 0.108983
H121  H     H_    0.165275 0.452772 0.053726 0.108981
H122  H     H_    0.834725 0.452774 0.946270 0.108983
H123  H     H_    0.711487 0.939570 0.932572 0.106356
H124  H     H_    0.288505 0.939563 0.067421 0.106360
H125  H     H_    0.211487 0.439570 0.932572 0.106356
H126  H     H_    0.788505 0.439563 0.067421 0.106360
H127  H     H_    0.715227 0.257597 0.091833 0.110710
H128  H     H_    0.363397 0.567422 0.538607 0.123822
H129  H     H_    0.284774 0.257599 0.908169 0.110709
H130  H     H_    0.215227 0.757597 0.091833 0.110710
H131  H     H_    0.784774 0.757599 0.908169 0.110709
H132  H     H_    0.804946 0.242028 0.084922 0.107598
H133  H     H_    0.195055 0.242031 0.915080 0.107597
H134  H     H_    0.304946 0.742028 0.084922 0.107598
H135  H     H_    0.695055 0.742031 0.915080 0.107597
H136  H     H_    0.783288 0.299092 0.963096 0.109070
H137  H     H_    0.216714 0.299089 0.036908 0.109073
H138  H     H_    0.283288 0.799092 0.963096 0.109070
H139  H     H_    0.636602 0.567422 0.461393 0.123822
H140  H     H_    0.716714 0.799089 0.036908 0.109073
H141  H     H_    0.699619 0.254160 0.970790 0.127271
H142  H     H_    0.300383 0.254156 0.029213 0.127278
H143  H     H_    0.199619 0.754160 0.970790 0.127271
H144  H     H_    0.800383 0.754156 0.029213 0.127278
H145  H     H_    0.648935 0.102437 0.042175 0.121340
H146  H     H_    0.351065 0.102436 0.957827 0.121341
H147  H     H_    0.148935 0.602437 0.042175 0.121340
H148  H     H_    0.851065 0.602436 0.957827 0.121341
H149  H     H_    0.687268 0.236700 0.563679 0.138450
H150  H     H_    0.808049 0.907963 0.468639 0.126144
H151  H     H_    0.312731 0.236701 0.436321 0.138450
H152  H     H_    0.187268 0.736700 0.563679 0.138450
H153  H     H_    0.812731 0.736701 0.436321 0.138450
H154  H     H_    0.663326 0.069822 0.923782 0.148486
H155  H     H_    0.336673 0.069798 0.076220 0.148476
H156  H     H_    0.163326 0.569823 0.923782 0.148486
H157  H     H_    0.836673 0.569798 0.076220 0.148476
H158  H     H_    0.054899 0.530247 0.049927 0.135664
H159  H     H_    0.945102 0.530248 0.950071 0.135665
H160  H     H_    0.554898 0.030247 0.049927 0.135664
O1    O     O_R   0.957210 0.449410 0.665480 -0.537445
O2    O     O_R   0.167480 0.095300 0.164000 -0.532950
O3    O     O_R   0.332520 0.595300 0.836000 -0.532951
O4    O     O_R   0.667480 0.595300 0.164000 -0.532950
O5    O     O_R   0.946380 0.253940 0.826940 -0.512918
O6    O     O_R   0.053620 0.253940 0.173060 -0.512916
O7    O     O_R   0.446380 0.753940 0.826940 -0.512918
O8    O     O_R   0.553620 0.753940 0.173060 -0.512916
O9    O     O_3   0.834560 0.334570 0.748840 -0.270170
O10   O     O_3   0.165440 0.334570 0.251160 -0.270168
O11   O     O_3   0.334560 0.834570 0.748840 -0.270170
O12   O     O_R   0.042790 0.449410 0.334520 -0.537445
O13   O     O_3   0.665440 0.834570 0.251160 -0.270168
O14   O     O_R   0.820730 0.541240 0.668250 -0.514441
O15   O     O_R   0.179270 0.541240 0.331750 -0.514441
O16   O     O_R   0.320730 0.041240 0.668250 -0.514441
O17   O     O_R   0.679270 0.041240 0.331750 -0.514441
O18   O     O_R   0.714240 0.455060 0.663710 -0.540829
O19   O     O_R   0.285760 0.455060 0.336290 -0.540829
O20   O     O_R   0.214240 0.955060 0.663710 -0.540829
O21   O     O_R   0.785760 0.955060 0.336290 -0.540829
O22   O     O_R   0.736780 0.204870 0.675910 -0.525503
O23   O     O_R   0.457210 0.949410 0.665480 -0.537445
O24   O     O_R   0.263220 0.204870 0.324090 -0.525504
O25   O     O_R   0.236780 0.704870 0.675910 -0.525503
O26   O     O_R   0.763220 0.704870 0.324090 -0.525504
O27   O     O_R   0.833070 0.087590 0.673490 -0.528603
O28   O     O_R   0.166930 0.087590 0.326510 -0.528604
O29   O     O_R   0.333070 0.587590 0.673490 -0.528603
O30   O     O_R   0.666930 0.587590 0.326510 -0.528604
O31   O     O_R   0.946890 0.246800 0.676300 -0.513143
O32   O     O_R   0.053110 0.246800 0.323700 -0.513143
O33   O     O_R   0.446890 0.746800 0.676300 -0.513143
O34   O     O_R   0.542790 0.949410 0.334520 -0.537445
O35   O     O_R   0.553110 0.746800 0.323700 -0.513143
O36   O     O_R   0.956650 0.457120 0.827980 -0.526277
O37   O     O_R   0.043350 0.457120 0.172020 -0.526279
O38   O     O_R   0.456650 0.957120 0.827980 -0.526277
O39   O     O_R   0.543350 0.957120 0.172020 -0.526279
O40   O     O_R   0.820220 0.548390 0.818890 -0.507675
O41   O     O_R   0.179780 0.548390 0.181110 -0.507675
O42   O     O_R   0.320220 0.048390 0.818890 -0.507675
O43   O     O_R   0.679780 0.048390 0.181110 -0.507675
O44   O     O_R   0.713680 0.462770 0.826210 -0.542989
O45   O     O_R   0.736260 0.212010 0.826560 -0.505703
O46   O     O_R   0.286320 0.462770 0.173790 -0.542991
O47   O     O_R   0.213680 0.962770 0.826210 -0.542989
O48   O     O_R   0.786320 0.962770 0.173790 -0.542991
O49   O     O_R   0.263740 0.212010 0.173440 -0.505702
O50   O     O_R   0.236260 0.712010 0.826560 -0.505703
O51   O     O_R   0.763740 0.712010 0.173440 -0.505702
O52   O     O_R   0.832520 0.095300 0.836000 -0.532951

loop_
_geom_bond_atom_site_label_1
_geom_bond_atom_site_label_2
_ccdc_geom_bond_type
Cr10  O47   S    
C49   H66   S    
C64   C77   S    
C21   C134  S    
C123  H42   S    
Cr6   O42   S    
Cr7   O34   S    
C119  H144  S    
C131  H15   S    
Cr11  O48   S    
C66   H78   S    
Cr4   O13   S    
C13   C112  S    
C52   C61   S    
C90   C134  S    
C92   C109  S    
C73   H89   S    
C63   C76   S    
C3    C103  S    
C94   C111  S    
C89   H110  S    
C71   C80   S    
C100  H134  S    
C131  C140  S    
C59   H106  S    
Cr11  O13   S    
C90   H39   S    
C46   C55   S    
C84   H100  S    
C96   H147  S    
C12   H1    S    
C97   C115  S    
Cr3   O11   S    
C93   C110  S    
C57   O15   A    
C72   H87   S    
C96   C114  S    
C38   H58   S    
C91   H111  S    
C109  C118  S    
C106  C142  S    
C45   C47   A    
C115  H126  S    
C4    C107  S    
C60   H117  S    
C94   H119  S    
C98   H127  S    
C126  C129  S    
Cr1   O1    S    
Cr7   O43   S    
C82   C91   S    
C83   C105  S    
C117  H137  S    
C10   C141  S    
C111  H123  S    
C108  C113  S    
C68   O20   A    
C11   C140  S    
C37   C38   A    
C9    C138  S    
C137  O35   A    
C8    O36   A    
C16   C20   S    
Cr11  O51   S    
C10   O7    A    
Cr10  O11   S    
C25   H29   S    
C67   H93   S    
C120  C138  S    
C19   H23   S    
C17   H21   S    
C127  H20   S    
C10   O38   A    
C9    O6    A    
C128  H19   S    
C46   C60   S    
C79   O17   A    
C32   C121  S    
Cr10  O20   S    
C53   C58   S    
C125  C138  S    
Cr12  O27   S    
C133  O1    A    
Cr1   O36   S    
C2    C22   S    
Cr7   O17   S    
C30   C31   A    
C92   H116  S    
C30   H51   S    
C84   C93   S    
C85   O27   A    
C2    C14   S    
C60   H44   S    
C92   H112  S    
C8    O5    A    
C93   H113  S    
C73   C77   S    
C132  H16   S    
C81   H97   S    
C136  O33   A    
C102  H135  S    
C142  O40   A    
Cr5   O15   S    
C69   C77   S    
C125  H6    S    
C25   H24   S    
C133  O31   A    
C113  H155  S    
C39   C122  S    
C114  H156  S    
C135  O32   A    
C36   C37   A    
C26   C120  S    
Cr12  O31   S    
C2    C68   S    
C16   H104  S    
Cr1   O40   S    
C13   C57   S    
C100  H130  S    
C13   C23   S    
C34   H54   S    
C111  H154  S    
C73   H86   S    
C20   H153  S    
C23   H13   S    
C9    O37   A    
C123  H38   S    
Cr1   O9    S    
Cr6   O38   S    
C136  O23   A    
C101  H40   S    
Cr6   O16   S    
C70   H79   S    
C12   C134  S    
Cr12  O52   S    
C5    O49   A    
C125  H18   S    
C137  O34   A    
C143  O46   A    
C76   C135  S    
C7    O51   A    
C21   H26   S    
C126  C139  S    
C89   H114  S    
C39   C40   A    
C19   H152  S    
C116  H136  S    
C24   C123  S    
C69   C72   S    
Cr3   O7    S    
C29   C30   A    
C128  C141  S    
C99   C117  S    
C57   O19   A    
Cr3   O33   S    
Cr9   O49   S    
C113  H124  S    
C109  C114  S    
C116  H141  S    
C74   C78   S    
C6    C109  S    
C86   O28   A    
C124  C141  S    
C43   H62   S    
C12   H101  S    
C122  C124  S    
C126  H7    S    
C78   C137  S    
C70   H96   S    
C120  C121  S    
C63   H75   S    
C81   C103  S    
C132  C141  S    
C79   C134  S    
Cr2   O2    S    
C82   C104  S    
C129  H12   S    
C107  C111  S    
C108  C117  S    
C118  H138  S    
Cr2   O28   S    
C110  C119  S    
C39   C44   A    
C66   C80   S    
C47   H64   S    
C7    C110  S    
C121  C139  S    
C4    O52   A    
C122  C140  S    
C143  O41   A    
C6    O50   A    
C21   H150  S    
C4    O45   A    
C18   H151  S    
C34   C36   A    
C107  C116  S    
C102  C119  S    
C63   C64   S    
C131  H9    S    
C1    C24   S    
C49   C50   A    
C127  C140  S    
C70   C75   S    
C79   O21   A    
C61   C112  S    
C127  H4    S    
C64   H71   S    
C20   H25   S    
C96   C105  S    
C128  C131  S    
Cr2   O6    S    
C41   C42   A    
C72   H88   S    
C75   H83   S    
Cr2   O32   S    
Cr6   O23   S    
Cr12  O5    S    
C15   C19   S    
C26   C27   A    
Cr10  O25   S    
C96   H121  S    
C65   H77   S    
C28   C29   A    
C90   H34   S    
C21   C54   S    
C74   H90   S    
C98   C103  S    
C135  O12   A    
C35   C59   S    
C3    O43   A    
C19   C52   S    
C12   C17   S    
C84   C106  S    
C67   C73   S    
C69   H82   S    
C72   C76   S    
C81   C89   S    
C101  H36   S    
C99   C104  S    
C35   C54   S    
C28   H49   S    
C88   O26   A    
C130  C139  S    
C18   C46   S    
C16   H95   S    
C5    O2    A    
C50   H67   S    
C7    O4    A    
C14   H102  S    
C64   H76   S    
C58   H68   S    
C22   H2    S    
C144  O47   A    
C117  H142  S    
C67   H81   S    
C83   H99   S    
C132  H8    S    
C37   H56   S    
C105  C143  S    
C130  H10   S    
C114  H125  S    
Cr5   O41   S    
C89   C107  S    
C50   C51   A    
C97   H148  S    
C126  H17   S    
C97   C106  S    
C48   C49   A    
Cr9   O46   S    
C100  C118  S    
C42   C43   A    
C94   H145  S    
C112  H41   S    
Cr11  O21   S    
C75   H91   S    
C11   O39   A    
C65   C78   S    
Cr4   O30   S    
C91   C108  S    
C88   O30   A    
C20   C53   S    
Cr4   O4    S    
C71   C74   S    
C22   C55   S    
Cr3   O29   S    
C80   C136  S    
C32   C33   A    
C87   O25   A    
C31   H52   S    
C130  H14   S    
C15   H84   S    
Cr8   O18   S    
C128  H5    S    
Cr4   O35   S    
C86   O24   A    
C95   H120  S    
C36   H55   S    
C93   H118  S    
C54   H30   S    
C17   H149  S    
C82   H98   S    
C17   C35   S    
C110  C115  S    
C120  H158  S    
C5    C108  S    
C6    O3    A    
C70   C78   S    
C35   C85   S    
C14   C18   S    
Cr5   O10   S    
C43   C44   A    
C42   H61   S    
C23   C56   S    
C83   C92   S    
C100  C105  S    
C118  H143  S    
C8    C139  S    
C91   H115  S    
C87   O29   A    
C48   H65   S    
C45   C51   A    
C124  H3    S    
C11   O8    A    
C127  C132  S    
C14   H73   S    
Cr9   O10   S    
C61   H45   S    
C74   H85   S    
C33   H53   S    
C125  C130  S    
C129  C138  S    
C56   H32   S    
C59   H43   S    
Cr2   O10   S    
Cr7   O39   S    
C104  C144  S    
C32   C38   A    
C3    O48   A    
C68   O16   A    
C75   C80   S    
C71   H94   S    
Cr12  O9    S    
C26   C31   A    
C16   C24   S    
C83   H108  S    
C44   H63   S    
C77   C133  S    
C62   C123  S    
C98   H132  S    
C62   H139  S    
C63   H70   S    
C99   H129  S    
C45   C124  S    
C62   H47   S    
C54   H35   S    
C129  H11   S    
C27   H48   S    
C61   H128  S    
C24   C25   S    
C41   H60   S    
Cr8   O22   S    
C81   H105  S    
C2    C101  S    
C55   H46   S    
C29   H50   S    
C65   H72   S    
Cr3   O3    S    
C122  H160  S    
C59   C90   S    
C102  H131  S    
Cr9   O24   S    
C97   H122  S    
C51   H69   S    
C22   H27   S    
C53   C62   S    
Cr10  O50   S    
C69   H92   S    
C98   C116  S    
C47   C48   A    
C58   H33   S    
C33   C34   A    
C71   H80   S    
C18   H22   S    
C56   H57   S    
Cr7   O13   S    
C40   C41   A    
Cr8   O9    S    
C55   H31   S    
C13   C15   S    
C25   C58   S    
C1    O14   A    
Cr5   O12   S    
C60   C101  S    
C82   H107  S    
C15   H103  S    
C95   C104  S    
C119  H140  S    
C52   C87   S    
Cr8   O44   S    
C94   C103  S    
Cr11  O26   S    
C121  H159  S    
Cr5   O37   S    
C66   H74   S    
C142  O44   A    
C85   O22   A    
C23   H28   S    
C99   H133  S    
C1    O18   A    
Cr8   O45   S    
C95   C113  S    
C40   H59   S    
C144  O42   A    
C95   H146  S    
C84   H109  S    
C102  C106  S    
C53   C88   S    
Cr1   O14   S    
C115  H157  S    
C112  H37   S    
Cr6   O11   S    
C65   C66   S    
C27   C28   A    
C67   C76   S    
Cr9   O19   S    
Cr4   O8    S    
C52   C56   S    
C46   C86   S    
