data_str_m9_o2_o2_f0_sra.sym.15
_audit_creation_date              2012-12-11T16:35:15-0500
_audit_creation_method            fapswitch 2.2
_symmetry_space_group_name_H-M    P1
_symmetry_Int_Tables_number       1
_space_group_crystal_system       triclinic
_cell_length_a                    6.930175
_cell_length_b                    17.678971
_cell_length_c                    19.509032
_cell_angle_alpha                 109.210257
_cell_angle_beta                  90.471796
_cell_angle_gamma                 90.56515
_cell_volume                      2256.84489148

loop_
_atom_site_label
_atom_site_type_symbol
_atom_type_description
_atom_site_fract_x
_atom_site_fract_y
_atom_site_fract_z
_atom_type_partial_charge
O1    O     O_R   0.505700 0.440210 0.561730 -0.541596
O2    O     O_R   0.169350 0.406300 0.412660 -0.527620
O3    O     O_R   0.005650 0.559790 0.438270 -0.517705
C1    C     C_R   0.337677 0.383647 0.384492 0.818009
O4    O     O_R   0.175560 0.430650 0.559600 -0.548507
O5    O     O_R   0.011900 0.584320 0.586250 -0.544326
C2    C     C_R   0.345326 0.414576 0.580326 0.693008
O6    O     O_R   0.499450 0.415680 0.413750 -0.531252
O7    O     O_3   0.341370 0.550390 0.508570 -0.362992
V1    V     V_3+5 0.063940 0.490650 0.498410 1.480581
O8    O     O_R   0.682570 0.593700 0.587340 -0.544535
C3    C     C_R   0.852717 0.616607 0.614945 0.670494
O9    O     O_R   0.676370 0.569350 0.440400 -0.533181
C4    C     C_R   0.846048 0.586947 0.420948 0.704418
V2    V     V_3+5 0.564750 0.509350 0.501590 1.481682
O10   O     O_3   0.837190 0.449610 0.491430 -0.366913
C5    C     C_R   0.045685 0.715744 0.313226 -0.156002
H1    H     H_    0.185428 0.737877 0.303643 0.118192
C6    C     C_R   0.035831 0.675379 0.364010 0.335608
C7    C     C_R   0.858795 0.639575 0.374703 -0.151154
C8    C     C_R   0.693217 0.652293 0.337941 -0.186342
H2    H     H_    0.555319 0.626785 0.345077 0.188442
C9    C     C_R   0.702630 0.697494 0.290996 -0.148075
H3    H     H_    0.569785 0.707601 0.266052 0.114411
C10   C     C_R   0.879703 0.729142 0.276970 0.021860
C11   C     C_R   0.757974 0.764667 0.168334 -0.142209
H4    H     H_    0.645641 0.719320 0.158362 0.105451
C12   C     C_R   0.768685 0.810052 0.121552 -0.172629
H5    H     H_    0.662935 0.799532 0.078100 0.120438
C13   C     C_R   0.916934 0.867082 0.129626 -0.045267
C14   C     C_R   0.052080 0.879095 0.186144 -0.159234
H6    H     H_    0.165611 0.923830 0.194293 0.133524
C15   C     C_R   0.037975 0.835734 0.234411 -0.146216
H7    H     H_    0.140603 0.849803 0.279007 0.106725
C16   C     C_R   0.891842 0.776962 0.226007 0.106076
H8    H     H_    0.114510 0.634673 0.924296 0.113432
C17   C     C_R   0.789182 0.906203 0.751908 -0.141657
C18   C     C_R   0.723953 0.918963 0.688921 -0.119918
C19   C     C_R   0.706213 0.855112 0.624484 -0.113027
C20   C     C_R   0.753324 0.778013 0.622573 -0.140121
C21   C     C_R   0.817757 0.762992 0.685894 0.066197
C22   C     C_R   0.836287 0.828398 0.751896 0.068741
C23   C     C_R   0.867355 0.684708 0.683949 -0.179004
C24   C     C_R   0.935486 0.671753 0.747929 0.072235
C25   C     C_R   0.954071 0.737148 0.813919 0.066611
C26   C     C_R   0.904555 0.815433 0.815859 -0.182516
C27   C     C_R   0.982318 0.593945 0.747941 -0.143630
C28   C     C_R   0.047408 0.581149 0.810927 -0.129524
C29   C     C_R   0.065278 0.644994 0.875352 -0.118183
C30   C     C_R   0.018393 0.722109 0.877248 -0.137732
H9    H     H_    0.803626 0.958187 0.800241 0.104434
H10   H     H_    0.688317 0.978854 0.690049 0.123745
H11   H     H_    0.656840 0.865413 0.575546 0.122831
H12   H     H_    0.739778 0.730684 0.570806 0.101065
H13   H     H_    0.967594 0.542013 0.699615 0.094320
H14   H     H_    0.082768 0.521246 0.809831 0.113493
H15   H     H_    0.031952 0.769430 0.929018 0.100739
H16   H     H_    0.321607 0.475383 0.166792 0.109475
C31   C     C_R   0.367237 0.222742 0.385058 -0.129107
C32   C     C_R   0.395296 0.147231 0.390475 0.408925
C33   C     C_R   0.436286 0.083167 0.328081 -0.302530
C34   C     C_R   0.448717 0.093742 0.259858 0.303165
C35   C     C_R   0.416586 0.171050 0.253455 0.045755
C36   C     C_R   0.377665 0.236661 0.317793 -0.091401
C37   C     C_R   0.423307 0.184659 0.185290 -0.151461
C38   C     C_R   0.396301 0.263214 0.182481 -0.004640
C39   C     C_R   0.358551 0.328992 0.246912 0.051055
C40   C     C_R   0.350210 0.315232 0.314974 -0.149495
C41   C     C_R   0.406869 0.277184 0.115236 -0.146743
C42   C     C_R   0.380803 0.353002 0.110603 -0.153803
C43   C     C_R   0.342453 0.417021 0.172333 -0.189308
C44   C     C_R   0.329862 0.406661 0.240632 0.330868
H17   H     H_    0.335847 0.270500 0.434851 0.123188
H18   H     H_    0.459732 0.024509 0.332660 0.109044
H19   H     H_    0.436943 0.229678 0.065144 0.093524
H20   H     H_    0.389964 0.362149 0.058499 0.130862
C45   C     C_R   0.529314 0.271814 0.676318 -0.146298
H21   H     H_    0.655553 0.235807 0.675142 0.129105
C46   C     C_R   0.523242 0.318366 0.630485 0.362902
C47   C     C_R   0.357633 0.364236 0.628411 -0.112155
C48   C     C_R   0.202261 0.361875 0.673644 -0.193456
H22   H     H_    0.074019 0.396415 0.673849 0.121122
C49   C     C_R   0.211983 0.316812 0.720711 -0.141387
H23   H     H_    0.091624 0.318764 0.756242 0.108857
C50   C     C_R   0.376254 0.271453 0.723020 0.019153
C51   C     C_R   0.224738 0.186213 0.790173 -0.137575
H24   H     H_    0.086237 0.189825 0.765441 0.105758
C52   C     C_R   0.237325 0.141542 0.837418 -0.160532
H25   H     H_    0.107471 0.112887 0.848082 0.118967
C53   C     C_R   0.414988 0.132985 0.869516 -0.048548
C54   C     C_R   0.579633 0.170675 0.853278 -0.174910
H26   H     H_    0.718627 0.165695 0.877106 0.120867
C55   C     C_R   0.566752 0.215914 0.806430 -0.149467
H27   H     H_    0.696124 0.245283 0.796427 0.097618
C56   C     C_R   0.389206 0.224098 0.773902 0.111771
O11   O     O_R   0.273230 0.084330 0.086440 -0.536248
O12   O     O_R   0.596660 0.069390 0.940470 -0.551473
O13   O     O_R   0.760270 0.915710 0.913690 -0.539083
C57   C     C_R   0.427255 0.084323 0.918857 0.667306
O14   O     O_R   0.603330 0.093680 0.087390 -0.527465
O15   O     O_R   0.766990 0.940160 0.061660 -0.523506
C58   C     C_R   0.435164 0.116241 0.115723 0.816503
O16   O     O_R   0.266510 0.059870 0.938470 -0.544246
O17   O     O_3   0.431050 0.949630 0.991510 -0.363288
V3    V     V_3+5 0.708490 0.009340 0.001580 1.449499
O18   O     O_R   0.096270 0.930570 0.059390 -0.540160
C59   C     C_R   0.927509 0.915530 0.080699 0.703349
O19   O     O_R   0.089600 0.906290 0.912460 -0.541422
C60   C     C_R   0.919387 0.883503 0.884863 0.686659
V4    V     V_3+5 0.207670 0.990600 0.998190 1.446606
O20   O     O_3   0.935250 0.050360 0.008480 -0.374021
O21   O     O_3   0.382778 0.138179 0.457921 -0.625382
H28   H     H_    0.406398 0.081382 0.452920 0.290899
O22   O     O_3   0.201850 0.673757 0.402754 -0.649736
H29   H     H_    0.164917 0.682935 0.453776 0.290419
O23   O     O_3   0.496145 0.029271 0.199879 -0.651485
H30   H     H_    0.517508 0.981203 0.214369 0.283113
O24   O     O_3   0.286804 0.471702 0.300738 -0.649588
H31   H     H_    0.270687 0.520081 0.286284 0.291169
O25   O     O_3   0.678184 0.315299 0.586273 -0.626223
H32   H     H_    0.743775 0.368258 0.605844 0.282947

loop_
_geom_bond_atom_site_label_1
_geom_bond_atom_site_label_2
_ccdc_geom_bond_type
O15   C59   A    
C57   O16   A    
C35   C37   A    
C55   H27   S    
O11   C58   A    
C13   C59   S    
C21   C22   A    
C6    C7    A    
O14   V3    S    
C1    O6    A    
C48   H22   S    
C19   H11   S    
C45   H21   S    
O19   C60   A    
C31   C36   A    
C17   C18   A    
O13   V3    S    
O16   V4    S    
C36   C40   A    
C27   H13   S    
C12   H5    S    
C3    C23   S    
O5    C3    A    
C13   C14   A    
C17   H9    S    
C51   C52   A    
H16   C43   S    
C38   C41   A    
C18   H10   S    
O18   C59   A    
V2    O10   S    
O23   H30   S    
C39   C44   A    
C22   C26   A    
C17   C22   A    
V4    O20   S    
O17   V3    S    
C48   C49   A    
O24   H31   S    
O8    V2    S    
C27   C28   A    
C9    H3    S    
C14   C15   A    
C42   C43   A    
O1    V2    S    
O7    V1    S    
C31   H17   S    
C24   C27   A    
O12   V3    S    
C38   C39   A    
V3    O20   S    
C45   C50   A    
C31   C32   A    
C55   C56   A    
O13   C60   A    
O9    C4    A    
C21   C23   A    
C41   C42   A    
C37   C58   S    
O21   H28   S    
O12   C57   A    
C5    H1    S    
C45   C46   A    
O15   V3    S    
C39   C40   A    
C4    C7    S    
C54   H26   S    
O4    C2    A    
C51   H24   S    
C5    C6    A    
C6    O22   S    
C25   C26   A    
O11   V4    S    
C35   C36   A    
C32   C33   A    
O2    C1    A    
C23   C24   A    
C34   O23   S    
C34   C35   A    
C32   O21   S    
C54   C55   A    
C49   H23   S    
C46   O25   S    
O14   C58   A    
C15   H7    S    
C11   H4    S    
C52   H25   S    
O3    C4    A    
C10   C16   S    
C28   C29   A    
C49   C50   A    
C52   C53   A    
C29   C30   A    
O6    V2    S    
C20   H12   S    
O9    V2    S    
C42   H20   S    
O2    V1    S    
C53   C57   S    
C19   C20   A    
C24   C25   A    
C1    C40   S    
O18   V4    S    
C28   H14   S    
C20   C21   A    
O1    C2    A    
C30   H15   S    
C14   H6    S    
C47   C48   A    
O5    V1    S    
O8    C3    A    
O22   H29   S    
C33   H18   S    
C11   C12   A    
C5    C10   A    
C8    C9    A    
O7    V2    S    
C43   C44   A    
O3    V1    S    
V1    O10   S    
O17   V4    S    
C50   C56   S    
C53   C54   A    
C18   C19   A    
C25   C30   A    
C12   C13   A    
C15   C16   A    
O19   V4    S    
C41   H19   S    
C9    C10   A    
C33   C34   A    
C51   C56   A    
C46   C47   A    
C11   C16   A    
O4    V1    S    
C7    C8    A    
C37   C38   A    
C26   C60   S    
C44   O24   S    
O25   H32   S    
C8    H2    S    
H8    C29   S    
C2    C47   S    
