data_str_m2_o10_o28_f0_pcu.sym.213
_audit_creation_date              2012-12-10T16:50:14-0500
_audit_creation_method            fapswitch 2.2
_symmetry_space_group_name_H-M    P1
_symmetry_Int_Tables_number       1
_space_group_crystal_system       triclinic
_cell_length_a                    23.493001
_cell_length_b                    8.680822
_cell_length_c                    7.43422
_cell_angle_alpha                 102.965872
_cell_angle_beta                  94.15241
_cell_angle_gamma                 92.34217
_cell_volume                      1471.04407085

loop_
_atom_site_label
_atom_site_type_symbol
_atom_type_description
_atom_site_fract_x
_atom_site_fract_y
_atom_site_fract_z
_atom_type_partial_charge
C1    C     C_R   0.498282 0.199655 0.453219 0.882892
C2    C     C_R   0.501718 0.800345 0.546781 0.874632
C3    C     C_R   0.245107 0.525026 0.687211 -0.069058
C4    C     C_R   0.765673 0.528886 0.661388 -0.097155
C5    C     C_R   0.304251 0.525284 0.679889 -0.255183
C6    C     C_R   0.706442 0.527914 0.661259 -0.257005
C7    C     C_R   0.328231 0.498377 0.508225 -0.181193
C8    C     C_R   0.671805 0.500981 0.493350 -0.170951
C9    C     C_R   0.291634 0.470476 0.343639 0.592048
C10   C     C_R   0.697921 0.475040 0.324883 0.581505
C11   C     C_R   0.232608 0.469863 0.352106 -0.171896
C12   C     C_R   0.757371 0.475629 0.326090 -0.169829
C13   C     C_R   0.209273 0.497209 0.523291 0.256825
C14   C     C_R   0.791220 0.502555 0.494100 0.270926
C15   C     C_2   0.497457 0.031783 0.426824 -0.344955
C16   C     C_2   0.502546 0.968218 0.573176 -0.343133
C17   C     C_R   0.390878 0.499327 0.502392 0.838295
C18   C     C_R   0.609111 0.500302 0.497446 0.839870
C19   C     C_R   0.883811 0.643049 0.539492 0.546530
C20   C     C_R   0.116901 0.356678 0.487742 0.551895
C21   C     C_R   0.877248 0.359947 0.458432 0.552163
C22   C     C_R   0.123481 0.639777 0.568742 0.550401
C23   C     C_R   0.936955 0.356098 0.465627 -0.020851
C24   C     C_R   0.063801 0.643601 0.564286 -0.020271
C25   C     C_R   0.970308 0.500266 0.511155 -0.015471
C26   C     C_R   0.030449 0.499430 0.519360 -0.015606
C27   C     C_R   0.943657 0.645267 0.548188 -0.019682
C28   C     C_R   0.057090 0.354435 0.481749 -0.021018
C29   C     C_R   0.963963 0.212205 0.429419 -0.160721
C30   C     C_R   0.036797 0.787483 0.601310 -0.160306
C31   C     C_R   0.023443 0.211378 0.437443 -0.171698
C32   C     C_R   0.977315 0.788312 0.593305 -0.172294
Cu1   Cu    Cu3+1 0.506340 0.517380 0.684380 0.991478
Cu2   Cu    Cu3+1 0.493660 0.482620 0.315620 1.026986
N1    N     N_R   0.852118 0.501877 0.495534 -0.461295
N2    N     N_R   0.148576 0.497867 0.529548 -0.461249
N3    N     N_2   0.484110 0.456420 0.038520 -0.200103
N4    N     N_2   0.515890 0.543580 0.961480 -0.200025
O1    O     O_R   0.504120 0.286130 0.619770 -0.584108
O2    O     O_R   0.495880 0.713870 0.380230 -0.592214
O3    O     O_R   0.493410 0.256770 0.308360 -0.580811
O4    O     O_R   0.506590 0.743230 0.691640 -0.586624
O5    O     O_R   0.423230 0.514630 0.655730 -0.603103
O6    O     O_R   0.576770 0.485370 0.344270 -0.531743
O7    O     O_R   0.412530 0.485280 0.344320 -0.516918
O8    O     O_R   0.587470 0.514720 0.655680 -0.576913
O9    O     O_2   0.857413 0.780540 0.574503 -0.508552
O10   O     O_2   0.143280 0.219191 0.451461 -0.504688
O11   O     O_2   0.844514 0.223251 0.416274 -0.503262
O12   O     O_2   0.156198 0.776485 0.609507 -0.502694
H1    H     H_    0.939264 0.099872 0.394475 0.194488
H2    H     H_    0.061495 0.899817 0.636077 0.194890
H3    H     H_    0.042912 0.098435 0.408082 0.187528
H4    H     H_    0.957844 0.901256 0.622503 0.187499
H5    H     H_    0.227091 0.546221 0.819999 0.172922
H6    H     H_    0.791824 0.549390 0.791552 0.159426
H7    H     H_    0.331139 0.547055 0.808684 0.223305
H8    H     H_    0.687862 0.548446 0.793107 0.226288
F1    F     F_    0.312462 0.443168 0.174410 -0.661848
F2    F     F_    0.666399 0.448264 0.159322 -0.660841
H9    H     H_    0.204772 0.448647 0.225288 0.162699
H10   H     H_    0.777255 0.455213 0.196496 0.160828
H11   H     H_    0.492660 0.960161 0.285780 0.182031
H12   H     H_    0.507343 0.039840 0.714220 0.185634
H13   H     H_    0.454922 0.379360 0.948725 0.237896
H14   H     H_    0.545076 0.620643 0.051278 0.243388

loop_
_geom_bond_atom_site_label_1
_geom_bond_atom_site_label_2
_ccdc_geom_bond_type
C10   F2    S    
C17   O5    A    
C2    O2    A    
N3    N4    D    
C21   N1    A    
C18   O6    A    
C25   C27   A    
Cu2   N3    S    
C2    C16   S    
C6    H8    S    
C9    F1    S    
C26   C28   A    
Cu1   N4    S    
C3    C13   A    
C5    H7    S    
C22   O12   S    
C7    C9    A    
C21   O11   S    
Cu1   Cu2   S    
C27   C32   A    
Cu2   O6    S    
C29   C31   A    
Cu2   O7    S    
C19   N1    A    
C4    H6    S    
C30   C32   A    
Cu1   O8    S    
C9    C11   A    
C20   O10   S    
Cu2   O3    S    
C10   C12   A    
C2    O4    A    
C1    C15   S    
Cu1   O4    S    
C18   O8    A    
C1    O3    A    
C24   C26   A    
C8    C18   S    
C19   O9    S    
C21   C23   A    
C4    C14   A    
C16   H12   S    
C22   C24   A    
C31   H3    S    
C24   C30   A    
C28   C31   A    
C12   H10   S    
C1    O1    A    
C15   C16   D    
C20   N2    A    
C23   C29   A    
C12   C14   A    
C11   C13   A    
C23   C25   A    
C19   C27   A    
C6    C8    A    
C13   N2    S    
C4    C6    A    
C29   H1    S    
C32   H4    S    
C14   N1    S    
C5    C7    A    
C15   H11   S    
Cu2   O2    S    
C30   H2    S    
C20   C28   A    
C11   H9    S    
C25   C26   A    
Cu1   O5    S    
C3    H5    S    
Cu1   O1    S    
C8    C10   A    
C22   N2    A    
N4    H14   S    
N3    H13   S    
C17   O7    A    
C3    C5    A    
C7    C17   S    
