data_str_m12_o4_o10_f0_bcu.sym.91
_audit_creation_date              2013-03-05T15:53:04-0500
_audit_creation_method            fapswitch 2.2
_symmetry_space_group_name_H-M    P1
_symmetry_Int_Tables_number       1
_space_group_crystal_system       triclinic
_cell_length_a                    20.086303
_cell_length_b                    17.222712
_cell_length_c                    15.643699
_cell_angle_alpha                 89.91907
_cell_angle_beta                  52.049769
_cell_angle_gamma                 90.158073
_cell_volume                      4267.39246411

loop_
_atom_site_label
_atom_site_type_symbol
_atom_site_description
_atom_site_fract_x
_atom_site_fract_y
_atom_site_fract_z
_atom_type_partial_charge
C1    C     C_R   0.840026 0.672013 0.047162 -0.050940
C2    C     C_R   0.158734 0.674178 0.956540 -0.050648
C3    C     C_R   0.340380 0.172490 0.046495 -0.033755
C4    C     C_R   0.660641 0.171850 0.951268 -0.029553
N1    N     N_R   0.908660 0.628630 0.995840 -0.082631
N2    N     N_R   0.091340 0.628630 0.004160 -0.080466
N3    N     N_R   0.408660 0.128630 0.995840 -0.082201
N4    N     N_R   0.591340 0.128630 0.004160 -0.081331
C5    C     C_R   0.858318 0.321443 0.221788 -0.003867
C6    C     C_R   0.141214 0.321617 0.778069 0.001337
C7    C     C_R   0.379756 0.808024 0.218505 -0.015892
C8    C     C_R   0.638863 0.819616 0.777963 0.010155
N5    N     N_R   0.922310 0.368460 0.151950 -0.089174
N6    N     N_R   0.077690 0.368460 0.848050 -0.088811
N7    N     N_R   0.422310 0.868460 0.151950 -0.048670
N8    N     N_R   0.577690 0.868460 0.848050 -0.085392
C9    C     C_R   0.862410 0.389645 0.902775 -0.108979
C10   C     C_R   0.139633 0.390464 0.094671 -0.104890
C11   C     C_R   0.346928 0.895470 0.924007 -0.093251
C12   C     C_R   0.641351 0.890629 0.092408 -0.103488
N9    N     N_R   0.903470 0.421430 0.936420 -0.069618
N10   N     N_R   0.096530 0.421430 0.063580 -0.074963
N11   N     N_R   0.403470 0.921430 0.936420 -0.078449
N12   N     N_R   0.596530 0.921430 0.063580 -0.077963
C13   C     C_R   0.914903 0.608690 0.296602 -0.125375
C14   C     C_R   0.088135 0.612329 0.701629 -0.134473
C15   C     C_R   0.413394 0.108132 0.297734 -0.137261
C16   C     C_R   0.585149 0.108733 0.703351 -0.126604
H1    H     H_    0.924460 0.582590 0.350570 0.161377
H2    H     H_    0.078774 0.588171 0.646455 0.158685
H3    H     H_    0.423319 0.082235 0.351495 0.148058
H4    H     H_    0.576273 0.082424 0.648910 0.160812
N13   N     N_R   0.927500 0.575670 0.211370 -0.037245
N14   N     N_R   0.072500 0.575670 0.788630 -0.042230
N15   N     N_R   0.427500 0.075670 0.211370 -0.043849
N16   N     N_R   0.572500 0.075670 0.788630 -0.037588
C17   C     C_R   0.873736 0.300433 0.995773 -0.145133
C18   C     C_R   0.127736 0.301201 0.002202 -0.149680
C19   C     C_R   0.351750 0.810772 0.028821 -0.087063
C20   C     C_R   0.630202 0.801902 0.998609 -0.081770
H5    H     H_    0.880511 0.243971 0.018513 0.101479
H6    H     H_    0.120936 0.244689 0.979741 0.103562
H7    H     H_    0.343629 0.759197 0.072950 0.143355
H8    H     H_    0.625465 0.745712 0.973482 0.128225
N17   N     N_R   0.908660 0.365680 0.995820 -0.055194
N18   N     N_R   0.091340 0.365680 0.004180 -0.059437
N19   N     N_R   0.408660 0.865680 0.995820 -0.050584
N20   N     N_R   0.591340 0.865680 0.004180 -0.050981
C21   C     C_R   0.908794 0.698911 0.203304 -0.098923
C22   C     C_R   0.089455 0.699864 0.801642 -0.111541
C23   C     C_R   0.407685 0.198716 0.204246 -0.084981
C24   C     C_R   0.591044 0.199032 0.796583 -0.089825
H9    H     H_    0.919307 0.756010 0.168913 0.101537
H10   H     H_    0.070839 0.753172 0.845890 0.123900
H11   H     H_    0.417820 0.256005 0.170519 0.102316
H12   H     H_    0.580465 0.256039 0.830865 0.101915
N21   N     N_R   0.922310 0.631420 0.151980 -0.055024
N22   N     N_R   0.077690 0.631420 0.848020 -0.060078
N23   N     N_R   0.422310 0.131420 0.151980 -0.061715
N24   N     N_R   0.577690 0.131420 0.848020 -0.059304
C25   C     C_R   0.865834 0.414412 0.316662 0.021474
C26   C     C_R   0.133878 0.414992 0.683277 -0.028554
C27   C     C_R   0.381690 0.903277 0.314459 0.055733
C28   C     C_R   0.631665 0.913010 0.683197 0.016040
N25   N     N_R   0.927500 0.426330 0.211360 -0.049848
N26   N     N_R   0.072500 0.426330 0.788640 -0.047258
N27   N     N_R   0.427500 0.926330 0.211360 -0.067881
N28   N     N_R   0.572500 0.926330 0.788640 -0.053109
C29   C     C_R   0.831068 0.582705 0.950400 -0.142603
C30   C     C_R   0.165478 0.585910 0.056418 -0.114301
C31   C     C_R   0.332327 0.084404 0.947933 -0.130494
C32   C     C_R   0.669900 0.082432 0.047542 -0.124470
H13   H     H_    0.810010 0.551821 0.911203 0.098252
H14   H     H_    0.182997 0.557806 0.101337 0.090572
H15   H     H_    0.312976 0.056206 0.905289 0.104278
H16   H     H_    0.691841 0.051618 0.085550 0.096578
N29   N     N_R   0.903470 0.570760 0.936440 -0.053647
N30   N     N_R   0.096530 0.570760 0.063560 -0.056599
N31   N     N_R   0.403470 0.070760 0.936440 -0.055696
N32   N     N_R   0.596530 0.070760 0.063560 -0.055185
C33   C     C_R   0.791000 0.646197 0.018722 0.139456
C34   C     C_R   0.204692 0.650651 0.990336 0.136740
C35   C     C_R   0.291928 0.147334 0.016998 0.132713
C36   C     C_R   0.710501 0.145609 0.978064 0.135167
C37   C     C_R   0.819068 0.352154 0.324240 -0.029702
C38   C     C_R   0.180282 0.352589 0.675343 -0.061201
C39   C     C_R   0.346996 0.830461 0.322805 -0.106798
C40   C     C_R   0.677040 0.849715 0.675241 -0.028570
C41   C     C_R   0.841256 0.314684 0.942959 0.146655
C42   C     C_R   0.162011 0.316214 0.052643 0.146974
C43   C     C_R   0.311376 0.828229 0.986453 0.089253
C44   C     C_R   0.665168 0.816956 0.048103 0.099158
C45   C     C_R   0.903400 0.685409 0.293066 0.148153
C46   C     C_R   0.099657 0.690573 0.708016 0.072000
C47   C     C_R   0.400850 0.184619 0.294944 0.144282
C48   C     C_R   0.596449 0.185505 0.706931 0.139288
Ni1   Ni    Ni4+2 0.000000 0.630300 0.000000 0.209530
Ni2   Ni    Ni4+2 0.500000 0.130300 0.000000 0.213718
Ni3   Ni    Ni4+2 0.000000 0.369700 0.000000 0.200869
Ni4   Ni    Ni4+2 0.500000 0.869700 0.000000 0.265117
Ni5   Ni    Ni4+2 0.988090 0.497570 0.863760 0.253928
Ni6   Ni    Ni4+2 0.011910 0.497570 0.136240 0.262656
Ni7   Ni    Ni4+2 0.488090 0.997570 0.863760 0.265087
Ni8   Ni    Ni4+2 0.511910 0.997570 0.136240 0.253572
C49   C     C_R   0.774733 0.697511 0.470137 0.015175
C50   C     C_R   0.142739 0.727318 0.530838 -0.008471
C51   C     C_R   0.277585 0.196256 0.476636 0.002681
C52   C     C_R   0.722182 0.198127 0.527676 0.006895
C53   C     C_R   0.853421 0.729507 0.389445 0.017170
C54   C     C_R   0.129361 0.751021 0.625858 0.060361
C55   C     C_R   0.353586 0.229684 0.390733 0.024325
C56   C     C_R   0.645025 0.230512 0.610924 0.026587
C57   C     C_R   0.378475 0.303539 0.401897 -0.038016
C58   C     C_R   0.619126 0.301994 0.595786 -0.051838
C59   C     C_R   0.879671 0.799516 0.407706 -0.074953
C60   C     C_R   0.188219 0.803168 0.615863 -0.032452
C61   C     C_R   0.320350 0.344778 0.497682 -0.299203
C62   C     C_R   0.677471 0.342411 0.498854 -0.286357
C63   C     C_R   0.820204 0.839485 0.504050 -0.225343
C64   C     C_R   0.269148 0.806410 0.518413 -0.255297
H17   H     H_    0.336043 0.402073 0.509324 0.137193
H18   H     H_    0.660860 0.397873 0.484309 0.181317
H19   H     H_    0.837258 0.893729 0.520965 0.189140
H20   H     H_    0.318221 0.832234 0.517936 0.152921
C65   C     C_R   0.240592 0.312492 0.577451 0.081918
C66   C     C_R   0.758332 0.311700 0.421910 0.069155
C67   C     C_R   0.737880 0.809910 0.577443 0.053429
C68   C     C_R   0.281892 0.788399 0.422281 0.087944
C69   C     C_R   0.717668 0.737138 0.562181 0.142438
C70   C     C_R   0.217522 0.747849 0.429837 -0.015582
C71   C     C_R   0.221531 0.237702 0.567090 0.141319
C72   C     C_R   0.778194 0.238230 0.435291 0.134753
C73   C     C_3   0.643647 0.705949 0.571355 -0.450978
C74   C     C_3   0.173307 0.769736 0.383719 -0.315886
C75   C     C_3   0.146055 0.203106 0.582972 -0.444515
C76   C     C_3   0.853449 0.205773 0.421752 -0.456711
C77   C     C_3   0.708391 0.663448 0.465308 -0.293552
C78   C     C_3   0.091507 0.749746 0.494041 -0.287366
C79   C     C_3   0.209146 0.156786 0.480048 -0.301987
C80   C     C_3   0.789979 0.162617 0.528255 -0.284807
H21   H     H_    0.603042 0.667600 0.643633 0.180282
H22   H     H_    0.181731 0.832086 0.359879 0.177328
H23   H     H_    0.106716 0.167880 0.658729 0.179632
H24   H     H_    0.891953 0.167994 0.348926 0.177346
H25   H     H_    0.713998 0.684781 0.393885 0.210104
H26   H     H_    0.056886 0.698848 0.494556 0.185136
H27   H     H_    0.211404 0.172013 0.409039 0.204718
H28   H     H_    0.787071 0.182676 0.598160 0.209318
C81   C     C_2   0.781227 0.188741 0.957357 -0.158448
C82   C     C_2   0.222283 0.190699 0.036210 -0.162834
C83   C     C_2   0.265026 0.699924 0.985532 -0.145879
C84   C     C_2   0.722402 0.690464 0.036134 -0.182765
H29   H     H_    0.832092 0.158188 0.949165 0.134915
H30   H     H_    0.171537 0.160107 0.043785 0.132635
H31   H     H_    0.318854 0.673836 0.974892 0.127917
H32   H     H_    0.670739 0.660516 0.045181 0.142756
C85   C     C_2   0.251957 0.776765 0.995300 0.023589
C86   C     C_2   0.726734 0.768052 0.037115 -0.037396
C87   C     C_2   0.779167 0.266278 0.953986 -0.014253
C88   C     C_2   0.224394 0.268155 0.040742 -0.014106
H33   H     H_    0.195621 0.803156 0.013682 0.141098
H34   H     H_    0.781907 0.798781 0.016406 0.125202
H35   H     H_    0.724610 0.297768 0.974719 0.123031
H36   H     H_    0.278745 0.299746 0.021218 0.125565
C89   C     C_2   0.823752 0.738955 0.115094 0.522179
H37   H     H_    0.870669 0.784770 0.082616 -0.009000
O1    O     O_2   0.756469 0.744936 0.205620 -0.536360
C90   C     C_2   0.177027 0.741389 0.887519 0.513801
H38   H     H_    0.130508 0.786890 0.917381 0.008553
O2    O     O_2   0.245807 0.747784 0.798659 -0.524505
C91   C     C_2   0.323707 0.238923 0.115332 0.514730
H39   H     H_    0.370053 0.285251 0.083124 -0.012299
O3    O     O_2   0.256734 0.243871 0.206427 -0.526982
C92   C     C_2   0.677004 0.238827 0.882899 0.514776
H40   H     H_    0.630583 0.284734 0.915587 -0.012710
O4    O     O_2   0.743805 0.244718 0.791701 -0.526354
C93   C     C_2   0.595476 0.766241 0.560275 0.659527
H41   H     H_    0.628055 0.804756 0.490397 0.050048
O5    O     O_2   0.519259 0.772034 0.629688 -0.534927
C94   C     C_2   0.190977 0.714882 0.297457 0.547882
H42   H     H_    0.219177 0.658564 0.287093 0.005661
O6    O     O_2   0.170248 0.732200 0.241212 -0.559797
C95   C     C_2   0.096524 0.260427 0.569910 0.672030
H43   H     H_    0.128102 0.296992 0.498144 0.052597
O7    O     O_2   0.020430 0.266280 0.640153 -0.534618
C96   C     C_2   0.904388 0.264872 0.430003 0.669871
H44   H     H_    0.874135 0.302485 0.500225 0.058498
O8    O     O_2   0.980252 0.270691 0.357872 -0.537851
C97   C     C_2   0.703239 0.576759 0.476355 0.580935
H45   H     H_    0.697168 0.548843 0.543141 -0.008370
O9    O     O_2   0.706092 0.537134 0.409573 -0.598303
C98   C     C_2   0.035753 0.819236 0.551998 0.622469
H46   H     H_    0.061416 0.872046 0.559570 0.049247
O10   O     O_2   0.961341 0.816618 0.590691 -0.557486
C99   C     C_2   0.204992 0.071003 0.500389 0.595619
H47   H     H_    0.202451 0.049308 0.567559 0.016789
O11   O     O_2   0.204237 0.025127 0.441605 -0.598738
C100  C     C_2   0.793528 0.076060 0.516515 0.584034
H48   H     H_    0.797194 0.049352 0.450920 -0.008219
O12   O     O_2   0.792038 0.035178 0.581406 -0.594040
C101  C     C_2   0.849691 0.241333 0.197358 0.493666
H49   H     H_    0.905605 0.209758 0.133785 -0.024214
O13   O     O_2   0.780581 0.209910 0.247619 -0.559638
C102  C     C_2   0.149679 0.241605 0.802985 0.490263
H50   H     H_    0.093660 0.209579 0.866497 -0.019329
O14   O     O_2   0.218804 0.210884 0.753547 -0.562014
C103  C     C_2   0.395632 0.726492 0.182535 0.433011
H51   H     H_    0.360966 0.679953 0.240977 0.021182
O15   O     O_2   0.450807 0.710181 0.087693 -0.626427
C104  C     C_2   0.644806 0.738885 0.803276 0.446578
H52   H     H_    0.588409 0.709091 0.869896 0.061565
O16   O     O_2   0.712344 0.705029 0.750687 -0.551682
C105  C     C_2   0.865563 0.419963 0.812235 0.611334
H53   H     H_    0.901769 0.472006 0.769663 0.044572
O17   O     O_2   0.829129 0.386633 0.782872 -0.525726
C106  C     C_2   0.137339 0.419915 0.184780 0.598947
H54   H     H_    0.098035 0.469247 0.231401 0.047508
O18   O     O_2   0.177918 0.388730 0.209356 -0.536837
C107  C     C_2   0.344118 0.920369 0.836204 0.584117
H55   H     H_    0.391837 0.960047 0.774326 0.067497
O19   O     O_2   0.288527 0.897608 0.832264 -0.569434
C108  C     C_2   0.641814 0.920274 0.180324 0.569763
H56   H     H_    0.605318 0.971211 0.225259 0.064599
O20   O     O_2   0.682132 0.887889 0.204455 -0.537042
C109  C     C_2   0.865877 0.441718 0.405590 0.415415
H57   H     H_    0.806863 0.446968 0.486780 0.029264
O21   O     O_2   0.932380 0.452444 0.390681 -0.579572
C110  C     C_2   0.134364 0.444147 0.594560 0.435604
H58   H     H_    0.193545 0.450111 0.513501 0.025353
O22   O     O_2   0.068069 0.456348 0.609660 -0.581039
C111  C     C_2   0.383530 0.942062 0.396131 0.445678
H59   H     H_    0.325442 0.961655 0.471287 0.013721
O23   O     O_2   0.450037 0.949658 0.381992 -0.590421
C112  C     C_2   0.629543 0.940442 0.595961 0.427417
H60   H     H_    0.687493 0.944367 0.513507 0.021764
O24   O     O_2   0.562148 0.952730 0.614002 -0.576888
C113  C     C_2   0.461679 0.339745 0.317532 0.524031
H61   H     H_    0.473867 0.399170 0.327581 0.021043
O25   O     O_2   0.517880 0.304037 0.237349 -0.597248
C114  C     C_2   0.534851 0.336797 0.677270 0.526184
H62   H     H_    0.521331 0.394316 0.663139 0.019125
O26   O     O_2   0.479389 0.302086 0.759799 -0.598339
C115  C     C_2   0.965550 0.833245 0.330048 0.571955
H63   H     H_    0.980284 0.888782 0.347716 0.021889
O27   O     O_2   0.020884 0.799884 0.246629 -0.575632
C116  C     C_2   0.166986 0.857495 0.702488 0.472203
H64   H     H_    0.216366 0.880296 0.704661 0.099929
O28   O     O_2   0.094935 0.881126 0.768139 -0.595926

loop_
_geom_bond_atom_site_label_1
_geom_bond_atom_site_label_2
_geom_bond_distance
_ccdc_geom_bond_type
C15   C47   1.347550 A    
C14   C46   1.380795 A    
C86   H34   1.080680 S    
C31   H15   1.072736 S    
N18   Ni3   1.877064 S    
C73   C77   1.527853 S    
C89   H37   1.083825 S    
N3    Ni2   1.875552 S    
C54   C60   1.412488 A    
N30   Ni6   1.837894 S    
C101  H49   1.085022 S    
N29   Ni5   1.846511 S    
N28   Ni7   1.823726 S    
C75   C95   1.503676 S    
N7    Ni4   1.877048 S    
C4    N4    1.323740 A    
C81   H29   1.085938 S    
C63   H19   1.081931 S    
C80   H28   1.114127 S    
C56   C58   1.412997 A    
C2    C34   1.377523 A    
N6    Ni3   1.877223 S    
N14   N22   1.384582 A    
C2    N2    1.324765 A    
C105  H53   1.083877 S    
C75   C79   1.527879 S    
C98   O10   1.220344 D    
C48   C56   1.413750 S    
C79   H27   1.114425 S    
C22   H10   1.071088 S    
N3    N31   1.410284 A    
C112  O24   1.220182 D    
N32   Ni8   1.837894 S    
N16   Ni7   1.896654 S    
C1    N1    1.322660 A    
C83   C85   1.340461 D    
C19   N19   1.316931 A    
C106  O18   1.219800 D    
C18   H6    1.071767 S    
C40   C67   1.418466 S    
C71   C75   1.498817 S    
C28   N28   1.333171 A    
C5    N5    1.328910 A    
C26   C110  1.469603 S    
C90   O2    1.220572 D    
N2    N30   1.408836 A    
C30   N30   1.343936 A    
C1    C33   1.379269 A    
C115  H63   1.085655 S    
C88   H36   1.080419 S    
C21   N21   1.343775 A    
N15   N23   1.383160 A    
C62   H18   1.081677 S    
C97   O9    1.220276 D    
C80   C100  1.498797 S    
C92   H40   1.083876 S    
C39   C68   1.464645 S    
C44   C86   1.418775 S    
N4    Ni2   1.875702 S    
C24   N24   1.343716 A    
C5    C37   1.385859 A    
C7    N7    1.339956 A    
C74   H22   1.114045 S    
C14   N14   1.349211 A    
N11   Ni7   1.872921 S    
C84   H32   1.085863 S    
C7    C39   1.388230 A    
C115  O27   1.220711 D    
C23   C47   1.360207 A    
C30   H14   1.075171 S    
C29   H13   1.075420 S    
C100  H48   1.085622 S    
N8    N28   1.408947 A    
C87   H35   1.080212 S    
C66   C72   1.381612 A    
N9    N17   1.383274 A    
C34   C83   1.441048 S    
C76   C80   1.527218 S    
C35   C82   1.447190 S    
N9    Ni5   1.872921 S    
C36   C81   1.449984 S    
C75   H23   1.113774 S    
C25   C109  1.469641 S    
N21   Ni1   1.877547 S    
C89   O1    1.220556 D    
C4    C92   1.464452 S    
C113  H61   1.085592 S    
C38   C65   1.419659 S    
C22   C46   1.358141 A    
C102  H50   1.085120 S    
C101  O13   1.220767 D    
N26   Ni5   1.823726 S    
N31   Ni7   1.846511 S    
C37   C66   1.417018 S    
C70   C74   1.496812 S    
N22   Ni1   1.877389 S    
C7    C103  1.474478 S    
N25   Ni6   1.815180 S    
C9    C105  1.473160 S    
C19   C43   1.359879 A    
C110  H58   1.084689 S    
C79   C99   1.502107 S    
N27   Ni8   1.815180 S    
C41   C87   1.417511 S    
C31   C35   1.389356 A    
C103  H51   1.083985 S    
C105  O17   1.219822 D    
C13   H1    1.072572 S    
N20   Ni4   1.877064 S    
C10   C106  1.472654 S    
C116  O28   1.221156 D    
N14   Ni5   1.896654 S    
C52   C72   1.350756 A    
C26   N26   1.333309 A    
C15   H3    1.073146 S    
N13   Ni6   1.905625 S    
C10   C42   1.382622 A    
N2    Ni1   1.875702 S    
C8    N8    1.330751 A    
C16   H4    1.072303 S    
C9    C41   1.381537 A    
C106  H54   1.083660 S    
C55   C57   1.415229 A    
N15   Ni8   1.905625 S    
N17   Ni3   1.876702 S    
C107  H55   1.084467 S    
C52   C80   1.499436 S    
C8    C40   1.385249 A    
N8    Ni4   1.877223 S    
N5    N25   1.410397 A    
C3    N3    1.322964 A    
C15   N15   1.323016 A    
C82   H30   1.085771 S    
C58   C114  1.484398 S    
C46   C54   1.463323 S    
C9    N9    1.337591 A    
C31   N31   1.347421 A    
C52   C56   1.390456 A    
C64   H20   1.076092 S    
N12   Ni8   1.881714 S    
N12   N20   1.384696 A    
N5    Ni3   1.877048 S    
C11   N11   1.340215 A    
C95   H43   1.085935 S    
C67   C69   1.381994 A    
C27   N27   1.332837 A    
C28   C112  1.468767 S    
C60   C116  1.479409 S    
C25   N25   1.333416 A    
C50   C70   1.397930 A    
N19   Ni4   1.876702 S    
C91   O3    1.220986 D    
C65   C71   1.380672 A    
C2    C90   1.465243 S    
C4    C36   1.378871 A    
C1    C89   1.464159 S    
C13   C45   1.348877 A    
C72   C76   1.501161 S    
N7    N27   1.410397 A    
C114  O26   1.220813 D    
C109  H57   1.084260 S    
N6    N26   1.408947 A    
C22   N22   1.325496 A    
C32   H16   1.073373 S    
C111  O23   1.219073 D    
C32   C36   1.389919 A    
C20   C44   1.352175 A    
C108  O20   1.219545 D    
C81   C87   1.338125 D    
C91   H39   1.083977 S    
C16   N16   1.322397 A    
C58   C62   1.401487 A    
C25   C37   1.379588 A    
C93   H41   1.085795 S    
C84   C86   1.339581 D    
C77   C97   1.498693 S    
C51   C71   1.351749 A    
C90   H38   1.083340 S    
N10   N18   1.384696 A    
C50   C78   1.506539 S    
C102  O14   1.220810 D    
C69   C73   1.500888 S    
C104  O16   1.220732 D    
C113  O25   1.220803 D    
N4    N32   1.408836 A    
C6    N6    1.329480 A    
C110  O22   1.219819 D    
N1    N29   1.410284 A    
C57   C61   1.403098 A    
C12   C44   1.384641 A    
C23   N23   1.344352 A    
C112  H60   1.084385 S    
C17   N17   1.323314 A    
C85   H33   1.082932 S    
C94   H42   1.085569 S    
C26   C38   1.379445 A    
C27   C111  1.462972 S    
C50   C54   1.399815 A    
C77   H25   1.113525 S    
C20   N20   1.320904 A    
C49   C53   1.390877 A    
C116  H64   1.085603 S    
C6    C38   1.388185 A    
N13   N21   1.383160 A    
C94   O6    1.219433 D    
C27   C39   1.399365 A    
C10   N10   1.338029 A    
C51   C55   1.391949 A    
C11   C43   1.392704 A    
C78   C98   1.506703 S    
N1    Ni1   1.875552 S    
N16   N24   1.384582 A    
C68   C70   1.407216 A    
C74   C78   1.517958 S    
C49   C69   1.352793 A    
C64   C68   1.397011 A    
C14   H2    1.074071 S    
C61   H17   1.084272 S    
C33   C84   1.448708 S    
C18   C42   1.353231 A    
C59   C63   1.401933 A    
C83   H31   1.086336 S    
N10   Ni6   1.881714 S    
C29   N29   1.347629 A    
C17   C41   1.353431 A    
C16   C48   1.348013 A    
C74   C94   1.501971 S    
C98   H46   1.086195 S    
N11   N19   1.383274 A    
C95   O7    1.220332 D    
C8    C104  1.470303 S    
C17   H5    1.072369 S    
C32   N32   1.348738 A    
C47   C55   1.416606 S    
C18   N18   1.321129 A    
C3    C35   1.377825 A    
C3    C91   1.463855 S    
C59   C115  1.484544 S    
C61   C65   1.402560 A    
C28   C40   1.378710 A    
C73   C93   1.501941 S    
C21   H9    1.076453 S    
C57   C113  1.484188 S    
C114  H62   1.085671 S    
C109  O21   1.219932 D    
C93   O5    1.220359 D    
C24   C48   1.358966 A    
C23   H11   1.076404 S    
C107  O19   1.219270 D    
C42   C88   1.417417 S    
C97   H45   1.085884 S    
C30   C34   1.386629 A    
C96   O8    1.220370 D    
C92   O4    1.220838 D    
C43   C85   1.421212 S    
C29   C33   1.391399 A    
C53   C59   1.412859 A    
C49   C77   1.498401 S    
C99   H47   1.085906 S    
C60   C64   1.385955 A    
C78   H26   1.114364 S    
C20   H8    1.070834 S    
C11   C107  1.472256 S    
C5    C101  1.470154 S    
C19   H7    1.072913 S    
C76   H24   1.113817 S    
C104  H52   1.084383 S    
C82   C88   1.337934 D    
N24   Ni2   1.877389 S    
C45   C53   1.415507 S    
C111  H59   1.083335 S    
C103  O15   1.220230 D    
N23   Ni2   1.877547 S    
C12   C108  1.473097 S    
C76   C96   1.502207 S    
C100  O12   1.219695 D    
C73   H21   1.113806 S    
C62   C66   1.403071 A    
C21   C45   1.359952 A    
C96   H44   1.085733 S    
C6    C102  1.470065 S    
C108  H56   1.082877 S    
C12   N12   1.340394 A    
C51   C79   1.503084 S    
C24   H12   1.076661 S    
C13   N13   1.324097 A    
C99   O11   1.220370 D    
C63   C67   1.403789 A    
