data_str_m2_o9_o18_f0_pcu.sym.17
_audit_creation_date              2012-10-26T21:10:39-0400
_audit_creation_method            fapswitch 2.2
_symmetry_space_group_name_H-M    P1
_symmetry_Int_Tables_number       1
_space_group_crystal_system       triclinic
_cell_length_a                    10.831918
_cell_length_b                    14.670705
_cell_length_c                    14.705702
_cell_angle_alpha                 64.768688
_cell_angle_beta                  103.639267
_cell_angle_gamma                 103.075713
_cell_volume                      2033.22486974

loop_
_atom_site_label
_atom_site_type_symbol
_atom_type_description
_atom_site_fract_x
_atom_site_fract_y
_atom_site_fract_z
_atom_type_partial_charge
C1    C     C_R   0.477562 0.119993 0.311893 0.537677
C2    C     C_R   0.543112 0.785678 0.972437 -0.128778
C3    C     C_R   0.387844 0.149554 0.129991 -0.140420
C4    C     C_R   0.549657 0.851253 0.871453 -0.142071
C5    C     C_R   0.479403 0.292966 0.176526 -0.080081
C6    C     C_R   0.489047 0.707221 0.822739 -0.078153
C7    C     C_R   0.431787 0.361428 0.079587 0.039198
C8    C     C_R   0.470821 0.640632 0.922496 0.038384
C9    C     C_R   0.373171 0.321918 0.004605 0.006247
C10   C     C_R   0.505303 0.680726 0.998579 0.007998
C11   C     C_R   0.445722 0.468050 0.054186 0.027468
C12   C     C_R   0.520938 0.879965 0.688034 0.539473
C13   C     C_R   0.426490 0.534701 0.949434 0.025746
C14   C     C_R   0.359324 0.493455 0.876396 0.228596
C15   C     C_R   0.472944 0.510312 0.129232 0.231925
C16   C     C_R   0.262798 0.998969 0.502478 0.550406
C17   C     C_R   0.737142 0.001246 0.497269 0.543599
C18   C     C_R   0.334353 0.387623 0.905247 -0.117748
C19   C     C_R   0.501591 0.616035 0.099941 -0.111093
C20   C     C_R   0.726929 0.289443 0.661069 0.204827
C21   C     C_R   0.269047 0.707684 0.343430 0.204620
C22   C     C_R   0.687975 0.205854 0.633124 0.044478
C23   C     C_R   0.870586 0.002227 0.494664 -0.001890
C24   C     C_R   0.311697 0.793655 0.367289 0.046890
C25   C     C_R   0.513413 0.282474 0.514280 0.038826
C26   C     C_R   0.483473 0.715804 0.489107 0.038214
C27   C     C_R   0.545399 0.369091 0.539499 -0.036422
C28   C     C_R   0.447280 0.626421 0.468587 -0.038065
C29   C     C_R   0.655749 0.371762 0.613354 0.076992
C30   C     C_R   0.336582 0.623347 0.395099 0.072342
C31   C     C_R   0.473250 0.453041 0.493315 0.006719
C32   C     C_R   0.516502 0.540722 0.518066 0.015363
C33   C     C_R   0.627659 0.539846 0.591198 -0.160705
C34   C     C_R   0.129292 0.998824 0.504161 0.001492
C35   C     C_R   0.358862 0.451934 0.423739 -0.168915
C36   C     C_R   0.694493 0.456976 0.638272 -0.097206
C37   C     C_R   0.293505 0.535577 0.374864 -0.097367
C38   C     C_R   0.349981 0.073000 0.774981 -0.098774
C39   C     C_R   0.638065 0.933115 0.228197 -0.091820
C40   C     C_R   0.264103 0.029878 0.711744 -0.050878
C41   C     C_R   0.732304 0.975482 0.287918 -0.049352
C42   C     C_R   0.186785 0.090637 0.625578 0.048650
C43   C     C_R   0.811738 0.913447 0.371294 0.047113
C44   C     C_R   0.195622 0.194594 0.604532 -0.100385
C45   C     C_R   0.906136 0.956713 0.438924 -0.032067
C46   C     C_R   0.798182 0.809243 0.391908 -0.096220
C47   C     C_R   0.281571 0.237281 0.668029 -0.116358
C48   C     C_R   0.704284 0.767340 0.331554 -0.111874
C49   C     C_R   0.358987 0.176621 0.752988 -0.108532
C50   C     C_R   0.623534 0.829045 0.250417 -0.104993
C51   C     C_R   0.964302 0.046772 0.552896 -0.148208
C52   C     C_R   0.035439 0.954557 0.445513 -0.144470
C53   C     C_R   0.093613 0.045366 0.558985 -0.031442
C54   C     C_R   0.450957 0.187773 0.203974 -0.019828
C55   C     C_R   0.522390 0.812248 0.795933 -0.018474
C56   C     C_R   0.351841 0.216404 0.030268 -0.130570
Cu1   Cu    Cu3+1 0.466270 0.918260 0.475690 0.946406
Cu2   Cu    Cu3+1 0.533730 0.081740 0.524310 0.943930
H1    H     H_    0.425569 0.209840 0.801974 0.113570
H2    H     H_    0.316828 0.387203 0.404675 0.127309
H3    H     H_    0.257698 0.949401 0.729828 0.110101
H4    H     H_    0.741676 0.056033 0.270665 0.098679
H5    H     H_    0.136452 0.242543 0.538724 0.110745
H6    H     H_    0.858336 0.760228 0.455901 0.113973
H7    H     H_    0.288364 0.317454 0.651259 0.121354
H8    H     H_    0.692821 0.686744 0.348599 0.119198
H9    H     H_    0.936677 0.080397 0.596732 0.129592
H10   H     H_    0.062935 0.920849 0.401705 0.129958
H11   H     H_    0.284206 0.356335 0.849469 0.100642
H12   H     H_    0.549294 0.796183 0.205081 0.101538
H13   H     H_    0.522384 0.647867 0.157170 0.093695
H14   H     H_    0.263717 0.515476 0.739800 0.328168
H15   H     H_    0.491669 0.489376 0.271659 0.324645
H16   H     H_    0.778751 0.460794 0.694157 0.179877
H17   H     H_    0.207621 0.530695 0.320716 0.185918
H18   H     H_    0.871736 0.228849 0.758794 0.314201
H19   H     H_    0.126939 0.769517 0.242871 0.315192
H20   H     H_    0.409027 0.026024 0.841433 0.100124
H21   H     H_    0.575619 0.980821 0.165203 0.100420
H22   H     H_    0.482231 0.678192 0.765336 0.188624
H23   H     H_    0.304936 0.185545 0.973613 0.111353
H24   H     H_    0.541731 0.319944 0.231540 0.190815
H25   H     H_    0.577278 0.932099 0.852718 0.124907
H26   H     H_    0.365421 0.068325 0.149241 0.122884
H27   H     H_    0.567520 0.817103 0.030084 0.106363
H28   H     H_    0.564592 0.724398 0.544672 0.131816
H29   H     H_    0.433446 0.275065 0.457352 0.152006
H30   H     H_    0.261054 0.859085 0.329474 0.107789
H31   H     H_    0.740612 0.141546 0.668735 0.110102
H32   H     H_    0.666351 0.602360 0.614357 0.098576
N1    N     N_R   0.584450 0.204570 0.560790 -0.255719
N2    N     N_R   0.415550 0.795430 0.439210 -0.250591
O1    O     O_R   0.455540 0.022090 0.338120 -0.507889
O2    O     O_3   0.458779 0.449075 0.229137 -0.734515
O3    O     O_3   0.833446 0.292262 0.733818 -0.725761
O4    O     O_3   0.162216 0.704377 0.271087 -0.723519
O5    O     O_R   0.544460 0.977910 0.661880 -0.506337
O6    O     O_R   0.512510 0.160150 0.379180 -0.496948
O7    O     O_R   0.487490 0.839850 0.620820 -0.500323
O8    O     O_R   0.291160 0.930970 0.479480 -0.505975
O9    O     O_R   0.708840 0.069030 0.520520 -0.513091
O10   O     O_R   0.348130 0.069020 0.520540 -0.493561
O11   O     O_R   0.651870 0.930980 0.479460 -0.494221
O12   O     O_3   0.307124 0.556382 0.780433 -0.716112

loop_
_geom_bond_atom_site_label_1
_geom_bond_atom_site_label_2
_ccdc_geom_bond_type
C8    C13   A    
C23   C45   A    
Cu1   N2    S    
C27   C29   A    
C14   C18   A    
C19   H13   S    
Cu2   O6    S    
C6    C55   A    
C15   O2    S    
C56   H23   S    
C39   C41   A    
C38   C49   A    
C15   C19   A    
C29   C36   A    
C17   C23   S    
C41   H4    S    
C35   C37   A    
C42   C53   S    
C3    C54   A    
C26   N2    A    
Cu1   O7    S    
C25   H29   S    
C33   C36   A    
C2    H27   S    
C17   O9    A    
C12   O7    A    
C16   C34   S    
C11   C15   A    
C23   C51   A    
C22   N1    A    
Cu2   O10   S    
Cu2   N1    S    
C52   H10   S    
C44   C47   A    
C18   H11   S    
C40   C42   A    
C37   H17   S    
Cu1   O1    S    
C13   C14   A    
C41   C43   A    
Cu2   O5    S    
C42   C44   A    
H15   O2    S    
C24   N2    A    
C20   C29   A    
C44   H5    S    
Cu1   O11   S    
C46   C48   A    
C25   N1    A    
C27   C31   A    
C5    C54   A    
C28   C32   A    
C47   C49   A    
C5    C7    A    
C16   O8    A    
C6    C8    A    
C38   H20   S    
C45   C52   A    
Cu1   O8    S    
C14   O12   S    
C30   C37   A    
C46   H6    S    
C35   H2    S    
C51   C53   A    
C39   H21   S    
C7    C11   A    
C1    C54   S    
C24   H30   S    
C3    C56   A    
C6    H22   S    
C31   C32   A    
C10   C19   A    
C26   H28   S    
Cu2   O9    S    
C51   H9    S    
C43   C45   S    
C12   O5    A    
C36   H16   S    
C16   O10   A    
C20   O3    S    
C20   C22   A    
C4    C55   A    
C31   C35   A    
C2    C10   A    
C7    C9    A    
C26   C28   A    
C8    C10   A    
C1    O6    A    
C21   O4    S    
C25   C27   A    
C9    C56   A    
H14   O12   S    
C21   C30   A    
H19   O4    S    
C34   C52   A    
C49   H1    S    
C32   C33   A    
C28   C30   A    
C50   H12   S    
H18   O3    S    
C33   H32   S    
C38   C40   A    
C5    H24   S    
C11   C13   A    
Cu1   Cu2   S    
C4    H25   S    
C2    C4    A    
C48   C50   A    
C22   H31   S    
C17   O11   A    
C43   C46   A    
C12   C55   S    
C40   H3    S    
C9    C18   A    
C39   C50   A    
C34   C53   A    
C1    O1    A    
C21   C24   A    
C3    H26   S    
C48   H8    S    
C47   H7    S    
