data_str_m12_o4_o10_f0_bcu.sym.33
_audit_creation_date              2012-12-11T16:45:46-0500
_audit_creation_method            fapswitch 2.2
_symmetry_space_group_name_H-M    P1
_symmetry_Int_Tables_number       1
_space_group_crystal_system       triclinic
_cell_length_a                    19.793528
_cell_length_b                    17.05293
_cell_length_c                    15.322459
_cell_angle_alpha                 89.999831
_cell_angle_beta                  52.771981
_cell_angle_gamma                 90.00006
_cell_volume                      4118.04883471

loop_
_atom_site_label
_atom_site_type_symbol
_atom_type_description
_atom_site_fract_x
_atom_site_fract_y
_atom_site_fract_z
_atom_type_partial_charge
C1    C     C_R   0.840732 0.674018 0.045428 -0.113591
C2    C     C_R   0.150661 0.311042 0.070398 0.168863
C3    C     C_R   0.387155 0.636306 0.199005 -0.185906
C4    C     C_R   0.169187 0.166572 0.694171 0.226446
C5    C     C_R   0.139799 0.178512 0.631217 -0.139834
C6    C     C_R   0.056273 0.159874 0.674103 -0.125252
C7    C     C_R   0.001354 0.129021 0.779686 -0.075694
C8    C     C_R   0.029344 0.117818 0.843362 -0.125708
C9    C     C_R   0.112887 0.136242 0.800848 -0.185939
C10   C     C_R   0.830426 0.166438 0.305301 0.226294
C11   C     C_R   0.860267 0.178470 0.367726 -0.139897
C12   C     C_R   0.943936 0.159907 0.324260 -0.124581
C13   C     C_R   0.349331 0.811044 0.929611 0.168916
C14   C     C_R   0.998516 0.128981 0.218649 -0.076057
C15   C     C_R   0.970038 0.117576 0.155543 -0.126177
C16   C     C_R   0.886356 0.135938 0.198635 -0.186177
C17   C     C_R   0.650653 0.811036 0.070409 0.168998
C18   C     C_R   0.889920 0.684727 0.304463 0.075763
C19   C     C_R   0.110074 0.684718 0.695525 0.075693
C20   C     C_R   0.389954 0.184725 0.304451 0.075707
C21   C     C_R   0.610101 0.184729 0.695521 0.075762
C22   C     C_R   0.855162 0.714910 0.485793 0.146959
C23   C     C_R   0.144956 0.714818 0.514127 0.146871
C24   C     C_R   0.355085 0.214845 0.485841 0.146904
C25   C     C_R   0.159258 0.674023 0.954584 -0.113613
C26   C     C_R   0.644812 0.214934 0.514223 0.146994
C27   C     C_R   0.872674 0.741123 0.387292 0.037866
C28   C     C_R   0.127327 0.741084 0.612672 0.037866
C29   C     C_R   0.372694 0.241097 0.387303 0.037848
C30   C     C_R   0.627335 0.241131 0.612710 0.037848
C31   C     C_R   0.357231 0.320520 0.379976 -0.206237
C32   C     C_R   0.642852 0.320541 0.620028 -0.206200
C33   C     C_R   0.857169 0.820535 0.379972 -0.206200
C34   C     C_R   0.142758 0.820517 0.620009 -0.206221
C35   C     C_R   0.305894 0.365221 0.475720 -0.187745
C36   C     C_R   0.340741 0.174026 0.045415 -0.113604
C37   C     C_R   0.694133 0.365256 0.524286 -0.187659
C38   C     C_R   0.805873 0.865242 0.475716 -0.187694
C39   C     C_R   0.194078 0.865226 0.524268 -0.187723
C40   C     C_R   0.268508 0.329713 0.578467 0.023449
C41   C     C_R   0.731420 0.329774 0.421533 0.023356
C42   C     C_R   0.768571 0.829758 0.578467 0.023401
C43   C     C_R   0.231481 0.829715 0.421515 0.023462
C44   C     C_R   0.800348 0.756925 0.580560 0.086278
C45   C     C_R   0.199828 0.756826 0.419379 0.086372
C46   C     C_R   0.300191 0.256844 0.580592 0.086379
C47   C     C_R   0.659277 0.174017 0.954570 -0.113605
C48   C     C_R   0.699623 0.256944 0.419459 0.086339
C49   C     C_3   0.760936 0.683553 0.648733 -0.201773
C50   C     C_3   0.239433 0.683486 0.351259 -0.201773
C51   C     C_3   0.260602 0.183496 0.648698 -0.201783
C52   C     C_3   0.738946 0.183582 0.351262 -0.201828
C53   C     C_R   0.848822 0.331262 0.218578 -0.102755
C54   C     C_R   0.151146 0.331223 0.781411 -0.102960
C55   C     C_R   0.348847 0.831238 0.218578 -0.102933
C56   C     C_R   0.651178 0.831258 0.781420 -0.102763
C57   C     C_3   0.823459 0.637748 0.544854 -0.595896
C58   C     C_R   0.808743 0.361326 0.322850 0.060231
C59   C     C_3   0.176802 0.637667 0.455085 -0.596071
C60   C     C_3   0.323273 0.137687 0.544876 -0.596063
C61   C     C_3   0.676418 0.137783 0.455152 -0.596023
C62   C     C_2   0.782486 0.185374 0.960967 -0.230505
C63   C     C_2   0.217584 0.185431 0.038952 -0.230446
C64   C     C_2   0.282409 0.685433 0.961060 -0.230552
C65   C     C_2   0.717531 0.685398 0.039033 -0.230628
C66   C     C_2   0.309341 0.753218 0.905478 -0.205765
C67   C     C_2   0.690636 0.753208 0.094556 -0.205565
C68   C     C_2   0.809392 0.253176 0.905422 -0.205533
C69   C     C_R   0.191213 0.361287 0.677138 0.060397
C70   C     C_2   0.190641 0.253213 0.094546 -0.205701
C71   C     C_R   0.866371 0.388368 0.895660 -0.164604
C72   C     C_R   0.133640 0.388381 0.104325 -0.164592
C73   C     C_R   0.366355 0.888382 0.895680 -0.164602
C74   C     C_R   0.633633 0.888377 0.104332 -0.164621
C75   C     C_R   0.909821 0.607342 0.301898 -0.156467
C76   C     C_R   0.090179 0.607334 0.698098 -0.156469
C77   C     C_R   0.409843 0.107340 0.301885 -0.156486
C78   C     C_R   0.590193 0.107343 0.698091 -0.156460
C79   C     C_R   0.877681 0.298484 0.990789 -0.127306
C80   C     C_R   0.308774 0.861302 0.322850 0.060368
C81   C     C_R   0.122320 0.298487 0.009210 -0.127158
C82   C     C_R   0.377677 0.798488 0.990794 -0.127141
C83   C     C_R   0.622319 0.798485 0.009213 -0.127237
C84   C     C_R   0.897828 0.698475 0.209478 -0.140082
C85   C     C_R   0.102168 0.698476 0.790511 -0.140104
C86   C     C_R   0.397846 0.198477 0.209476 -0.140098
C87   C     C_R   0.602187 0.198474 0.790513 -0.140070
C88   C     C_R   0.859564 0.420931 0.316404 -0.129310
C89   C     C_R   0.140415 0.420911 0.683585 -0.129256
C90   C     C_R   0.359574 0.920921 0.316410 -0.129247
C91   C     C_R   0.691255 0.861318 0.677145 0.060236
C92   C     C_R   0.640436 0.920925 0.683589 -0.129293
C93   C     C_R   0.830956 0.581302 0.949156 -0.159324
C94   C     C_R   0.169029 0.581312 0.050870 -0.159326
C95   C     C_R   0.330968 0.081313 0.949134 -0.159330
C96   C     C_R   0.669046 0.081296 0.050844 -0.159308
C97   C     C_R   0.790082 0.645287 0.018642 0.158801
C98   C     C_R   0.209895 0.645299 0.981392 0.158940
C99   C     C_R   0.290102 0.145302 0.018612 0.158903
C100  C     C_R   0.709927 0.145276 0.981353 0.158743
C101  C     C_R   0.669453 0.666493 0.694638 0.226340
C102  C     C_R   0.849350 0.311024 0.929586 0.168989
C103  C     C_R   0.639668 0.678566 0.632154 -0.139950
C104  C     C_R   0.556005 0.660053 0.675573 -0.124633
C105  C     C_R   0.501371 0.629140 0.781200 -0.075972
C106  C     C_R   0.529789 0.617714 0.844369 -0.126173
C107  C     C_R   0.613463 0.636036 0.801324 -0.186070
C108  C     C_R   0.330864 0.666589 0.305721 0.226476
C109  C     C_R   0.360279 0.678516 0.368644 -0.139888
C110  C     C_R   0.443825 0.659906 0.325687 -0.125162
C111  C     C_R   0.498736 0.629096 0.220064 -0.075718
C112  C     C_R   0.470721 0.617915 0.156417 -0.125762
H1    H     H_    0.831467 0.725258 0.092822 0.088305
H2    H     H_    0.226380 0.677179 0.290402 0.126347
H3    H     H_    0.273625 0.177201 0.709585 0.126347
H4    H     H_    0.725624 0.177419 0.290646 0.126466
H5    H     H_    0.872373 0.607314 0.546493 0.185164
H6    H     H_    0.128014 0.607185 0.453250 0.185197
H7    H     H_    0.372074 0.107245 0.546726 0.185195
H8    H     H_    0.627448 0.107422 0.453576 0.185216
H9    H     H_    0.793185 0.599952 0.518194 0.197650
H10   H     H_    0.206960 0.599904 0.481923 0.197688
H11   H     H_    0.293146 0.099887 0.518032 0.197684
H12   H     H_    0.168521 0.725261 0.907193 0.088317
H13   H     H_    0.706689 0.099930 0.481752 0.197657
H14   H     H_    0.803300 0.165419 0.008358 0.121653
H15   H     H_    0.196807 0.165498 0.991524 0.121592
H16   H     H_    0.303195 0.665493 0.008477 0.121609
H17   H     H_    0.696686 0.665428 0.991699 0.121682
H18   H     H_    0.290042 0.772318 0.856103 0.125232
H19   H     H_    0.709970 0.772327 0.143884 0.125199
H20   H     H_    0.790080 0.272270 0.856054 0.125174
H21   H     H_    0.209935 0.272313 0.143932 0.125212
H22   H     H_    0.824817 0.287513 0.193341 0.095822
H23   H     H_    0.331483 0.225271 0.092799 0.088314
H24   H     H_    0.175120 0.287435 0.806642 0.095647
H25   H     H_    0.324873 0.787453 0.193344 0.095656
H26   H     H_    0.675180 0.787504 0.806654 0.095793
H27   H     H_    0.861715 0.415057 0.835440 0.090978
H28   H     H_    0.138301 0.415074 0.164536 0.090961
H29   H     H_    0.361688 0.915076 0.835473 0.090962
H30   H     H_    0.638290 0.915069 0.164548 0.090984
H31   H     H_    0.926295 0.579612 0.350045 0.105928
H32   H     H_    0.073718 0.579597 0.649936 0.105932
H33   H     H_    0.426313 0.079605 0.350038 0.105933
H34   H     H_    0.668554 0.225267 0.907185 0.088301
H35   H     H_    0.573715 0.079617 0.649946 0.105923
H36   H     H_    0.886756 0.242990 0.016400 0.086979
H37   H     H_    0.113244 0.242986 0.983610 0.086836
H38   H     H_    0.386751 0.742988 0.016397 0.086821
H39   H     H_    0.613259 0.742987 0.983593 0.086928
H40   H     H_    0.899157 0.755038 0.176687 0.085002
H41   H     H_    0.100846 0.755043 0.823287 0.085009
H42   H     H_    0.399169 0.255042 0.176694 0.085008
H43   H     H_    0.600860 0.255037 0.823303 0.085003
H44   H     H_    0.847754 0.457383 0.381962 0.093147
H45   H     H_    0.287716 0.423550 0.469384 0.129090
H46   H     H_    0.152224 0.457356 0.618021 0.093120
H47   H     H_    0.347760 0.957369 0.381975 0.093127
H48   H     H_    0.652245 0.957372 0.618027 0.093136
H49   H     H_    0.810600 0.547558 0.909136 0.096289
H50   H     H_    0.189377 0.547579 0.090909 0.096285
H51   H     H_    0.310619 0.047579 0.909098 0.096284
H52   H     H_    0.689401 0.047549 0.090864 0.096287
H53   H     H_    0.375573 0.345483 0.303562 0.127455
H54   H     H_    0.624594 0.345485 0.696417 0.127441
H55   H     H_    0.875443 0.845483 0.303577 0.127450
H56   H     H_    0.712353 0.423570 0.530616 0.129055
H57   H     H_    0.124398 0.845488 0.696431 0.127446
H58   H     H_    0.681240 0.701645 0.549637 0.122611
H59   H     H_    0.533709 0.669056 0.626931 0.112594
H60   H     H_    0.437218 0.613433 0.813682 0.118615
H61   H     H_    0.487132 0.594036 0.926387 0.099601
H62   H     H_    0.634705 0.626088 0.851038 0.088563
H63   H     H_    0.318496 0.701495 0.451178 0.122667
H64   H     H_    0.465798 0.668721 0.374712 0.112634
H65   H     H_    0.562800 0.613312 0.187938 0.118701
H66   H     H_    0.513604 0.594325 0.074393 0.099495
H67   H     H_    0.787653 0.923553 0.469384 0.129070
H68   H     H_    0.366224 0.626513 0.148930 0.088474
H69   H     H_    0.181590 0.201520 0.548708 0.122689
H70   H     H_    0.034320 0.168705 0.625057 0.112637
H71   H     H_    0.937310 0.113215 0.811752 0.118697
H72   H     H_    0.986454 0.094191 0.925353 0.099515
H73   H     H_    0.133800 0.126436 0.850943 0.088506
H74   H     H_    0.818737 0.201564 0.450240 0.122591
H75   H     H_    0.966267 0.168875 0.372865 0.112605
H76   H     H_    0.062666 0.113242 0.186146 0.118539
H77   H     H_    0.012650 0.093869 0.073548 0.099630
H78   H     H_    0.212231 0.923567 0.530611 0.129097
H79   H     H_    0.865060 0.125993 0.148987 0.088623
H80   H     H_    0.774214 0.677323 0.709392 0.126421
N1    N     N_R   0.908660 0.628630 0.995840 -0.045879
N2    N     N_R   0.096530 0.421430 0.063580 -0.039088
N3    N     N_R   0.403470 0.921430 0.936420 -0.039089
N4    N     N_R   0.596530 0.921430 0.063580 -0.039095
N5    N     N_R   0.927500 0.575670 0.211370 -0.037681
N6    N     N_R   0.072500 0.575670 0.788630 -0.037678
N7    N     N_R   0.427500 0.075670 0.211370 -0.037679
N8    N     N_R   0.572500 0.075670 0.788630 -0.037683
N9    N     N_R   0.908660 0.365680 0.995820 -0.046211
N10   N     N_R   0.091340 0.365680 0.004180 -0.046192
N11   N     N_R   0.408660 0.865680 0.995820 -0.046197
N12   N     N_R   0.091340 0.628630 0.004160 -0.045885
N13   N     N_R   0.591340 0.865680 0.004180 -0.046212
N14   N     N_R   0.922310 0.631420 0.151980 -0.038421
N15   N     N_R   0.077690 0.631420 0.848020 -0.038418
N16   N     N_R   0.422310 0.131420 0.151980 -0.038418
N17   N     N_R   0.577690 0.131420 0.848020 -0.038421
N18   N     N_R   0.927500 0.426330 0.211360 -0.040870
N19   N     N_R   0.072500 0.426330 0.788640 -0.040847
N20   N     N_R   0.427500 0.926330 0.211360 -0.040849
N21   N     N_R   0.572500 0.926330 0.788640 -0.040866
N22   N     N_R   0.903470 0.570760 0.936440 -0.040139
N23   N     N_R   0.408660 0.128630 0.995840 -0.045885
N24   N     N_R   0.096530 0.570760 0.063560 -0.040143
N25   N     N_R   0.403470 0.070760 0.936440 -0.040143
N26   N     N_R   0.596530 0.070760 0.063560 -0.040136
N27   N     N_R   0.591340 0.128630 0.004160 -0.045871
N28   N     N_R   0.922310 0.368460 0.151950 -0.040962
N29   N     N_R   0.077690 0.368460 0.848050 -0.040955
N30   N     N_R   0.422310 0.868460 0.151950 -0.040952
N31   N     N_R   0.577690 0.868460 0.848050 -0.040958
N32   N     N_R   0.903470 0.421430 0.936420 -0.039091
Ni1   Ni    Ni4+2 0.000000 0.630300 0.000000 0.205124
Ni2   Ni    Ni4+2 0.500000 0.130300 0.000000 0.205128
Ni3   Ni    Ni4+2 0.000000 0.369700 0.000000 0.221679
Ni4   Ni    Ni4+2 0.500000 0.869700 0.000000 0.221679
Ni5   Ni    Ni4+2 0.988090 0.497570 0.863760 0.208165
Ni6   Ni    Ni4+2 0.011910 0.497570 0.136240 0.208135
Ni7   Ni    Ni4+2 0.488090 0.997570 0.863760 0.208143
Ni8   Ni    Ni4+2 0.511910 0.997570 0.136240 0.208163

loop_
_geom_bond_atom_site_label_1
_geom_bond_atom_site_label_2
_ccdc_geom_bond_type
C44   C49   S    
C101  C107  A    
C90   N20   A    
C21   C87   A    
C18   C75   A    
C23   C45   A    
C105  H60   S    
C32   H54   S    
C11   H74   S    
N2    Ni6   S    
C111  C112  A    
N7    Ni8   S    
C25   N12   A    
C10   C52   S    
C22   C57   S    
N6    Ni5   S    
N18   N28   A    
C89   H46   S    
C89   N19   A    
C49   H80   S    
C73   H29   S    
N5    Ni6   S    
C27   C33   A    
C23   C59   S    
C56   H26   S    
C78   N8    A    
C20   C77   A    
C6    H70   S    
C37   C41   A    
C50   C59   S    
C88   H44   S    
C10   C16   A    
C57   H5    S    
C19   C76   A    
C26   C61   S    
C68   C102  S    
C41   C58   S    
C38   C42   A    
C9    H73   S    
C52   C61   S    
N23   N25   A    
C36   N23   A    
C72   N2    A    
C5    C6    A    
N20   Ni8   S    
C95   C99   A    
N3    N11   A    
C106  C107  A    
C94   C98   A    
C15   C16   A    
N2    N10   A    
C55   H25   S    
N4    N13   A    
C49   C57   S    
C108  C109  A    
C60   H7    S    
C42   C91   S    
C90   H47   S    
C68   H20   S    
C110  C111  A    
N11   Ni4   S    
C63   C99   S    
N16   Ni2   S    
C24   C29   A    
N15   Ni1   S    
C56   C91   A    
C22   C44   A    
C6    C7    A    
N4    Ni8   S    
C8    C9    A    
C64   H16   S    
C20   C86   A    
C21   C78   A    
N6    N15   A    
C103  H58   S    
C18   C84   A    
C79   C102  A    
C38   H67   S    
N8    Ni7   S    
C93   H49   S    
C94   H50   S    
N21   Ni7   S    
C26   C48   A    
C13   C66   S    
C8    H72   S    
C53   N28   A    
C64   C98   S    
C15   H77   S    
C47   H34   S    
C28   C34   A    
C101  C103  A    
C88   N18   A    
C61   H8    S    
C50   C108  S    
C87   N17   A    
N5    N14   A    
C33   H55   S    
C1    H1    S    
C2    C72   A    
C5    H69   S    
C104  C105  A    
C37   H56   S    
C83   H39   S    
C20   C29   S    
C52   H4    S    
C74   N4    A    
C17   C67   S    
C40   C69   S    
C53   H22   S    
C4    C51   S    
C34   C39   A    
C11   C12   A    
C31   H53   S    
N32   Ni5   S    
N1    N22   A    
N12   Ni1   S    
C56   N31   A    
C86   N16   A    
C91   C92   A    
C62   H14   S    
C39   H78   S    
N31   Ni4   S    
C54   N29   A    
N20   N30   A    
C79   N9    A    
C43   C80   S    
C23   C28   A    
C12   H75   S    
C47   N27   A    
C46   C51   S    
C96   N26   A    
C51   H3    S    
C47   C100  A    
C96   H52   S    
N28   Ni3   S    
C17   C83   A    
C64   C66   D    
C60   H11   S    
C1    N1    A    
C3    H68   S    
C35   H45   S    
C106  H61   S    
C16   H79   S    
C95   H51   S    
C70   H21   S    
C14   H76   S    
C93   C97   A    
C65   H17   S    
C63   C70   D    
N30   Ni4   S    
C3    C112  A    
C24   C60   S    
C54   H24   S    
N14   Ni1   S    
N24   Ni6   S    
N18   Ni6   S    
N3    Ni7   S    
C92   N21   A    
C85   H41   S    
C32   C37   A    
C19   C28   S    
C77   N7    A    
N26   Ni8   S    
C81   N10   A    
C34   H57   S    
C75   H31   S    
C78   H35   S    
C104  H59   S    
C62   C100  S    
C76   H32   S    
C71   C102  A    
C12   C14   A    
C26   C30   A    
C59   H6    S    
C22   C27   A    
C73   N3    A    
N13   Ni4   S    
C17   C74   A    
C31   C35   A    
C79   H36   S    
N17   Ni2   S    
C40   C46   A    
C72   H28   S    
C1    C97   A    
C36   H23   S    
C77   H33   S    
C85   N15   A    
C112  H66   S    
C105  C106  A    
N9    Ni3   S    
N29   Ni3   S    
C71   N32   A    
N19   Ni5   S    
C93   N22   A    
C84   H40   S    
C67   H19   S    
C18   C27   S    
C33   C38   A    
C13   C73   A    
C4    C5    A    
C82   H38   S    
C58   C88   A    
C75   N5    A    
C39   C43   A    
C53   C58   A    
C109  H63   S    
C71   H27   S    
N10   Ni3   S    
C107  H62   S    
C110  H64   S    
C3    C108  A    
C69   C89   A    
C65   C97   S    
C21   C30   S    
N12   N24   A    
C94   N24   A    
N8    N17   A    
C65   C67   D    
C62   C68   D    
C92   H48   S    
N23   Ni2   S    
C24   C46   A    
C19   C85   A    
C35   C40   A    
C86   H42   S    
C42   C44   A    
N1    Ni1   S    
C29   C31   A    
C76   N6    A    
C109  C110  A    
N25   Ni7   S    
C30   C32   A    
C55   C80   A    
N21   N31   A    
N26   N27   A    
C82   N11   A    
C54   C69   A    
C45   C50   S    
C59   H10   S    
C81   H37   S    
C13   C82   A    
N7    N16   A    
C95   N25   A    
C41   C48   A    
C36   C99   A    
C87   H43   S    
C7    H71   S    
N27   Ni2   S    
C80   C90   A    
C25   H12   S    
C7    C8    A    
C10   C11   A    
C57   H9    S    
C84   N14   A    
C25   C98   A    
C48   C52   S    
C96   C100  A    
C74   H30   S    
C83   N13   A    
C103  C104  A    
C111  H65   S    
C14   C15   A    
C2    C81   A    
C61   H13   S    
C51   C60   S    
N9    N32   A    
C50   H2    S    
C4    C9    A    
C2    C70   S    
N22   Ni5   S    
C55   N30   A    
C43   C45   A    
C63   H15   S    
C49   C101  S    
C66   H18   S    
N19   N29   A    
