data_str_m9_o2_o18_f0_sra.sym.10
_audit_creation_date              2012-12-11T16:27:22-0500
_audit_creation_method            fapswitch 2.2
_symmetry_space_group_name_H-M    P1
_symmetry_Int_Tables_number       1
_space_group_crystal_system       triclinic
_cell_length_a                    21.690702
_cell_length_b                    6.915284
_cell_length_c                    14.707985
_cell_angle_alpha                 90.001851
_cell_angle_beta                  105.060243
_cell_angle_gamma                 90.000461
_cell_volume                      2130.3843959

loop_
_atom_site_label
_atom_site_type_symbol
_atom_type_description
_atom_site_fract_x
_atom_site_fract_y
_atom_site_fract_z
_atom_type_partial_charge
O1    O     O_R   0.835850 0.638310 0.002120 -0.539325
O2    O     O_R   0.164150 0.361690 0.997880 -0.539323
O3    O     O_R   0.664150 0.138310 0.997880 -0.539327
O4    O     O_R   0.335850 0.861690 0.002120 -0.539330
O5    O     O_R   0.717530 0.306070 0.861970 -0.543746
O6    O     O_R   0.282470 0.693930 0.138030 -0.543743
O7    O     O_R   0.782470 0.806070 0.138030 -0.543800
O8    O     O_R   0.217530 0.193930 0.861970 -0.543799
C1    C     C_R   0.704454 0.476484 0.824295 0.725171
C2    C     C_R   0.295546 0.523516 0.175705 0.725192
C3    C     C_R   0.795541 0.976487 0.175707 0.724963
C4    C     C_R   0.204463 0.023511 0.824292 0.724943
O9    O     O_R   0.838690 0.308440 0.993250 -0.538207
O10   O     O_R   0.161310 0.691560 0.006750 -0.538202
O11   O     O_R   0.661310 0.808440 0.006750 -0.538247
O12   O     O_R   0.338690 0.191560 0.993250 -0.538245
O13   O     O_R   0.786170 0.140510 0.130090 -0.541926
O14   O     O_R   0.213830 0.859490 0.869910 -0.541930
O15   O     O_R   0.713830 0.640510 0.869910 -0.541972
O16   O     O_R   0.286170 0.359490 0.130090 -0.541977
C5    C     C_R   0.865147 0.477897 0.997178 0.697677
C6    C     C_R   0.134854 0.522102 0.002826 0.697684
C7    C     C_R   0.634852 0.977899 0.002814 0.697576
C8    C     C_R   0.365148 0.022101 0.997188 0.697577
O17   O     O_3   0.732630 0.472520 0.044740 -0.370156
O18   O     O_3   0.267370 0.527480 0.955260 -0.370161
O19   O     O_3   0.767370 0.972520 0.955260 -0.370135
O20   O     O_3   0.232630 0.027480 0.044740 -0.370132
V1    V     V_3+5 0.753220 0.196740 0.991700 1.428568
V2    V     V_3+5 0.246780 0.803260 0.008300 1.428567
V3    V     V_3+5 0.746780 0.696740 0.008300 1.428450
V4    V     V_3+5 0.253220 0.303260 0.991700 1.428445
H1    H     H_    0.611256 0.174401 0.313005 0.133125
H2    H     H_    0.388742 0.825642 0.686991 0.133134
H3    H     H_    0.888754 0.674097 0.686955 0.132951
H4    H     H_    0.111246 0.325858 0.313044 0.132938
C9    C     C_R   0.535331 0.905246 0.833176 -0.151970
C10   C     C_R   0.464668 0.094774 0.166824 -0.151973
C11   C     C_R   0.964661 0.405385 0.166835 -0.151981
C12   C     C_R   0.035339 0.594580 0.833167 -0.151975
C13   C     C_R   0.488653 0.865725 0.750572 -0.139142
C14   C     C_R   0.511345 0.134309 0.249425 -0.139138
C15   C     C_R   0.011336 0.365918 0.249449 -0.139078
C16   C     C_R   0.988664 0.634032 0.750551 -0.139090
C17   C     C_R   0.424675 0.860991 0.750910 -0.107122
C18   C     C_R   0.575324 0.139040 0.249087 -0.107123
C19   C     C_R   0.075317 0.361176 0.249119 -0.107178
C20   C     C_R   0.924683 0.638790 0.750881 -0.107176
C21   C     C_R   0.406722 0.903222 0.833118 -0.130071
C22   C     C_R   0.593278 0.096794 0.166882 -0.130115
C23   C     C_R   0.093275 0.403352 0.166910 -0.129995
C24   C     C_R   0.906726 0.596638 0.833093 -0.129992
C25   C     C_R   0.452674 0.953684 0.916792 0.056811
C26   C     C_R   0.547326 0.046324 0.083210 0.056814
C27   C     C_R   0.047325 0.453756 0.083226 0.056822
C28   C     C_R   0.952676 0.546238 0.916779 0.056822
C29   C     C_R   0.518516 0.948429 0.917653 0.074035
C30   C     C_R   0.481484 0.051580 0.082349 0.074041
C31   C     C_R   0.981482 0.448500 0.082356 0.074021
C32   C     C_R   0.018519 0.551487 0.917647 0.074024
C33   C     C_R   0.433993 0.009689 0.998544 -0.184732
C34   C     C_R   0.566008 0.990313 0.001459 -0.184732
C35   C     C_R   0.066009 0.509691 0.001468 -0.184738
C36   C     C_R   0.933992 0.490307 0.998537 -0.184738
H5    H     H_    0.584541 0.904360 0.829615 0.111453
H6    H     H_    0.415458 0.095662 0.170384 0.111449
H7    H     H_    0.915450 0.404503 0.170389 0.111451
H8    H     H_    0.084550 0.595452 0.829612 0.111449
H9    H     H_    0.502347 0.837535 0.686162 0.135920
H10   H     H_    0.497651 0.162511 0.313833 0.135918
H11   H     H_    0.997638 0.337767 0.313857 0.135910
H12   H     H_    0.002361 0.662158 0.686140 0.135912
H13   H     H_    0.356574 0.896220 0.830613 0.140158
H14   H     H_    0.643426 0.103803 0.169387 0.140195
H15   H     H_    0.143425 0.396348 0.169423 0.140181
H16   H     H_    0.856576 0.603651 0.830581 0.140174
C37   C     C_R   0.176539 0.018157 0.721707 -0.048739
C38   C     C_R   0.823472 0.981828 0.278290 -0.048693
C39   C     C_R   0.323476 0.518144 0.278286 -0.048626
C40   C     C_R   0.676522 0.481855 0.721714 -0.048655
C41   C     C_R   0.187268 0.024400 0.561860 -0.202597
C42   C     C_R   0.812753 0.975537 0.438141 -0.202610
C43   C     C_R   0.312738 0.524017 0.438126 -0.202756
C44   C     C_R   0.687259 0.476003 0.561871 -0.202743
C45   C     C_R   0.215046 0.039907 0.658805 0.193868
C46   C     C_R   0.784967 0.960107 0.341194 0.193877
C47   C     C_R   0.284971 0.539716 0.341189 0.193692
C48   C     C_R   0.715029 0.460288 0.658807 0.193712
C49   C     C_R   0.110084 0.003042 0.686850 -0.287865
C50   C     C_R   0.889930 0.996888 0.313142 -0.287894
C51   C     C_R   0.389929 0.503099 0.313143 -0.287984
C52   C     C_R   0.610066 0.496905 0.686861 -0.287969
C53   C     C_R   0.080721 0.005553 0.588701 0.086576
C54   C     C_R   0.919297 0.994354 0.411291 0.086573
C55   C     C_R   0.419288 0.505506 0.411293 0.086608
C56   C     C_R   0.580707 0.494511 0.588711 0.086602
C57   C     C_R   0.121054 0.004477 0.526813 0.107043
C58   C     C_R   0.878967 0.995427 0.473183 0.107064
C59   C     C_R   0.378953 0.504188 0.473174 0.107134
C60   C     C_R   0.621043 0.495833 0.526827 0.107126
C61   C     C_R   0.012976 0.007283 0.549900 0.062040
C62   C     C_R   0.987042 0.992613 0.450090 0.062031
C63   C     C_R   0.487030 0.507388 0.450099 0.062024
C64   C     C_R   0.512964 0.492635 0.549905 0.062022
C65   C     C_R   0.029647 0.972496 0.392658 -0.201219
C66   C     C_R   0.970371 0.027393 0.607334 -0.201230
C67   C     C_R   0.470361 0.472292 0.607327 -0.201238
C68   C     C_R   0.529632 0.527737 0.392676 -0.201244
C69   C     C_R   0.095186 0.983748 0.430170 -0.204187
C70   C     C_R   0.904834 0.016143 0.569825 -0.204190
C71   C     C_R   0.404821 0.483393 0.569812 -0.204201
C72   C     C_R   0.595173 0.516638 0.430190 -0.204193
H17   H     H_    0.126016 0.974687 0.382904 0.126305
H18   H     H_    0.874005 0.025204 0.617092 0.126305
H19   H     H_    0.373991 0.474182 0.617073 0.126312
H20   H     H_    0.626003 0.525855 0.382929 0.126314
H21   H     H_    0.917255 0.010560 0.261810 0.114676
H22   H     H_    0.082758 0.989359 0.738180 0.114672
H23   H     H_    0.582737 0.510434 0.738194 0.114661
H24   H     H_    0.417260 0.489561 0.261812 0.114657
H25   H     H_    0.217303 0.031654 0.513397 0.115574
H26   H     H_    0.782722 0.968291 0.486609 0.115566
H27   H     H_    0.282700 0.531172 0.486588 0.115604
H28   H     H_    0.717296 0.468862 0.513407 0.115608
H29   H     H_    0.013775 0.949065 0.317780 0.139814
H30   H     H_    0.986241 0.050816 0.682212 0.139813
H31   H     H_    0.486235 0.448810 0.682200 0.139807
H32   H     H_    0.513757 0.551227 0.317804 0.139804
N1    N     N_3   0.717904 0.922399 0.306449 -0.711134
H33   H     H_    0.712854 0.784879 0.275866 0.227176
H34   H     H_    0.696141 0.915821 0.362025 0.226525
N2    N     N_3   0.282097 0.077808 0.693548 -0.711124
H35   H     H_    0.287099 0.215313 0.724144 0.227196
H36   H     H_    0.303863 0.084509 0.637981 0.226538
N3    N     N_3   0.782051 0.422053 0.693535 -0.711048
H37   H     H_    0.786942 0.284109 0.723678 0.227240
H38   H     H_    0.803867 0.416070 0.638005 0.226505
N4    N     N_3   0.217951 0.577953 0.306454 -0.711049
H39   H     H_    0.213067 0.715930 0.276342 0.227237
H40   H     H_    0.196131 0.583876 0.361978 0.226507

loop_
_geom_bond_atom_site_label_1
_geom_bond_atom_site_label_2
_ccdc_geom_bond_type
O17   V3    S    
C43   C47   A    
O1    C5    A    
C61   C62   A    
C12   C32   A    
C27   C31   A    
O19   V1    S    
O13   V1    S    
O3    C7    A    
O1    V3    S    
O15   V3    S    
C39   C47   A    
N3    H37   S    
C38   C50   A    
O7    C3    A    
C37   C49   A    
C31   C36   A    
C8    C33   S    
C62   C65   A    
C32   C35   A    
C58   C70   A    
O9    V1    S    
C52   H23   S    
C23   H15   S    
C10   C14   A    
C22   H14   S    
C45   N2    S    
C26   C30   A    
O4    C8    A    
C55   C59   A    
C54   C58   A    
C52   C56   A    
H4    C19   S    
O2    V4    S    
C14   C18   A    
O3    V1    S    
C5    C36   S    
C6    C35   S    
C10   C30   A    
C25   C33   A    
C1    O15   A    
C7    C34   S    
C10   H6    S    
C2    O16   A    
N2    H35   S    
C27   C35   A    
O2    C6    A    
C28   C36   A    
C63   C68   A    
O14   V2    S    
C70   H18   S    
C12   C16   A    
C39   C51   A    
C69   H17   S    
C38   C46   A    
C30   C33   A    
O11   C7    A    
C59   C71   A    
O12   C8    A    
C43   C59   A    
C9    C13   A    
H1    C18   S    
C42   C58   A    
C67   C71   A    
O10   V2    S    
C41   H25   S    
H3    C20   S    
C55   C63   A    
C18   C22   A    
C50   C54   A    
O5    V1    S    
O17   V1    S    
O7    V3    S    
O19   V3    S    
O8    V4    S    
C50   H21   S    
O20   V4    S    
C53   C61   A    
C25   C29   A    
O18   V4    S    
C19   C23   A    
C26   C34   A    
C29   C34   A    
C42   C46   A    
C51   C55   A    
O4    V2    S    
C68   C72   A    
C9    H5    S    
C1    C40   S    
C44   C60   A    
C40   C52   A    
C14   H10   S    
O5    C1    A    
C3    C38   S    
C57   C69   A    
C17   C21   A    
O8    C4    A    
C11   C31   A    
C4    C37   S    
O9    C5    A    
H2    C17   S    
C22   C26   A    
C68   H32   S    
N4    H40   S    
N2    H36   S    
O6    V2    S    
C60   C72   A    
C56   C64   A    
C21   H13   S    
O12   V4    S    
C47   N4    S    
C53   C57   A    
C72   H20   S    
C13   H9    S    
N1    H33   S    
O16   V4    S    
C61   C66   A    
N3    H38   S    
C65   C69   A    
C3    O13   A    
C15   H11   S    
C11   H7    S    
C44   C48   A    
C48   N3    S    
C24   H16   S    
O6    C2    A    
C11   C15   A    
C2    C39   S    
C46   N1    S    
O11   V3    S    
C44   H28   S    
C66   H30   S    
C65   H29   S    
O10   C6    A    
O20   V2    S    
C67   H31   S    
C40   C48   A    
C16   C20   A    
C41   C57   A    
C21   C25   A    
C56   C60   A    
C16   H12   S    
C23   C27   A    
C49   C53   A    
C9    C29   A    
N4    H39   S    
C37   C45   A    
C28   C32   A    
C20   C24   A    
C49   H22   S    
C54   C62   A    
C66   C70   A    
C12   H8    S    
C4    O14   A    
C63   C64   A    
C13   C17   A    
C51   H24   S    
C71   H19   S    
C43   H27   S    
C15   C19   A    
C42   H26   S    
C64   C67   A    
C41   C45   A    
C24   C28   A    
N1    H34   S    
O18   V2    S    
