data_str_m4_o17_o17_f0_acs.sym.147
_audit_creation_date              2012-12-11T14:30:04-0500
_audit_creation_method            fapswitch 2.2
_symmetry_space_group_name_H-M    P1
_symmetry_Int_Tables_number       1
_space_group_crystal_system       monoclinic
_cell_length_a                    12.653318
_cell_length_b                    12.653319
_cell_length_c                    27.062973
_cell_angle_alpha                 90.0
_cell_angle_beta                  90.0
_cell_angle_gamma                 120.000216
_cell_volume                      3752.4427108

loop_
_atom_site_label
_atom_site_type_symbol
_atom_type_description
_atom_site_fract_x
_atom_site_fract_y
_atom_site_fract_z
_atom_type_partial_charge
C1    C     C_R   0.558635 0.455942 0.822408 0.546052
C2    C     C_R   0.897307 0.441365 0.677592 0.546052
C3    C     C_R   0.544058 0.102693 0.822408 0.546052
C4    C     C_R   0.558635 0.455942 0.677592 0.546052
C5    C     C_R   0.897307 0.441365 0.822408 0.546052
C6    C     C_R   0.544058 0.102693 0.677592 0.546052
C7    C     C_R   0.455942 0.558635 0.322408 0.546052
C8    C     C_R   0.441365 0.897307 0.177592 0.546051
C9    C     C_R   0.102693 0.544058 0.322408 0.546052
C10   C     C_R   0.455942 0.558635 0.177592 0.546052
C11   C     C_R   0.441365 0.897307 0.322408 0.546051
C12   C     C_R   0.102693 0.544058 0.177592 0.546052
C13   C     C_R   0.992961 0.498407 0.974218 0.063161
C14   C     C_R   0.505446 0.007039 0.525782 0.063161
C15   C     C_R   0.501593 0.494554 0.974218 0.063161
C16   C     C_R   0.992961 0.498407 0.525782 0.063161
C17   C     C_R   0.505446 0.007039 0.974218 0.063161
C18   C     C_R   0.501593 0.494554 0.525782 0.063161
C19   C     C_R   0.498407 0.992961 0.474218 0.063161
C20   C     C_R   0.007039 0.505446 0.025782 0.063161
C21   C     C_R   0.494554 0.501593 0.474218 0.063161
C22   C     C_R   0.498407 0.992961 0.025782 0.063161
C23   C     C_R   0.007039 0.505446 0.474218 0.063161
C24   C     C_R   0.494554 0.501593 0.025782 0.063161
C25   C     C_R   0.990678 0.689502 0.974394 -0.124367
C26   C     C_R   0.698824 0.009322 0.525606 -0.124367
C27   C     C_R   0.310497 0.301175 0.974394 -0.124368
C28   C     C_R   0.990678 0.689502 0.525606 -0.124367
C29   C     C_R   0.698824 0.009322 0.974394 -0.124368
C30   C     C_R   0.310497 0.301175 0.525606 -0.124368
C31   C     C_R   0.689502 0.990678 0.474394 -0.124368
C32   C     C_R   0.009322 0.698824 0.025606 -0.124368
C33   C     C_R   0.301175 0.310497 0.474394 -0.124368
C34   C     C_R   0.689502 0.990678 0.025606 -0.124367
C35   C     C_R   0.009322 0.698824 0.474394 -0.124368
C36   C     C_R   0.301175 0.310497 0.025606 -0.124368
C37   C     C_R   0.959753 0.576620 0.897297 -0.135255
C38   C     C_R   0.616867 0.040247 0.602703 -0.135255
C39   C     C_R   0.423380 0.383132 0.897297 -0.135255
C40   C     C_R   0.959753 0.576620 0.602703 -0.135256
C41   C     C_R   0.616867 0.040247 0.897297 -0.135255
C42   C     C_R   0.423379 0.383132 0.602703 -0.135255
C43   C     C_R   0.576620 0.959753 0.397297 -0.135255
C44   C     C_R   0.040247 0.616867 0.102703 -0.135255
C45   C     C_R   0.383132 0.423379 0.397297 -0.135255
C46   C     C_R   0.576620 0.959753 0.102703 -0.135255
C47   C     C_R   0.040247 0.616867 0.397297 -0.135255
C48   C     C_R   0.383132 0.423380 0.102703 -0.135255
C49   C     C_R   0.049476 0.524378 0.127804 -0.004982
C50   C     C_R   0.474902 0.950524 0.372196 -0.004983
C51   C     C_R   0.475621 0.525098 0.127804 -0.004983
C52   C     C_R   0.049476 0.524378 0.372196 -0.004983
C53   C     C_R   0.474902 0.950524 0.127804 -0.004983
C54   C     C_R   0.475621 0.525098 0.372196 -0.004983
C55   C     C_R   0.524378 0.049476 0.627804 -0.004982
C56   C     C_R   0.950524 0.474903 0.872196 -0.004983
C57   C     C_R   0.525098 0.475621 0.627804 -0.004983
C58   C     C_R   0.524378 0.049476 0.872196 -0.004983
C59   C     C_R   0.950524 0.474902 0.627804 -0.004982
C60   C     C_R   0.525098 0.475621 0.872196 -0.004983
C61   C     C_R   0.982539 0.589677 0.948351 0.016772
C62   C     C_R   0.607137 0.017461 0.551649 0.016772
C63   C     C_R   0.410323 0.392862 0.948351 0.016773
C64   C     C_R   0.982539 0.589677 0.551649 0.016772
C65   C     C_R   0.607137 0.017461 0.948351 0.016772
C66   C     C_R   0.410323 0.392862 0.551649 0.016772
C67   C     C_R   0.589677 0.982539 0.448351 0.016772
C68   C     C_R   0.017461 0.607137 0.051649 0.016772
C69   C     C_R   0.392862 0.410323 0.448351 0.016773
C70   C     C_R   0.589677 0.982539 0.051649 0.016772
C71   C     C_R   0.017461 0.607137 0.448351 0.016772
C72   C     C_R   0.392862 0.410323 0.051649 0.016772
C73   C     C_R   0.971210 0.390410 0.897870 -0.128095
C74   C     C_R   0.419200 0.028790 0.602129 -0.128095
C75   C     C_R   0.609590 0.580800 0.897870 -0.128095
C76   C     C_R   0.971210 0.390410 0.602130 -0.128095
C77   C     C_R   0.419200 0.028790 0.897870 -0.128095
C78   C     C_R   0.609590 0.580800 0.602130 -0.128095
C79   C     C_R   0.390410 0.971210 0.397870 -0.128094
C80   C     C_R   0.028790 0.419200 0.102130 -0.128095
C81   C     C_R   0.580800 0.609590 0.397870 -0.128095
C82   C     C_R   0.390410 0.971210 0.102130 -0.128095
C83   C     C_R   0.028790 0.419200 0.397870 -0.128095
C84   C     C_R   0.580800 0.609590 0.102130 -0.128095
C85   C     C_R   0.988081 0.399023 0.948652 0.013966
C86   C     C_R   0.410942 0.011919 0.551348 0.013966
C87   C     C_R   0.600977 0.589058 0.948652 0.013966
C88   C     C_R   0.988081 0.399023 0.551348 0.013966
C89   C     C_R   0.410942 0.011919 0.948652 0.013966
C90   C     C_R   0.600977 0.589058 0.551348 0.013966
C91   C     C_R   0.399023 0.988081 0.448652 0.013966
C92   C     C_R   0.011919 0.410942 0.051348 0.013966
C93   C     C_R   0.589058 0.600977 0.448652 0.013966
C94   C     C_R   0.399023 0.988081 0.051348 0.013966
C95   C     C_R   0.011919 0.410942 0.448652 0.013966
C96   C     C_R   0.589058 0.600977 0.051348 0.013966
C97   C     C_R   0.005104 0.311730 0.025583 -0.124244
C98   C     C_R   0.306626 0.994897 0.474417 -0.124244
C99   C     C_R   0.688271 0.693374 0.025583 -0.124245
C100  C     C_R   0.005104 0.311730 0.474417 -0.124244
C101  C     C_R   0.306626 0.994897 0.025583 -0.124244
C102  C     C_R   0.688271 0.693374 0.474417 -0.124245
C103  C     C_R   0.311730 0.005104 0.525583 -0.124244
C104  C     C_R   0.994897 0.306626 0.974417 -0.124244
C105  C     C_R   0.693374 0.688271 0.525583 -0.124245
C106  C     C_R   0.311730 0.005104 0.974417 -0.124245
C107  C     C_R   0.994897 0.306626 0.525583 -0.124245
C108  C     C_R   0.693374 0.688271 0.974417 -0.124245
Cr1   Cr    Cr6+3 0.487630 0.241180 0.750000 1.008713
Cr2   Cr    Cr6+3 0.753550 0.512370 0.750000 1.008713
Cr3   Cr    Cr6+3 0.758820 0.246450 0.750000 1.008712
Cr4   Cr    Cr6+3 0.241180 0.487630 0.250000 1.008713
Cr5   Cr    Cr6+3 0.512370 0.753550 0.250000 1.008713
Cr6   Cr    Cr6+3 0.246450 0.758820 0.250000 1.008712
H1    H     H_    0.016933 0.777428 0.044844 0.093828
H2    H     H_    0.760494 0.983066 0.455156 0.093828
H3    H     H_    0.222571 0.239505 0.044844 0.093828
H4    H     H_    0.016933 0.777428 0.455156 0.093828
H5    H     H_    0.760494 0.983066 0.044844 0.093828
H6    H     H_    0.222571 0.239505 0.455156 0.093828
H7    H     H_    0.777428 0.016933 0.544844 0.093828
H8    H     H_    0.983066 0.760494 0.955156 0.093828
H9    H     H_    0.239505 0.222571 0.544844 0.093828
H10   H     H_    0.777428 0.016933 0.955156 0.093828
H11   H     H_    0.983066 0.760494 0.544844 0.093828
H12   H     H_    0.239505 0.222571 0.955156 0.093828
H13   H     H_    0.035033 0.346857 0.120956 0.128968
H14   H     H_    0.311825 0.964968 0.379043 0.128967
H15   H     H_    0.653143 0.688176 0.120956 0.128967
H16   H     H_    0.035033 0.346857 0.379044 0.128967
H17   H     H_    0.311825 0.964967 0.120957 0.128968
H18   H     H_    0.653143 0.688176 0.379043 0.128967
H19   H     H_    0.346857 0.035033 0.620956 0.128967
H20   H     H_    0.964968 0.311825 0.879043 0.128968
H21   H     H_    0.688176 0.653143 0.620957 0.128967
H22   H     H_    0.346857 0.035033 0.879043 0.128967
H23   H     H_    0.964968 0.311825 0.620957 0.128968
H24   H     H_    0.688176 0.653143 0.879043 0.128967
O1    O     O_R   0.460870 0.120930 0.805240 -0.522762
O2    O     O_R   0.660060 0.539130 0.694760 -0.522761
O3    O     O_R   0.879070 0.339940 0.805240 -0.522761
O4    O     O_R   0.460870 0.120930 0.694760 -0.522762
O5    O     O_R   0.660060 0.539130 0.805240 -0.522761
O6    O     O_R   0.879070 0.339940 0.694760 -0.522761
O7    O     O_R   0.120930 0.460870 0.305240 -0.522762
O8    O     O_R   0.539130 0.660060 0.194760 -0.522762
O9    O     O_R   0.339940 0.879070 0.305240 -0.522761
O10   O     O_R   0.120930 0.460870 0.194760 -0.522762
O11   O     O_R   0.539130 0.660060 0.305240 -0.522762
O12   O     O_R   0.339940 0.879070 0.194760 -0.522761
O13   O     O_R   0.498910 0.350470 0.801870 -0.500413
O14   O     O_R   0.851560 0.501090 0.698130 -0.500413
O15   O     O_R   0.649530 0.148440 0.801870 -0.500413
O16   O     O_R   0.498910 0.350470 0.698130 -0.500413
O17   O     O_R   0.851560 0.501090 0.801870 -0.500413
O18   O     O_R   0.649530 0.148440 0.698130 -0.500413
O19   O     O_R   0.350470 0.498910 0.301870 -0.500413
O20   O     O_R   0.501090 0.851560 0.198130 -0.500413
O21   O     O_R   0.148440 0.649530 0.301870 -0.500413
O22   O     O_R   0.350470 0.498910 0.198130 -0.500413
O23   O     O_R   0.501090 0.851560 0.301870 -0.500413
O24   O     O_R   0.148440 0.649530 0.198130 -0.500413
O25   O     O_3   0.666667 0.333333 0.750000 -0.230057
O26   O     O_3   0.333333 0.666667 0.250000 -0.230057
H25   H     H_    0.056111 0.698266 0.122283 0.118454
H26   H     H_    0.642155 0.943889 0.377718 0.118454
H27   H     H_    0.301733 0.357844 0.122282 0.118454
H28   H     H_    0.056111 0.698266 0.377717 0.118454
H29   H     H_    0.642155 0.943888 0.122282 0.118454
H30   H     H_    0.301733 0.357844 0.377717 0.118454
H31   H     H_    0.698266 0.056111 0.622283 0.118454
H32   H     H_    0.943889 0.642155 0.877718 0.118454
H33   H     H_    0.357844 0.301733 0.622282 0.118454
H34   H     H_    0.698266 0.056111 0.877717 0.118454
H35   H     H_    0.943889 0.642155 0.622282 0.118454
H36   H     H_    0.357844 0.301733 0.877718 0.118454
H37   H     H_    0.009512 0.239036 0.044933 0.092905
H38   H     H_    0.229525 0.990489 0.455066 0.092905
H39   H     H_    0.760965 0.770476 0.044933 0.092905
H40   H     H_    0.009512 0.239036 0.455067 0.092905
H41   H     H_    0.229525 0.990489 0.044933 0.092905
H42   H     H_    0.760965 0.770476 0.455067 0.092905
H43   H     H_    0.239036 0.009512 0.544933 0.092905
H44   H     H_    0.990489 0.229525 0.955067 0.092905
H45   H     H_    0.770476 0.760965 0.544933 0.092905
H46   H     H_    0.239036 0.009512 0.955067 0.092905
H47   H     H_    0.990489 0.229525 0.544933 0.092905
H48   H     H_    0.770476 0.760965 0.955067 0.092905

loop_
_geom_bond_atom_site_label_1
_geom_bond_atom_site_label_2
_ccdc_geom_bond_type
C44   C49   A    
C4    O16   A    
C41   H34   S    
C74   H19   S    
C82   C94   A    
C85   C104  A    
C18   C21   A    
C2    O6    A    
C5    C56   S    
C3    O15   A    
C6    C55   S    
C79   H14   S    
C8    O20   A    
C45   H30   S    
C37   H32   S    
C12   C49   S    
C38   H31   S    
C76   H23   S    
C78   C90   A    
C31   C67   A    
C99   C108  A    
C20   C92   A    
C77   C89   A    
C73   H20   S    
C103  H43   S    
Cr1   O13   S    
C41   C58   A    
Cr2   O14   S    
C24   C96   A    
C27   H12   S    
Cr6   O24   S    
C9    O21   A    
C98   C103  A    
C14   C62   A    
C96   C99   A    
C107  H47   S    
C84   H15   S    
C11   O23   A    
Cr4   O7    S    
C102  C105  A    
C84   C96   A    
C105  H45   S    
Cr2   O17   S    
C58   C77   A    
C7    O11   A    
C55   C74   A    
C97   H37   S    
C48   C51   A    
C87   C108  A    
C94   C101  A    
C89   C106  A    
C19   C67   A    
Cr1   O4    S    
C77   H22   S    
Cr5   O20   S    
C6    O4    A    
C78   H21   S    
C76   C88   A    
C79   C91   A    
C13   C20   A    
C33   C69   A    
C32   C68   A    
C25   C32   A    
C35   C71   A    
C26   C31   A    
C91   C98   A    
C40   C59   A    
C50   C79   A    
C22   C94   A    
C9    C52   S    
C48   C72   A    
C86   C103  A    
C14   C19   A    
C42   C57   A    
C20   C68   A    
C92   C97   A    
C2    O14   A    
Cr4   O26   S    
C16   C88   A    
Cr4   O19   S    
C38   C55   A    
C45   C69   A    
C18   C90   A    
Cr5   O11   S    
C17   C89   A    
C28   C35   A    
C83   H16   S    
Cr1   O25   S    
C1    C60   S    
C88   C107  A    
C2    C59   S    
C81   H18   S    
C41   C65   A    
C5    O17   A    
Cr5   O23   S    
C29   C34   A    
C42   H33   S    
Cr4   O10   S    
C21   C69   A    
C53   C82   A    
C102  H42   S    
Cr5   O8    S    
C80   C92   A    
C52   C83   A    
C8    O12   A    
C99   H39   S    
C1    O5    A    
C23   C71   A    
C4    O2    A    
C81   C93   A    
Cr6   O26   S    
C83   C95   A    
Cr3   O25   S    
C25   C61   A    
C74   C86   A    
C36   H3    S    
Cr3   O15   S    
C14   C86   A    
C30   C66   A    
C106  H46   S    
C27   C63   A    
Cr3   O6    S    
C10   O8    A    
C29   C65   A    
C28   C64   A    
C75   C87   A    
C15   C24   A    
C26   H7    S    
C45   C54   A    
C16   C23   A    
C44   C68   A    
C3    O1    A    
C47   C71   A    
C100  H40   S    
C10   O22   A    
C31   H2    S    
C101  C106  A    
C101  H41   S    
C28   H11   S    
C24   C72   A    
C15   C87   A    
C98   H38   S    
C25   H8    S    
C43   H26   S    
C34   H5    S    
C34   C70   A    
C100  C107  A    
C15   C63   A    
C56   C73   A    
Cr4   O22   S    
C30   C33   A    
C104  H44   S    
C95   C100  A    
C93   C102  A    
C57   C78   A    
C108  H48   S    
Cr1   O16   S    
C5    O3    A    
C90   C105  A    
C39   H36   S    
C75   H24   S    
C8    C53   S    
Cr6   O9    S    
C40   H35   S    
C37   C61   A    
Cr2   O25   S    
C46   H29   S    
C43   C50   A    
C47   C52   A    
C7    O19   A    
C80   H13   S    
C27   C36   A    
C18   C66   A    
C39   C63   A    
C60   C75   A    
C17   C65   A    
C17   C22   A    
C40   C64   A    
C49   C80   A    
Cr1   O1    S    
C10   C51   S    
C12   O10   A    
Cr2   O2    S    
C26   C62   A    
C73   C85   A    
C11   C50   S    
Cr5   O26   S    
C47   H28   S    
C11   O9    A    
C48   H27   S    
C21   C93   A    
C39   C60   A    
C59   C76   A    
C46   C53   A    
C9    O7    A    
C23   C95   A    
C1    O13   A    
C44   H25   S    
C32   H1    S    
Cr2   O5    S    
Cr6   O21   S    
C46   C70   A    
C97   C104  A    
C19   C91   A    
Cr3   O3    S    
C12   O24   A    
C29   H10   S    
C3    C58   S    
Cr3   O18   S    
C13   C61   A    
C30   H9    S    
C33   H6    S    
C43   C67   A    
C13   C85   A    
C37   C56   A    
C42   C66   A    
Cr6   O12   S    
C35   H4    S    
C16   C64   A    
C7    C54   S    
C82   H17   S    
C51   C84   A    
C22   C70   A    
C54   C81   A    
C6    O18   A    
C36   C72   A    
C4    C57   S    
C38   C62   A    
