data_str_m2_o14_o16_f0_pcu.sym.54
_audit_creation_date              2012-10-26T19:04:43-0400
_audit_creation_method            fapswitch 2.2
_symmetry_space_group_name_H-M    P1
_symmetry_Int_Tables_number       1
_space_group_crystal_system       triclinic
_cell_length_a                    9.644533
_cell_length_b                    10.865014
_cell_length_c                    13.340065
_cell_angle_alpha                 95.709602
_cell_angle_beta                  73.608542
_cell_angle_gamma                 89.796957
_cell_volume                      1333.67792097

loop_
_atom_site_label
_atom_site_type_symbol
_atom_type_description
_atom_site_fract_x
_atom_site_fract_y
_atom_site_fract_z
_atom_type_partial_charge
C1    C     C_R   0.501619 0.736833 0.493078 0.535384
C2    C     C_R   0.391201 0.433450 0.801552 -0.055833
C3    C     C_R   0.252126 0.887303 0.463622 -0.123280
C4    C     C_R   0.425622 0.480715 0.696387 0.574026
C5    C     C_R   0.117784 0.949800 0.496739 -0.142532
C6    C     C_R   0.100461 0.061482 0.561390 0.142393
C7    C     C_R   0.224061 0.122395 0.571923 -0.049286
C8    C     C_R   0.362826 0.065804 0.526526 -0.012767
C9    C     C_R   0.372153 0.939018 0.491241 0.013640
C10   C     C_R   0.500853 0.870930 0.485406 0.006089
C11   C     C_R   0.626142 0.934966 0.486922 -0.157065
C12   C     C_R   0.455881 0.412624 0.963593 -0.034993
C13   C     C_R   0.623268 0.063019 0.496739 -0.162903
C14   C     C_R   0.492627 0.130009 0.515469 -0.000231
C15   C     C_R   0.912382 0.294266 0.383384 0.177153
C16   C     C_R   0.496924 0.263551 0.507513 0.524028
C17   C     C_R   0.004043 0.188262 0.358657 -0.149231
C18   C     C_R   0.148560 0.200354 0.349441 -0.178364
C19   C     C_R   0.196991 0.313347 0.379486 -0.040238
C20   C     C_R   0.099738 0.407084 0.440583 0.117820
C21   C     C_R   0.950036 0.403016 0.441621 0.182210
C22   C     C_R   0.903745 0.591615 0.555447 0.255970
C23   C     C_R   0.499563 0.417934 0.853841 -0.082880
C24   C     C_R   0.050895 0.588348 0.559248 0.242746
C25   C     C_R   0.576328 0.505944 0.300259 0.569994
C26   C     C_R   0.803667 0.499324 0.018694 -0.081345
C27   C     C_R   0.617365 0.506953 0.184847 0.000814
C28   C     C_R   0.248956 0.401874 0.851956 0.329114
C29   C     C_R   0.215272 0.361143 0.951636 0.398638
C30   C     C_R   0.318046 0.364555 0.008168 0.188952
C31   C     C_3   0.922924 0.121650 0.726883 -0.260805
C32   C     C_3   0.737441 0.704643 0.712824 -0.255373
C33   C     C_3   0.875135 0.294444 0.212681 -0.239512
C34   C     C_R   0.556340 0.446842 0.021193 0.025014
C35   C     C_3   0.066354 0.661554 0.734852 -0.240441
C36   C     C_3   0.381875 0.194647 0.096162 -0.293033
C37   C     C_R   0.704139 0.455753 0.965884 -0.127500
C38   C     C_R   0.750133 0.421121 0.858085 -0.120791
C39   C     C_R   0.649269 0.399942 0.802225 0.365037
C40   C     C_R   0.513468 0.480420 0.130505 0.331282
C41   C     C_R   0.759937 0.527646 0.127356 0.305723
Cu1   Cu    Cu3+1 0.359340 0.500010 0.500010 1.004014
Cu2   Cu    Cu3+1 0.640660 0.499990 0.499990 1.074377
F1    F     F_    0.856936 0.574851 0.176140 -0.621228
F2    F     F_    0.371054 0.499333 0.182892 -0.608124
F3    F     F_    0.145511 0.397898 0.801061 -0.667655
F4    F     F_    0.083416 0.314030 0.991546 -0.657355
F5    F     F_    0.698955 0.347376 0.701558 -0.622779
H1    H     H_    0.260098 0.799386 0.416444 0.173510
H2    H     H_    0.727507 0.886310 0.478525 0.138395
H3    H     H_    0.879568 0.073678 0.585473 0.249588
H4    H     H_    0.932081 0.028569 0.752842 0.120116
H5    H     H_    0.809677 0.156997 0.761239 0.187709
H6    H     H_    0.994643 0.185980 0.756960 0.213546
H7    H     H_    0.855388 0.780492 0.578192 0.209462
H8    H     H_    0.619547 0.714944 0.723646 0.166113
H9    H     H_    0.770016 0.787532 0.755364 0.099717
H10   H     H_    0.759714 0.621359 0.747867 0.154694
H11   H     H_    0.744122 0.220236 0.335748 0.230387
H12   H     H_    0.025843 0.906960 0.478037 0.092821
H13   H     H_    0.789037 0.297459 0.172757 0.141766
H14   H     H_    0.940092 0.207664 0.179247 0.140320
H15   H     H_    0.945708 0.374497 0.196343 0.256818
H16   H     H_    0.073082 0.769643 0.615362 0.232492
H17   H     H_    0.985828 0.732161 0.783965 0.092174
H18   H     H_    0.165681 0.673328 0.760511 0.179345
H19   H     H_    0.023626 0.568598 0.749888 0.200461
H20   H     H_    0.183506 0.293317 0.140936 0.286478
H21   H     H_    0.429816 0.205700 0.162857 0.140775
H22   H     H_    0.471334 0.181052 0.021825 0.141192
H23   H     H_    0.210317 0.211904 0.617528 0.192745
H24   H     H_    0.316512 0.110282 0.102266 0.134621
H25   H     H_    0.723664 0.109595 0.489816 0.144656
H26   H     H_    0.970427 0.102623 0.324924 0.115564
H27   H     H_    0.224424 0.124227 0.312762 0.124787
H28   H     H_    0.311257 0.322656 0.355465 0.195471
H29   H     H_    0.864117 0.412268 0.816468 0.187040
H30   H     H_    0.915277 0.511865 0.975712 0.207326
N1    N     N_R   0.852480 0.498790 0.499000 -0.195779
N2    N     N_R   0.148360 0.498710 0.498970 -0.233756
N3    N     N_2   0.959941 0.113530 0.613394 -0.487747
N4    N     N_2   0.813229 0.697838 0.602043 -0.472298
N5    N     N_2   0.810224 0.295031 0.324800 -0.465263
N6    N     N_2   0.098303 0.680517 0.624735 -0.468895
N7    N     N_2   0.290280 0.302524 0.100815 -0.423001
O1    O     O_R   0.381190 0.680360 0.500010 -0.496299
O2    O     O_R   0.618760 0.680340 0.500000 -0.480861
O3    O     O_R   0.323240 0.499990 0.650990 -0.446389
O4    O     O_R   0.560820 0.499960 0.650980 -0.443189
O5    O     O_R   0.381240 0.319660 0.500000 -0.555500
O6    O     O_R   0.618810 0.319640 0.499990 -0.458592
O7    O     O_R   0.439180 0.500040 0.349020 -0.475877
O8    O     O_R   0.676760 0.500010 0.349010 -0.425519

loop_
_geom_bond_atom_site_label_1
_geom_bond_atom_site_label_2
_ccdc_geom_bond_type
C1    O2    A    
C16   O5    A    
C18   H27   S    
C34   C37   A    
C19   C20   A    
C32   H10   S    
C31   H4    S    
C3    H1    S    
C7    C8    A    
C25   O8    A    
C12   C23   A    
C28   F3    S    
Cu2   O4    S    
C29   F4    S    
C34   C40   A    
C22   N4    S    
C28   C29   A    
H11   N5    S    
C22   N1    A    
C7    H23   S    
C5    C6    A    
C35   H17   S    
Cu2   N1    S    
C18   C19   A    
H16   N6    S    
C24   N2    A    
C33   H14   S    
Cu1   O1    S    
C29   C30   A    
C9    C10   A    
H3    N3    S    
Cu1   O7    S    
C6    N3    S    
C13   C14   A    
H20   N7    S    
C32   H9    S    
C36   H22   S    
C40   F2    S    
C20   N2    A    
C8    C9    A    
C15   N5    S    
C35   H18   S    
Cu2   O6    S    
C30   N7    S    
C2    C4    S    
C37   C38   A    
C3    C9    A    
C27   C41   A    
C35   H19   S    
C27   C40   A    
C33   H15   S    
C21   N1    A    
C17   C18   A    
C26   H30   S    
C31   H5    S    
H7    N4    S    
C33   N5    S    
C13   H25   S    
C17   H26   S    
C41   F1    S    
C14   C16   S    
Cu1   O3    S    
Cu1   Cu2   S    
C12   C34   A    
C2    C23   A    
C36   H21   S    
C4    O4    A    
C1    O1    A    
C15   C17   A    
C19   H28   S    
C25   O7    A    
C8    C14   A    
C5    H12   S    
C12   C30   A    
C1    C10   S    
C3    C5    A    
C35   N6    S    
C26   C37   A    
C6    C7    A    
C4    O3    A    
C38   H29   S    
C36   N7    S    
C25   C27   S    
C32   N4    S    
C31   N3    S    
Cu2   O2    S    
C24   N6    S    
C11   H2    S    
C11   C13   A    
C38   C39   A    
C23   C39   A    
Cu2   O8    S    
C22   C24   A    
C31   H6    S    
C10   C11   A    
C15   C21   A    
C20   C21   A    
C16   O6    A    
C33   H13   S    
Cu1   N2    S    
C2    C28   A    
Cu1   O5    S    
C32   H8    S    
C36   H24   S    
C26   C41   A    
C39   F5    S    
