data_str_m3_o10_o29_f0_pcu.sym.213
_audit_creation_date              2013-03-05T15:42:41-0500
_audit_creation_method            fapswitch 2.2
_symmetry_space_group_name_H-M    P1
_symmetry_Int_Tables_number       1
_space_group_crystal_system       triclinic
_cell_length_a                    7.728779
_cell_length_b                    8.678607
_cell_length_c                    27.665248
_cell_angle_alpha                 90.927087
_cell_angle_beta                  86.652363
_cell_angle_gamma                 93.712794
_cell_volume                      1848.44983721

loop_
_atom_site_label
_atom_site_type_symbol
_atom_site_description
_atom_site_fract_x
_atom_site_fract_y
_atom_site_fract_z
_atom_type_partial_charge
O1    O     O_R   0.389250 0.738570 0.503220 -0.581972
O2    O     O_R   0.610750 0.261430 0.496780 -0.581970
O3    O     O_R   0.678390 0.711630 0.494810 -0.592332
O4    O     O_R   0.321610 0.288370 0.505190 -0.592372
C1    C     C_R   0.545256 0.794023 0.498769 0.910613
C2    C     C_R   0.454744 0.205977 0.501233 0.910742
O5    O     O_R   0.355440 0.513440 0.575450 -0.608520
O6    O     O_R   0.644560 0.486560 0.424550 -0.608492
O7    O     O_R   0.644590 0.486500 0.567040 -0.606781
O8    O     O_R   0.355410 0.513500 0.432960 -0.606747
C3    C     C_R   0.503024 0.496382 0.593794 0.923099
C4    C     C_R   0.496976 0.503622 0.406205 0.922972
Zn1   Zn    Zn3+2 0.306940 0.517990 0.505620 1.092872
Zn2   Zn    Zn3+2 0.693060 0.482010 0.494380 1.092882
C5    C     C_R   0.614358 0.612581 0.821332 0.559695
C6    C     C_R   0.385674 0.387413 0.178666 0.559700
O9    O     O_2   0.690848 0.732798 0.796034 -0.491528
O10   O     O_2   0.309207 0.267187 0.203964 -0.491504
N1    N     N_R   0.538712 0.489620 0.797565 -0.360032
N2    N     N_R   0.461310 0.510378 0.202433 -0.360053
C7    C     C_R   0.464762 0.363313 0.821471 0.566868
C8    C     C_R   0.535243 0.636693 0.178529 0.566871
C9    C     C_R   0.636622 0.397123 0.717633 -0.141014
C10   C     C_R   0.363197 0.602694 0.282366 -0.141052
C11   C     C_R   0.624769 0.391676 0.667519 0.273471
C12   C     C_R   0.375028 0.608137 0.332480 0.273495
C13   C     C_R   0.408497 0.585223 0.675264 -0.203819
C14   C     C_R   0.591707 0.414955 0.324728 -0.203637
C15   C     C_R   0.419870 0.587447 0.725146 -0.051162
C16   C     C_R   0.580345 0.412728 0.274846 -0.051238
C17   C     C_R   0.533957 0.493604 0.746224 0.218437
C18   C     C_R   0.466066 0.506391 0.253773 0.218539
C19   C     C_R   0.532936 0.487282 0.897716 -0.092051
C20   C     C_R   0.467084 0.512719 0.102283 -0.092048
C21   C     C_R   0.610628 0.614897 0.871830 -0.012006
C22   C     C_R   0.389397 0.385101 0.128168 -0.012019
C23   C     C_R   0.682979 0.741967 0.896680 -0.048716
C24   C     C_R   0.317045 0.258031 0.103318 -0.048720
C25   C     C_R   0.468547 0.355240 0.872174 -0.149996
C26   C     C_R   0.531467 0.644764 0.127825 -0.150019
C27   C     C_R   0.511150 0.488941 0.646154 -0.151825
C28   C     C_R   0.488847 0.511058 0.353843 -0.151858
H1    H     H_    0.321280 0.660263 0.659306 0.197815
H2    H     H_    0.679079 0.340053 0.340682 0.197818
H3    H     H_    0.339422 0.661150 0.747531 0.183058
H4    H     H_    0.660947 0.339164 0.252458 0.182972
H5    H     H_    0.749205 0.838590 0.877486 0.220121
H6    H     H_    0.250821 0.161408 0.122512 0.220120
C29   C     C_R   0.559820 0.635707 0.025184 -0.004187
C30   C     C_R   0.440198 0.364295 0.974815 -0.004187
C31   C     C_R   0.417704 0.372737 0.025999 0.076847
C32   C     C_R   0.582316 0.627265 0.973999 0.076846
C33   C     C_R   0.481446 0.507197 0.050965 0.084090
C34   C     C_R   0.518572 0.492804 0.949034 0.084088
C35   C     C_R   0.607373 0.771301 0.051438 -0.283181
C36   C     C_R   0.392645 0.228701 0.948561 -0.283187
C37   C     C_R   0.593306 0.777707 0.101815 0.351629
C38   C     C_R   0.406709 0.222296 0.898183 0.351639
O11   O     O_2   0.617607 0.750437 0.203878 -0.460905
O12   O     O_2   0.382368 0.249580 0.796124 -0.460952
C39   C     C_R   0.670461 0.747875 0.946744 -0.204020
C40   C     C_R   0.329560 0.252126 0.053254 -0.204022
H7    H     H_    0.278504 0.677228 0.265187 0.193942
H8    H     H_    0.721159 0.322454 0.734815 0.194032
H9    H     H_    0.649458 0.877988 0.033805 0.175152
H10   H     H_    0.350562 0.122013 0.966193 0.175154
H11   H     H_    0.733938 0.848479 0.962826 0.157530
H12   H     H_    0.266082 0.151523 0.037172 0.157531
C41   C     C_2   0.569636 0.955645 0.496743 0.016482
C42   C     C_2   0.430369 0.044356 0.503268 0.016532
N3    N     N_2   0.950320 0.457960 0.486880 -0.130699
N4    N     N_2   0.049680 0.542040 0.513120 -0.130711
H13   H     H_    0.014093 0.383347 0.463850 0.223994
H14   H     H_    0.985907 0.616653 0.536149 0.223989
N5    N     N_R   0.278855 0.718044 0.360530 0.228338
O13   O     O_R   0.124743 0.749431 0.348558 -0.323143
O14   O     O_R   0.355552 0.805227 0.392600 -0.351800
N6    N     N_R   0.720687 0.281580 0.639474 0.228346
O15   O     O_R   0.874599 0.249735 0.651491 -0.322974
O16   O     O_R   0.643867 0.194654 0.607365 -0.352043
N7    N     N_R   0.632453 0.923518 0.125381 0.241877
O17   O     O_R   0.769892 0.008958 0.111051 -0.383520
O18   O     O_R   0.514770 0.983940 0.153998 -0.330389
N8    N     N_R   0.367568 0.076485 0.874617 0.241878
O19   O     O_R   0.230139 0.991035 0.888949 -0.383516
O20   O     O_R   0.485247 0.016073 0.845996 -0.330425
N9    N     N_R   0.745406 0.016353 0.486933 0.231472
O21   O     O_R   0.812091 0.019657 0.442659 -0.312481
O22   O     O_R   0.843617 0.050592 0.522679 -0.251355
N10   N     N_R   0.254603 0.983648 0.513086 0.231457
O23   O     O_R   0.187952 0.980318 0.557363 -0.312452
O24   O     O_R   0.156361 0.949436 0.477345 -0.251375

loop_
_geom_bond_atom_site_label_1
_geom_bond_atom_site_label_2
_geom_bond_distance
_ccdc_geom_bond_type
N9    O21   1.300823 A    
C13   C15   1.387632 A    
Zn2   N3    2.011004 S    
N5    O13   1.301404 A    
N1    C17   1.424013 S    
N7    O17   1.301404 A    
O2    C2    1.268856 A    
C5    N1    1.361731 A    
C19   C25   1.414624 A    
O1    C1    1.268856 A    
C21   C23   1.393549 A    
C10   C12   1.394592 A    
C32   C39   1.414734 A    
N6    O16   1.301005 A    
C2    C42   1.404696 S    
O4    Zn1   2.003126 S    
C13   C27   1.402037 A    
C1    C41   1.404693 S    
C35   H9    1.076161 S    
C14   C16   1.387644 A    
C4    C28   1.456278 S    
C36   H10   1.076160 S    
C23   H5    1.083604 S    
C24   H6    1.083604 S    
C41   N9    1.437225 S    
C6    N2    1.361720 A    
C42   N10   1.437222 S    
C31   C40   1.414732 A    
C5    C21   1.395502 A    
N7    O18   1.301260 A    
C32   C34   1.421503 A    
C30   C31   1.417852 A    
C11   N6    1.437041 S    
N8    O19   1.301403 A    
C7    O12   1.349016 S    
O4    C2    1.289055 A    
C11   C27   1.416269 A    
C8    O11   1.349016 S    
N3    H13   1.029305 S    
N6    O15   1.301418 A    
C29   C35   1.412407 A    
C25   C38   1.411614 A    
C14   H2    1.083654 S    
C30   C36   1.412408 A    
C15   H3    1.083034 S    
C31   C33   1.421503 A    
C9    C17   1.395580 A    
O5    C3    1.293225 A    
O7    Zn2   2.023360 S    
C10   C18   1.395563 A    
C38   N8    1.436894 S    
N5    O14   1.301007 A    
C39   H11   1.076274 S    
N10   O24   1.300522 A    
C7    C25   1.407694 A    
O6    C4    1.293242 A    
C29   C32   1.417853 A    
C8    C26   1.407698 A    
C12   N5    1.437013 S    
C30   C34   1.416778 A    
O7    C3    1.291446 A    
O3    Zn2   2.003126 S    
O8    C4    1.291452 A    
N4    H14   1.029306 S    
C9    H8    1.083443 S    
N2    C8    1.365211 A    
C10   H7    1.083450 S    
C35   C37   1.392095 A    
C37   N7    1.436891 S    
O1    Zn1   1.978690 S    
C12   C28   1.416259 A    
N2    C18   1.423985 S    
C19   C34   1.417855 A    
C5    O9    1.350269 S    
O6    Zn2   1.990760 S    
C26   C37   1.411615 A    
N1    C7    1.365222 A    
C16   H4    1.083023 S    
N8    O20   1.301259 A    
O3    C1    1.289052 A    
O8    Zn1   2.023360 S    
C23   C39   1.383129 A    
Zn1   N4    2.011005 S    
C40   H12   1.076273 S    
C22   C24   1.393545 A    
N3    N4    1.274579 D    
C15   C17   1.396155 A    
C6    C22   1.395498 A    
C16   C18   1.396141 A    
N10   O23   1.300825 A    
C29   C33   1.416778 A    
C14   C28   1.402053 A    
C19   C21   1.410437 A    
C36   C38   1.392095 A    
C3    C27   1.456232 S    
C20   C22   1.410440 A    
C9    C11   1.394601 A    
C41   C42   1.365287 D    
O2    Zn2   1.978690 S    
C13   H1    1.083663 S    
O5    Zn1   1.990760 S    
C20   C33   1.417852 A    
C6    O10   1.350270 S    
N9    O22   1.300526 A    
C20   C26   1.414633 A    
C24   C40   1.383126 A    
