data_str_m2_o16_o18_f0_pcu.sym.226
_audit_creation_date              2012-12-10T17:33:01-0500
_audit_creation_method            fapswitch 2.2
_symmetry_space_group_name_H-M    P1
_symmetry_Int_Tables_number       1
_space_group_crystal_system       triclinic
_cell_length_a                    12.491281
_cell_length_b                    13.166395
_cell_length_c                    14.442943
_cell_angle_alpha                 94.162824
_cell_angle_beta                  108.929073
_cell_angle_gamma                 117.477447
_cell_volume                      1922.24803535

loop_
_atom_site_label
_atom_site_type_symbol
_atom_type_description
_atom_site_fract_x
_atom_site_fract_y
_atom_site_fract_z
_atom_type_partial_charge
C1    C     C_R   0.654866 0.715738 0.514780 0.761140
C2    C     C_R   0.896052 0.561555 0.924561 0.053529
C3    C     C_R   0.855254 0.586971 0.999946 0.104747
C4    C     C_R   0.011067 0.551923 0.952925 0.075087
C5    C     C_R   0.086599 0.572718 0.057569 0.072612
C6    C     C_R   0.053883 0.615851 0.130289 -0.230724
C7    C     C_R   0.938667 0.619320 0.102100 -0.187223
C8    C     C_R   0.048665 0.515378 0.880132 -0.213973
C9    C     C_R   0.148492 0.489442 0.908206 -0.205983
C10   C     C_R   0.213136 0.496820 0.009155 0.133137
C11   C     C_R   0.186575 0.542420 0.085482 0.090953
C12   C     C_R   0.620224 0.518338 0.686549 0.794115
C13   C     C_R   0.300607 0.454545 0.034050 -0.139943
C14   C     C_R   0.356423 0.450503 0.133218 -0.119457
C15   C     C_R   0.253573 0.546645 0.186289 -0.253068
C16   C     C_R   0.069816 0.979793 0.313895 -0.202286
C17   C     C_R   0.237195 0.159003 0.448522 -0.126191
C18   C     C_R   0.781748 0.921976 0.621285 -0.272105
C19   C     C_R   0.881557 0.039597 0.648989 -0.133213
C20   C     C_R   0.961663 0.079698 0.595753 0.225402
C21   C     C_R   0.943648 0.997896 0.513194 0.027473
C22   C     C_R   0.828290 0.882223 0.476580 0.042377
C23   C     C_R   0.342619 0.284186 0.480871 0.842599
C24   C     C_R   0.031623 0.025253 0.463318 0.090207
C25   C     C_R   0.990168 0.949044 0.368488 0.085900
C26   C     C_R   0.869065 0.843257 0.328185 -0.203581
C27   C     C_R   0.790396 0.808966 0.382105 -0.166600
C28   C     C_R   0.161550 0.122579 0.505964 -0.246330
C29   C     C_R   0.189759 0.086824 0.350932 0.238619
C30   C     C_R   0.751602 0.842664 0.534322 -0.092654
C31   C     C_R   0.251806 0.677716 0.670519 -0.301009
C32   C     C_R   0.646102 0.328104 0.373456 0.065230
C33   C     C_R   0.709041 0.264199 0.372101 0.024113
C34   C     C_R   0.385067 0.488084 0.314329 0.810768
C35   C     C_R   0.842687 0.317474 0.435688 -0.199088
C36   C     C_R   0.917857 0.438488 0.488945 -0.024143
C37   C     C_R   0.842740 0.489263 0.502191 0.272122
C38   C     C_R   0.061445 0.507580 0.537644 0.008547
C39   C     C_R   0.117021 0.607650 0.618213 0.115444
C40   C     C_R   0.038740 0.644510 0.642598 -0.284020
C41   C     C_R   0.905597 0.590454 0.582269 -0.180469
C42   C     C_R   0.152461 0.490015 0.505662 0.251350
C43   C     C_R   0.337834 0.663018 0.637099 0.277419
C44   C     C_R   0.696603 0.537266 0.794429 -0.109341
C45   C     C_R   0.330479 0.494138 0.209506 -0.072528
C46   C     C_R   0.731660 0.579446 0.971046 0.250519
C47   C     C_R   0.652306 0.551962 0.868648 -0.213735
C48   C     C_R   0.817556 0.542562 0.822830 -0.250518
Cu1   Cu    Cu3+1 0.416420 0.526630 0.522910 0.938757
Cu2   Cu    Cu3+1 0.583580 0.473370 0.477090 0.949884
H1    H     H_    0.915537 0.647115 0.161669 0.182292
H2    H     H_    0.321255 0.419730 0.975921 0.168707
H3    H     H_    0.836520 0.785278 0.255560 0.194150
H4    H     H_    0.035447 0.923435 0.239665 0.175224
H5    H     H_    0.206355 0.172716 0.583854 0.202958
H6    H     H_    0.729612 0.893156 0.669448 0.159737
H7    H     H_    0.896813 0.100435 0.713149 0.176227
H8    H     H_    0.697469 0.725570 0.347389 0.174545
H9    H     H_    0.245667 0.587852 0.248440 0.152504
H10   H     H_    0.082534 0.721600 0.705014 0.159136
H11   H     H_    0.291002 0.752916 0.733522 0.150043
H12   H     H_    0.542148 0.287087 0.328374 0.183418
H13   H     H_    0.882050 0.260387 0.449168 0.183531
H14   H     H_    0.854347 0.628284 0.602798 0.198796
H15   H     H_    0.418827 0.412434 0.149898 0.184932
H16   H     H_    0.170459 0.457410 0.849554 0.186908
H17   H     H_    0.556140 0.542413 0.847325 0.180990
H18   H     H_    0.849266 0.533137 0.763741 0.164369
H19   H     H_    0.113708 0.645424 0.210433 0.138537
H20   H     H_    0.999760 0.500450 0.799738 0.165339
N1    N     N_R   0.290690 0.566960 0.557640 -0.196358
N2    N     N_R   0.709100 0.433710 0.442970 -0.223027
O1    O     O_R   0.545970 0.684450 0.528810 -0.588688
O2    O     O_R   0.687130 0.639470 0.490120 -0.593252
O3    O     O_R   0.519670 0.535100 0.660030 -0.575998
O4    O     O_R   0.660830 0.490120 0.621340 -0.592980
O5    O     O_R   0.312870 0.360530 0.509880 -0.575112
O6    O     O_R   0.454030 0.315550 0.471190 -0.548336
O7    O     O_R   0.339170 0.509880 0.378660 -0.605863
O8    O     O_R   0.480330 0.464900 0.339970 -0.569123
Br1   Br    Br    0.273840 0.133875 0.259257 -0.611900
Br2   Br    Br    0.071143 0.250225 0.631388 -0.639194
C49   C     C_3   0.476802 0.770316 0.682304 -0.379166
C50   C     C_3   0.571937 0.760107 0.775049 -0.312175
C51   C     C_3   0.659307 0.875110 0.860470 -0.853214
H21   H     H_    0.717318 0.949720 0.833009 0.248985
H22   H     H_    0.597869 0.896639 0.889345 0.258292
H23   H     H_    0.728765 0.864157 0.924008 0.267870
H24   H     H_    0.515456 0.688705 0.805839 0.235764
H25   H     H_    0.638052 0.739818 0.752483 0.225676
H26   H     H_    0.514233 0.796708 0.624328 0.202080
H27   H     H_    0.472534 0.850243 0.706360 0.172242
C52   C     C_3   0.094277 0.395817 0.406731 -0.327121
C53   C     C_3   0.024451 0.425130 0.312857 -0.408879
C54   C     C_3   0.975416 0.333530 0.215092 -0.806102
H28   H     H_    0.058841 0.330037 0.206396 0.265912
H29   H     H_    0.902918 0.244219 0.216247 0.252350
H30   H     H_    0.926809 0.357782 0.148822 0.254782
H31   H     H_    0.939207 0.429300 0.315704 0.235361
H32   H     H_    0.094449 0.514116 0.310639 0.217937
H33   H     H_    0.164427 0.380574 0.391174 0.257894
H34   H     H_    0.033677 0.305746 0.410835 0.178858
C55   C     C_3   0.631395 0.136749 0.309890 -0.404352
C56   C     C_3   0.582841 0.127964 0.195894 -0.340970
C57   C     C_3   0.509724 0.999539 0.133147 -0.791270
H35   H     H_    0.576211 0.963033 0.150529 0.253981
H36   H     H_    0.422593 0.944012 0.149613 0.267169
H37   H     H_    0.475293 0.995769 0.051091 0.240523
H38   H     H_    0.515055 0.162985 0.174945 0.241563
H39   H     H_    0.668248 0.181927 0.176996 0.225188
H40   H     H_    0.693237 0.095455 0.328293 0.205868
H41   H     H_    0.545755 0.085856 0.329525 0.224029
Br3   Br    Br    0.661289 0.598994 0.066609 -0.645456

loop_
_geom_bond_atom_site_label_1
_geom_bond_atom_site_label_2
_ccdc_geom_bond_type
C6    H19   S    
C52   C53   S    
C40   H10   S    
C20   Br2   S    
C42   C52   S    
C17   C29   A    
C31   H11   S    
C35   C36   A    
C4    C8    A    
C54   H30   S    
C32   N2    A    
C51   H21   S    
C19   H7    S    
C49   H27   S    
C57   H36   S    
C26   C27   A    
C17   C23   S    
C31   C43   A    
C1    O2    A    
C36   C37   A    
C5    C11   A    
C3    C7    A    
Cu2   O2    S    
C38   C39   A    
C43   C49   S    
C55   H40   S    
C18   C19   A    
Cu2   N2    S    
C9    H16   S    
C1    C30   S    
C34   O8    A    
C11   C15   A    
C50   C51   S    
C19   C20   A    
C31   C39   A    
C8    C9    A    
Cu1   O3    S    
C18   C30   A    
C9    C10   A    
C44   C47   A    
C18   H6    S    
C21   C22   A    
C37   N2    A    
C50   H25   S    
Cu2   O6    S    
C47   H17   S    
C56   C57   S    
C28   H5    S    
C14   C45   A    
C51   H22   S    
C57   H37   S    
C24   C25   A    
C52   H33   S    
C39   C40   A    
C2    C48   A    
C16   C29   A    
C27   H8    S    
C48   H18   S    
Cu1   O7    S    
C55   H41   S    
C2    C4    A    
C29   Br1   S    
Cu2   O4    S    
C34   O7    A    
C13   H2    S    
C49   C50   S    
C53   H32   S    
C34   C45   S    
C23   O5    A    
C40   C41   A    
C22   C27   A    
C12   O4    A    
Cu1   O1    S    
C21   C24   A    
C50   H24   S    
C15   C45   A    
C26   H3    S    
C55   C56   S    
C51   H23   S    
C16   C25   A    
C46   C47   A    
C43   N1    A    
C22   C30   A    
C46   Br3   S    
C33   C55   S    
C17   C28   A    
C15   H9    S    
C24   C28   A    
C4    C5    A    
C10   C13   A    
Cu2   O8    S    
C52   H34   S    
C54   H29   S    
C38   C42   A    
C6    C7    A    
C49   H26   S    
C57   H35   S    
C3    C46   A    
C8    H20   S    
C1    O1    A    
C32   C33   A    
C36   C38   A    
C2    C3    A    
C25   C26   A    
C7    H1    S    
C12   C44   S    
C56   H39   S    
C5    C6    A    
C53   H31   S    
C42   N1    A    
C33   C35   A    
C14   H15   S    
Cu1   O5    S    
C23   O6    A    
C37   C41   A    
C53   C54   S    
C16   H4    S    
C10   C11   A    
C32   H12   S    
C20   C21   A    
Cu1   Cu2   S    
Cu1   N1    S    
C12   O3    A    
C54   H28   S    
C56   H38   S    
C35   H13   S    
C41   H14   S    
C13   C14   A    
C44   C48   A    
