data_str_m2_o10_o28_f0_pcu.sym.256
_audit_creation_date              2013-03-05T15:41:54-0500
_audit_creation_method            fapswitch 2.2
_symmetry_space_group_name_H-M    P1
_symmetry_Int_Tables_number       1
_space_group_crystal_system       triclinic
_cell_length_a                    23.467899
_cell_length_b                    8.747906
_cell_length_c                    7.426515
_cell_angle_alpha                 102.769033
_cell_angle_beta                  93.973127
_cell_angle_gamma                 92.512936
_cell_volume                      1480.60229004

loop_
_atom_site_label
_atom_site_type_symbol
_atom_site_description
_atom_site_fract_x
_atom_site_fract_y
_atom_site_fract_z
_atom_type_partial_charge
O1    O     O_R   0.504120 0.286130 0.619770 -0.584171
O2    O     O_R   0.495880 0.713870 0.380230 -0.584200
O3    O     O_R   0.493410 0.256770 0.308360 -0.570453
O4    O     O_R   0.506590 0.743230 0.691640 -0.570457
C1    C     C_R   0.497104 0.200425 0.454450 0.835718
C2    C     C_R   0.502896 0.799575 0.545549 0.835718
O5    O     O_R   0.423230 0.514630 0.655730 -0.586044
O6    O     O_R   0.576770 0.485370 0.344270 -0.585982
O7    O     O_R   0.412530 0.485280 0.344320 -0.581559
O8    O     O_R   0.587470 0.514720 0.655680 -0.581465
C3    C     C_R   0.391056 0.500509 0.502865 0.802927
C4    C     C_R   0.608940 0.499499 0.497134 0.802784
Cu1   Cu    Cu3+1 0.506340 0.517380 0.684380 0.984825
Cu2   Cu    Cu3+1 0.493660 0.482620 0.315620 0.984806
C5    C     C_R   0.883151 0.631908 0.569271 0.615110
C6    C     C_R   0.116832 0.368236 0.430577 0.615368
N1    N     N_R   0.851421 0.496911 0.487434 -0.486913
N2    N     N_R   0.148563 0.503236 0.512391 -0.486900
C7    C     C_R   0.876232 0.362022 0.410120 0.581394
C8    C     C_R   0.123752 0.638129 0.589698 0.581496
C9    C     C_R   0.936441 0.357037 0.419026 -0.121046
C10   C     C_R   0.063543 0.643104 0.580833 -0.121036
C11   C     C_R   0.969814 0.498200 0.498098 -0.054069
C12   C     C_R   0.030170 0.501943 0.501752 -0.054060
C13   C     C_R   0.942910 0.635988 0.573878 -0.056634
C14   C     C_R   0.057074 0.364157 0.425972 -0.056711
C15   C     C_R   0.964497 0.218277 0.348476 0.330618
C16   C     C_R   0.035488 0.781852 0.651430 0.330668
C17   C     C_R   0.024086 0.224614 0.349470 -0.130167
C18   C     C_R   0.975900 0.775523 0.650415 -0.130189
O9    O     O_2   0.856733 0.761980 0.644977 -0.464763
O10   O     O_2   0.143251 0.238157 0.354911 -0.464598
O11   O     O_2   0.842401 0.235252 0.322207 -0.451821
O12   O     O_2   0.157583 0.764920 0.677543 -0.451761
H1    H     H_    0.044647 0.117518 0.294673 0.238718
H2    H     H_    0.955342 0.882616 0.705250 0.238637
C19   C     C_R   0.236487 0.549862 0.370871 -0.081815
C20   C     C_R   0.763487 0.449280 0.628481 -0.081920
H3    H     H_    0.211284 0.586159 0.261699 0.163561
H4    H     H_    0.788681 0.412365 0.737294 0.163253
C21   C     C_R   0.295611 0.547873 0.366810 -0.195603
C22   C     C_R   0.704356 0.451124 0.632523 -0.195813
H5    H     H_    0.315444 0.582875 0.253538 0.168182
H6    H     H_    0.684497 0.415216 0.745272 0.168195
C23   C     C_R   0.328775 0.503048 0.508899 -0.042776
C24   C     C_R   0.671214 0.496997 0.491071 -0.042503
C25   C     C_R   0.301983 0.459534 0.654958 -0.235093
C26   C     C_R   0.698016 0.541608 0.345607 -0.235062
H7    H     H_    0.327253 0.423656 0.764628 0.153739
H8    H     H_    0.672752 0.578352 0.236493 0.153580
C27   C     C_R   0.242419 0.458130 0.657121 0.015753
C28   C     C_R   0.757573 0.542941 0.343322 0.015418
C29   C     C_R   0.209642 0.504064 0.514445 0.295372
C30   C     C_R   0.790343 0.496062 0.485426 0.295511
C31   C     C_2   0.488703 0.034653 0.433985 -0.261595
C32   C     C_2   0.511298 0.965346 0.566013 -0.261566
N3    N     N_2   0.484110 0.456420 0.038520 -0.204010
N4    N     N_2   0.515890 0.543580 0.961480 -0.203984
H9    H     H_    0.455115 0.379483 0.948743 0.227164
H10   H     H_    0.544885 0.620517 0.051257 0.227159
N5    N     N_R   0.934045 0.068139 0.283484 0.165385
O13   O     O_R   0.905765 0.007184 0.397845 -0.293143
O14   O     O_R   0.945066 0.978644 0.126618 -0.314168
N6    N     N_R   0.065945 0.931962 0.716552 0.165413
O15   O     O_R   0.094164 0.993104 0.602221 -0.293098
O16   O     O_R   0.054991 0.021248 0.873605 -0.314076
C33   C     C_1   0.215276 0.406897 0.803794 0.288691
N7    N     N_1   0.193335 0.365228 0.920801 -0.206272
C34   C     C_1   0.784704 0.594981 0.197059 0.288591
N8    N     N_1   0.806620 0.637329 0.080377 -0.204554
C35   C     C_1   0.450277 0.952888 0.276303 0.309171
N9    N     N_1   0.419723 0.888324 0.150874 -0.254932
C36   C     C_1   0.549725 0.047111 0.723692 0.309051
N10   N     N_1   0.580281 0.111674 0.849118 -0.254995

loop_
_geom_bond_atom_site_label_1
_geom_bond_atom_site_label_2
_geom_bond_distance
_ccdc_geom_bond_type
C31   C32   1.352428 D    
C15   C17   1.396532 A    
C36   N10   1.157676 T    
C25   H7    1.084415 S    
O5    C3    1.298157 A    
O1    C1    1.284854 A    
C7    C9    1.412980 A    
C12   C14   1.408660 A    
C20   C22   1.390794 A    
N3    H9    1.029142 S    
N4    H10   1.029140 S    
C22   C24   1.403569 A    
O4    Cu1   1.964240 S    
N5    O14   1.301269 A    
C28   C34   1.442754 S    
C15   N5    1.434693 S    
N2    C29   1.432092 S    
C11   C12   1.413598 A    
N5    O13   1.301302 A    
C8    O12   1.348084 S    
C26   H8    1.084786 S    
C9    C15   1.420647 A    
C10   C16   1.420625 A    
Cu1   Cu2   2.681785 S    
C21   H5    1.083351 S    
O2    C2    1.284853 A    
C22   H6    1.083741 S    
C28   C30   1.407064 A    
C23   C25   1.404594 A    
C6    C14   1.399149 A    
C24   C26   1.404974 A    
C33   N7    1.157000 T    
C4    C24   1.466224 S    
C7    O11   1.348081 S    
C25   C27   1.398578 A    
Cu1   N4    2.015130 S    
C27   C29   1.406513 A    
N6    O16   1.301150 A    
O7    Cu2   1.931045 S    
C20   C30   1.398481 A    
C26   C28   1.398532 A    
O6    C4    1.298095 A    
C27   C33   1.442245 S    
O7    C3    1.294925 A    
O3    Cu2   1.964240 S    
O8    C4    1.294900 A    
C16   N6    1.434631 S    
O4    C2    1.286343 A    
C8    C10   1.412975 A    
C9    C11   1.419188 A    
C10   C12   1.419187 A    
C3    C23   1.466383 S    
O1    Cu1   1.970661 S    
C13   C18   1.400669 A    
C5    N1    1.364339 A    
Cu2   N3    2.015130 S    
O6    Cu2   1.945786 S    
C32   C36   1.457041 S    
C1    C31   1.427679 S    
C2    C32   1.427680 S    
O3    C1    1.286341 A    
O8    Cu1   1.931045 S    
C5    O9    1.350035 S    
C6    O10   1.350009 S    
C17   H1    1.083739 S    
C18   H2    1.083734 S    
N6    O15   1.301239 A    
C16   C18   1.396519 A    
C19   C29   1.397881 A    
C35   N9    1.157676 T    
C19   H3    1.082499 S    
C20   H4    1.082959 S    
N3    N4    1.291136 D    
N1    C7    1.366815 A    
N2    C8    1.366823 A    
C11   C13   1.408668 A    
C19   C21   1.390735 A    
C34   N8    1.157413 T    
O2    Cu2   1.970661 S    
C5    C13   1.399158 A    
O5    Cu1   1.945786 S    
C14   C17   1.400656 A    
C6    N2    1.364315 A    
C21   C23   1.403154 A    
N1    C30   1.432090 S    
C31   C35   1.457042 S    
