data_str_m9_o1_o16_f0_sra.sym.42
_audit_creation_date              2013-03-05T15:55:32-0500
_audit_creation_method            fapswitch 2.2
_symmetry_space_group_name_H-M    P1
_symmetry_Int_Tables_number       1
_space_group_crystal_system       triclinic
_cell_length_a                    20.141267
_cell_length_b                    7.252433
_cell_length_c                    13.568211
_cell_angle_alpha                 90.072503
_cell_angle_beta                  102.875037
_cell_angle_gamma                 89.892515
_cell_volume                      1932.11822343

loop_
_atom_site_label
_atom_site_type_symbol
_atom_site_description
_atom_site_fract_x
_atom_site_fract_y
_atom_site_fract_z
_atom_type_partial_charge
O1    O     O_R   0.449560 0.506810 0.599700 -0.596728
O2    O     O_R   0.550440 0.006810 0.400300 -0.581510
O3    O     O_R   0.587960 0.180060 0.595760 -0.591579
O4    O     O_R   0.412040 0.680060 0.404240 -0.599564
C1    C     C_R   0.615543 0.344742 0.616017 1.026087
C2    C     C_R   0.384475 0.844863 0.383929 1.024778
O5    O     O_R   0.452380 0.177430 0.611700 -0.572780
O6    O     O_R   0.547620 0.677430 0.388300 -0.588319
O7    O     O_R   0.413900 0.001890 0.416350 -0.541437
O8    O     O_R   0.586100 0.501890 0.583650 -0.549930
C3    C     C_R   0.436932 0.345996 0.638384 1.065825
C4    C     C_R   0.563083 0.845622 0.361622 1.066786
O9    O     O_3   0.487530 0.337490 0.435890 -0.276332
O10   O     O_3   0.512470 0.837490 0.564110 -0.279139
V1    V     V_3+5 0.502310 0.064660 0.511890 1.285365
V2    V     V_3+5 0.497690 0.564660 0.488110 1.271687
C5    C     C_R   0.608625 0.848622 0.105984 -0.188940
C6    C     C_R   0.390962 0.401412 0.892140 -0.193453
H1    H     H_    0.692708 0.849660 0.981193 0.152259
H2    H     H_    0.306624 0.430250 0.015831 0.150199
H3    H     H_    0.584107 0.847327 0.026283 0.193690
H4    H     H_    0.415321 0.421714 0.971081 0.194210
C7    C     C_R   0.601132 0.853545 0.281493 -0.279241
C8    C     C_R   0.398838 0.355463 0.718444 -0.277507
C9    C     C_R   0.930231 0.863555 0.316352 -0.172618
C10   C     C_R   0.069960 0.331282 0.684725 -0.172611
C11   C     C_R   0.894152 0.860752 0.392420 -0.085263
C12   C     C_R   0.106143 0.316218 0.609114 -0.084382
C13   C     C_R   0.823195 0.857260 0.368524 -0.171759
C14   C     C_R   0.177004 0.326649 0.632518 -0.173677
C15   C     C_R   0.786124 0.856286 0.266560 0.100283
C16   C     C_R   0.213861 0.353274 0.733469 0.099779
C17   C     C_R   0.823598 0.857263 0.188898 0.101326
C18   C     C_R   0.176255 0.370376 0.810526 0.101537
C19   C     C_R   0.713305 0.854677 0.239027 0.092955
C20   C     C_R   0.286601 0.362792 0.760631 0.093406
C21   C     C_R   0.679954 0.851448 0.135181 0.106788
C22   C     C_R   0.319716 0.391120 0.863361 0.108779
C23   C     C_R   0.717863 0.851648 0.060652 -0.148037
C24   C     C_R   0.281659 0.408595 0.937225 -0.147466
C25   C     C_R   0.788458 0.855039 0.086858 -0.225726
C26   C     C_R   0.211162 0.397916 0.911476 -0.223279
C27   C     C_R   0.672290 0.856250 0.310926 -0.262840
C28   C     C_R   0.327763 0.345272 0.689423 -0.266871
C29   C     C_R   0.568394 0.850213 0.177998 0.340929
C30   C     C_R   0.431343 0.383132 0.820864 0.343086
C31   C     C_R   0.895732 0.861476 0.214954 -0.150811
C32   C     C_R   0.104239 0.358417 0.785063 -0.151456
H5    H     H_    0.693932 0.858456 0.391015 0.166577
H6    H     H_    0.306278 0.324967 0.610097 0.169141
H7    H     H_    0.985390 0.867453 0.336586 0.108693
H8    H     H_    0.014901 0.321306 0.664999 0.109073
H9    H     H_    0.799182 0.855223 0.431881 0.147445
H10   H     H_    0.201116 0.313173 0.569604 0.148783
H11   H     H_    0.921412 0.861854 0.470809 0.124502
H12   H     H_    0.079052 0.295420 0.531530 0.124304
H13   H     H_    0.815294 0.855662 0.026028 0.127725
H14   H     H_    0.184198 0.411577 0.971775 0.125889
C33   C     C_R   0.207875 0.012988 0.245523 -0.227090
C34   C     C_R   0.792118 0.512569 0.754081 -0.228788
H15   H     H_    0.176661 0.135564 0.242576 0.169540
H16   H     H_    0.823334 0.634770 0.756726 0.169804
C35   C     C_R   0.272479 0.011957 0.310460 0.485305
C36   C     C_R   0.727557 0.511308 0.689007 0.481893
C37   C     C_R   0.314848 0.853635 0.316550 -0.242413
C38   C     C_R   0.685194 0.353414 0.683327 -0.251072
C39   C     C_R   0.289237 0.698688 0.257335 -0.100579
C40   C     C_R   0.710801 0.199002 0.742980 -0.085585
H17   H     H_    0.319785 0.575098 0.259491 0.182771
H18   H     H_    0.680265 0.075748 0.741094 0.184563
C41   C     C_R   0.224168 0.700650 0.193639 -0.118353
C42   C     C_R   0.775825 0.201171 0.806821 -0.121781
H19   H     H_    0.206659 0.579152 0.148968 0.134844
H20   H     H_    0.793309 0.080151 0.851950 0.136403
C43   C     C_R   0.182872 0.858400 0.186468 -0.181064
C44   C     C_R   0.817103 0.358553 0.813603 -0.182091
O11   O     O_R   0.913920 0.203370 0.916260 -0.593600
O12   O     O_R   0.086080 0.703370 0.083740 -0.594317
O13   O     O_R   0.047620 0.535540 0.888290 -0.589672
O14   O     O_R   0.952380 0.035540 0.111710 -0.588688
C45   C     C_R   0.063886 0.368053 0.862403 0.907829
C46   C     C_R   0.936082 0.868513 0.137571 0.907238
O15   O     O_R   0.912040 0.532780 0.904220 -0.599628
O16   O     O_R   0.087960 0.032780 0.095780 -0.598367
O17   O     O_R   0.949550 0.708160 0.099720 -0.584400
O18   O     O_R   0.050450 0.208160 0.900280 -0.583233
C47   C     C_R   0.885625 0.364746 0.882858 0.935827
C48   C     C_R   0.114361 0.864634 0.117179 0.935325
O19   O     O_3   0.012480 0.375300 0.064060 -0.287497
O20   O     O_3   0.987520 0.875300 0.935940 -0.287871
V3    V     V_3+5 0.997690 0.648180 0.988110 1.165881
V4    V     V_3+5 0.002310 0.148180 0.011890 1.167580
N1    N     N_R   0.495183 0.848719 0.144546 0.229070
O21   O     O_R   0.466754 0.787677 0.054825 -0.379402
O22   O     O_R   0.456642 0.923439 0.198907 -0.444125
N2    N     N_R   0.504471 0.393139 0.853933 0.231049
O23   O     O_R   0.532026 0.475625 0.938386 -0.376931
O24   O     O_R   0.543973 0.306024 0.805538 -0.450064
Cl1   Cl    Cl    0.295149 0.211646 0.384732 -0.723622
Cl2   Cl    Cl    0.704964 0.709991 0.613923 -0.723315

loop_
_geom_bond_atom_site_label_1
_geom_bond_atom_site_label_2
_geom_bond_distance
_ccdc_geom_bond_type
O15   C47   1.336041 A    
C35   C37   1.420778 A    
O11   V4    1.995600 S    
O4    V2    2.023246 S    
N1    O21   1.301825 A    
C7    C29   1.412317 A    
C11   C13   1.393512 A    
C38   C40   1.410422 A    
O1    C3    1.327624 A    
C42   C44   1.404170 A    
C29   N1    1.442992 S    
C26   H14   1.082466 S    
C2    O7    1.314062 A    
O17   V3    2.018344 S    
C23   C25   1.386916 A    
O5    C3    1.330450 A    
C14   H10   1.076312 S    
C4    C7    1.464329 S    
C16   C20   1.430651 A    
C19   C21   1.419597 A    
C5    C29   1.401511 A    
H2    C24   1.084388 S    
C11   H11   1.082827 S    
C28   H6    1.076876 S    
C3    C8    1.464387 S    
C7    C27   1.399627 A    
C32   C45   1.465027 S    
C34   H16   1.083515 S    
C31   C46   1.464944 S    
C35   Cl1   1.764966 S    
C2    C37   1.494969 S    
C18   C26   1.407468 A    
C37   C39   1.410534 A    
N2    O24   1.301237 A    
C15   C17   1.426379 A    
C14   C16   1.418180 A    
C19   C27   1.411849 A    
C9    C31   1.396341 A    
O13   V3    2.028334 S    
C45   O18   1.321637 A    
C10   C32   1.396345 A    
C24   C26   1.386894 A    
O2    C4    1.328043 A    
O6    V2    2.031507 S    
C22   C24   1.396301 A    
C13   C15   1.418159 A    
C6    C30   1.401476 A    
C12   H12   1.082837 S    
C33   H15   1.083475 S    
C42   H20   1.083235 S    
C41   H19   1.082928 S    
C27   H5    1.077038 S    
C34   C44   1.404346 A    
C5    H3    1.084140 S    
C40   C42   1.400087 A    
C39   H17   1.082959 S    
C36   C38   1.421049 A    
O14   V4    2.031232 S    
C9    H7    1.083805 S    
C10   H8    1.083799 S    
O6    C4    1.329933 A    
N2    O23   1.301923 A    
O1    V2    2.016289 S    
C5    C21   1.402794 A    
O19   V4    1.786027 S    
O2    V1    2.014735 S    
C44   C47   1.487241 S    
H1    C23   1.084338 S    
O4    C2    1.320191 A    
C17   C31   1.417041 A    
C15   C19   1.430623 A    
C20   C28   1.411811 A    
C18   C32   1.417012 A    
C20   C22   1.419647 A    
C33   C43   1.404496 A    
O3    V1    2.024730 S    
O13   C45   1.324716 A    
O12   C48   1.335725 A    
C6    H4    1.084109 S    
C33   C35   1.399475 A    
O16   C48   1.335599 A    
C1    C38   1.495079 S    
O3    C1    1.320707 A    
O12   V3    1.996277 S    
C9    C11   1.388549 A    
C46   O17   1.322560 A    
O15   V3    2.024833 S    
C10   C12   1.388577 A    
C34   C36   1.399610 A    
C8    C30   1.412229 A    
C12   C14   1.393534 A    
C6    C22   1.402793 A    
C17   C25   1.407589 A    
C1    O8    1.313826 A    
C21   C23   1.396306 A    
O8    V2    2.007049 S    
C41   C43   1.403858 A    
O20   V3    1.786970 S    
N1    O22   1.301093 A    
C13   H9    1.076320 S    
C8    C28   1.399604 A    
O5    V1    2.028607 S    
O14   C46   1.323689 A    
C39   C41   1.399961 A    
O7    V1    2.007824 S    
C25   H13   1.082689 S    
C43   C48   1.487197 S    
C36   Cl2   1.765193 S    
C30   N2    1.442855 S    
O11   C47   1.335544 A    
C40   H18   1.083027 S    
O9    V2    1.786607 S    
O10   V1    1.787552 S    
O18   V4    2.019952 S    
O16   V4    2.023345 S    
C16   C18   1.426321 A    
