data_str_m2_o10_o14_f0_pcu.sym.96
_audit_creation_date              2012-12-10T16:43:27-0500
_audit_creation_method            fapswitch 2.2
_symmetry_space_group_name_H-M    P1
_symmetry_Int_Tables_number       1
_space_group_crystal_system       triclinic
_cell_length_a                    10.741272
_cell_length_b                    8.702779
_cell_length_c                    7.510999
_cell_angle_alpha                 102.708522
_cell_angle_beta                  94.996156
_cell_angle_gamma                 93.301266
_cell_volume                      680.18606891

loop_
_atom_site_label
_atom_site_type_symbol
_atom_type_description
_atom_site_fract_x
_atom_site_fract_y
_atom_site_fract_z
_atom_type_partial_charge
C1    C     C_R   0.496119 0.200240 0.454357 0.920049
C2    C     C_R   0.079394 0.644941 0.616183 0.057659
C3    C     C_R   0.129895 0.515267 0.504543 -0.069957
C4    C     C_R   0.052223 0.393994 0.387300 -0.187742
C5    C     C_R   0.923897 0.395105 0.384809 -0.186987
C6    C     C_R   0.871632 0.517529 0.499535 -0.072358
C7    C     C_2   0.488124 0.032666 0.433684 -0.399470
C8    C     C_2   0.529133 0.968655 0.572007 0.227127
C9    C     C_R   0.263130 0.504636 0.501740 0.788576
C10   C     C_R   0.510184 0.799963 0.546481 0.718303
C11   C     C_R   0.737338 0.506001 0.499778 0.771400
C12   C     C_R   0.156145 0.775392 0.725021 -0.284035
C13   C     C_R   0.103312 0.903970 0.832081 0.463898
C14   C     C_R   0.973372 0.903660 0.827974 -0.121433
C15   C     C_R   0.896217 0.777500 0.719172 -0.284355
C16   C     C_R   0.947839 0.646052 0.613350 0.098038
Cu1   Cu    Cu3+1 0.513920 0.517380 0.684380 0.976182
Cu2   Cu    Cu3+1 0.486080 0.482620 0.315620 0.971723
H1    H     H_    0.091385 0.296218 0.299830 0.177058
H2    H     H_    0.256889 0.780351 0.725620 0.149467
H3    H     H_    0.931629 0.003005 0.908067 0.156395
H4    H     H_    0.796106 0.785921 0.716405 0.148318
H5    H     H_    0.865013 0.297810 0.296390 0.155950
H6    H     H_    0.442353 0.961473 0.305060 0.126713
H7    H     H_    0.415924 0.361354 0.948941 0.232097
N1    N     N_2   0.465100 0.456430 0.038520 -0.162381
N2    N     N_2   0.534900 0.543570 0.961480 -0.078997
O1    O     O_R   0.509050 0.286130 0.619770 -0.516354
O2    O     O_R   0.485540 0.256780 0.308360 -0.592600
O3    O     O_R   0.331410 0.514680 0.655740 -0.589518
O4    O     O_R   0.307900 0.485330 0.344330 -0.565133
O5    O     O_R   0.514460 0.743220 0.691640 -0.613965
O6    O     O_R   0.490950 0.713870 0.380230 -0.606973
O7    O     O_R   0.692100 0.514670 0.655670 -0.569931
O8    O     O_R   0.668590 0.485320 0.344260 -0.590570
C17   C     C_3   0.597224 0.691951 0.063242 -0.328875
H8    H     H_    0.662799 0.735330 0.975916 0.146214
H9    H     H_    0.527968 0.781116 0.091858 0.161546
H10   H     H_    0.656586 0.681234 0.185725 0.188816
O9    O     O_3   0.176049 0.032239 0.939874 -0.745742
H11   H     H_    0.265723 0.014856 0.928313 0.321678
O10   O     O_3   0.591369 0.060999 0.733278 -0.707275
H12   H     H_    0.624117 0.992391 0.812805 0.317442

loop_
_geom_bond_atom_site_label_1
_geom_bond_atom_site_label_2
_ccdc_geom_bond_type
C1    O1    A    
C3    C9    S    
C7    H6    S    
N2    C17   S    
C2    C16   A    
Cu2   O8    S    
Cu2   N1    S    
C2    C12   A    
C12   H2    S    
C1    O2    A    
C2    C3    A    
C7    C8    D    
Cu2   O2    S    
C13   C14   A    
C11   O7    A    
Cu1   O3    S    
Cu1   O1    S    
N1    N2    D    
C9    O3    A    
C14   H3    S    
C17   H9    S    
O9    H11   S    
C8    O10   S    
Cu1   Cu2   S    
C10   O6    A    
C17   H10   S    
C5    C6    A    
Cu2   O6    S    
O10   H12   S    
C9    O4    A    
C6    C16   A    
C15   C16   A    
Cu1   N2    S    
C10   O5    A    
C12   C13   A    
C8    C10   S    
Cu1   O7    S    
C6    C11   S    
Cu1   O5    S    
C14   C15   A    
C17   H8    S    
C13   O9    S    
Cu2   O4    S    
H7    N1    S    
C1    C7    S    
C4    H1    S    
C11   O8    A    
C15   H4    S    
C3    C4    A    
C4    C5    A    
C5    H5    S    
