data_str_m3_o4_o10_f0_pcu.sym.3
_audit_creation_date              2012-12-10T20:25:45-0500
_audit_creation_method            fapswitch 2.2
_symmetry_space_group_name_H-M    P1
_symmetry_Int_Tables_number       1
_space_group_crystal_system       triclinic
_cell_length_a                    8.538273
_cell_length_b                    10.709999
_cell_length_c                    9.999932
_cell_angle_alpha                 90.356562
_cell_angle_beta                  96.514247
_cell_angle_gamma                 91.040103
_cell_volume                      908.357525686

loop_
_atom_site_label
_atom_site_type_symbol
_atom_type_description
_atom_site_fract_x
_atom_site_fract_y
_atom_site_fract_z
_atom_type_partial_charge
C1    C     C_R   0.505167 0.260341 0.500316 0.858510
C2    C     C_R   0.361907 0.493321 0.915424 0.159191
C3    C     C_3   0.232068 0.398910 0.888805 -0.499870
C4    C     C_R   0.202694 0.493520 0.466420 0.969816
C5    C     C_3   0.240886 0.382855 0.041419 -0.088123
C6    C     C_R   0.503443 0.739502 0.500490 0.862233
C7    C     C_R   0.797812 0.501095 0.534200 0.954456
C8    C     C_2   0.039753 0.473146 0.452839 -0.386048
C9    C     C_2   0.962131 0.511625 0.551442 -0.384116
C10   C     C_R   0.573466 0.064784 0.619501 0.138964
C11   C     C_R   0.528116 0.128655 0.500659 -0.092012
C12   C     C_R   0.507648 0.934662 0.377981 -0.232400
C13   C     C_R   0.510341 0.063005 0.378581 -0.253540
C14   C     C_3   0.296458 0.252200 0.087603 -0.320586
C15   C     C_3   0.462200 0.218713 0.054195 -0.866294
C16   C     C_3   0.784174 0.588269 0.152820 -0.355781
C17   C     C_3   0.767500 0.717903 0.214316 -0.750146
C18   C     C_R   0.524717 0.871250 0.500564 -0.096929
C19   C     C_R   0.571314 0.936836 0.619483 0.126839
C20   C     C_3   0.512157 0.930073 0.754182 -0.476091
C21   C     C_3   0.516291 0.071735 0.754781 -0.500241
C22   C     C_R   0.363056 0.486461 0.056266 0.175216
C23   C     C_R   0.632127 0.535307 0.080552 0.167144
C24   C     C_R   0.631669 0.528277 0.938217 -0.176167
H1    H     H_    0.985375 0.421595 0.365755 0.142585
H2    H     H_    0.599821 0.889126 0.831608 0.202721
H3    H     H_    0.397606 0.113356 0.752251 0.212023
H4    H     H_    0.609016 0.111648 0.830714 0.205495
H5    H     H_    0.485535 0.253336 0.954506 0.261724
H6    H     H_    0.554065 0.259544 0.129971 0.266949
H7    H     H_    0.474459 0.115696 0.053622 0.231368
H8    H     H_    0.290955 0.245110 0.197451 0.213554
H9    H     H_    0.210517 0.182011 0.038850 0.191071
H10   H     H_    0.658308 0.763378 0.169386 0.238043
H11   H     H_    0.769560 0.713008 0.324846 0.269698
H12   H     H_    0.737051 0.549523 0.891518 0.154373
H13   H     H_    0.869025 0.778869 0.194899 0.210530
H14   H     H_    0.839507 0.520333 0.221752 0.217220
H15   H     H_    0.874737 0.599533 0.081864 0.149669
H16   H     H_    0.120686 0.442546 0.845786 0.171534
H17   H     H_    0.264522 0.316661 0.830317 0.217990
H18   H     H_    0.129808 0.409963 0.081368 0.125504
H19   H     H_    0.018717 0.556615 0.642706 0.164043
H20   H     H_    0.485491 0.109336 0.284541 0.188204
H21   H     H_    0.479907 0.886529 0.282470 0.170805
H22   H     H_    0.390791 0.889433 0.749467 0.209351
N1    N     N_R   0.498950 0.499140 0.142680 -0.112487
N2    N     N_R   0.498950 0.499180 0.857030 -0.115821
O1    O     O_R   0.500020 0.316790 0.614690 -0.617990
O2    O     O_R   0.500000 0.316760 0.385350 -0.632536
O3    O     O_R   0.271760 0.500010 0.587850 -0.609323
O4    O     O_R   0.271740 0.499970 0.358500 -0.629691
O5    O     O_R   0.500000 0.683240 0.614650 -0.614965
O6    O     O_R   0.499980 0.683210 0.385310 -0.623488
O7    O     O_R   0.728260 0.500030 0.641500 -0.633424
O8    O     O_R   0.728240 0.499990 0.412150 -0.617599
Zn1   Zn    Zn3+2 0.500010 0.500020 0.653130 0.930700
Zn2   Zn    Zn3+2 0.499990 0.499980 0.346870 0.928145

loop_
_geom_bond_atom_site_label_1
_geom_bond_atom_site_label_2
_ccdc_geom_bond_type
C2    C22   A    
C17   H10   S    
C23   C24   A    
C15   H7    S    
O3    Zn1   S    
C8    C9    D    
C1    O2    A    
C19   C20   S    
C1    C11   S    
C7    O7    A    
C10   C19   A    
C4    C8    S    
C14   H9    S    
C2    C3    S    
C21   H3    S    
N2    Zn1   S    
C17   H13   S    
C12   C13   A    
N1    Zn2   S    
C8    H1    S    
C11   C13   A    
C16   H14   S    
C15   H6    S    
C5    C14   S    
C24   H12   S    
C20   H2    S    
C7    O8    A    
C6    O6    A    
C6    C18   S    
C21   H4    S    
O8    Zn2   S    
C3    H16   S    
C15   H5    S    
C16   C23   S    
C4    O4    A    
O7    Zn1   S    
C10   C21   S    
O4    Zn2   S    
C22   N1    A    
C6    O5    A    
C9    H19   S    
C23   N1    A    
C10   C11   A    
C4    O3    A    
O2    Zn2   S    
O1    Zn1   S    
C20   C21   S    
C5    H18   S    
C18   C19   A    
O6    Zn2   S    
C12   C18   A    
C7    C9    S    
O5    Zn1   S    
C14   C15   S    
C3    H17   S    
C16   H15   S    
C17   H11   S    
C2    N2    A    
C1    O1    A    
C13   H20   S    
C20   H22   S    
C5    C22   S    
C16   C17   S    
C14   H8    S    
C12   H21   S    
C3    C5    S    
C24   N2    A    
