data_str_m2_o4_o16_f0_pcu.sym.126
_audit_creation_date              2013-03-05T16:31:21-0500
_audit_creation_method            fapswitch 2.2
_symmetry_space_group_name_H-M    P1
_symmetry_Int_Tables_number       1
_space_group_crystal_system       triclinic
_cell_length_a                    9.583603
_cell_length_b                    10.87681
_cell_length_c                    13.443347
_cell_angle_alpha                 91.099966
_cell_angle_beta                  74.154743
_cell_angle_gamma                 90.944113
_cell_volume                      1347.73451595

loop_
_atom_site_label
_atom_site_type_symbol
_atom_site_description
_atom_site_fract_x
_atom_site_fract_y
_atom_site_fract_z
_atom_type_partial_charge
O1    O     O_R   0.381190 0.680360 0.500000 -0.507733
O2    O     O_R   0.618780 0.680320 0.499990 -0.593068
C1    C     C_R   0.501646 0.737530 0.499570 0.827908
O3    O     O_R   0.323230 0.500000 0.650990 -0.543091
O4    O     O_R   0.560820 0.499960 0.650980 -0.549883
C2    C     C_R   0.424271 0.480106 0.697376 0.818750
Cu1   Cu    Cu3+1 0.359330 0.500020 0.500010 1.011927
Cu2   Cu    Cu3+1 0.640670 0.499980 0.499990 0.970550
O5    O     O_R   0.381220 0.319680 0.500010 -0.602317
O6    O     O_R   0.618810 0.319640 0.500000 -0.602286
O7    O     O_R   0.439180 0.500040 0.349020 -0.572545
O8    O     O_R   0.676770 0.500000 0.349010 -0.585155
C3    C     C_R   0.501711 0.262275 0.494516 0.749292
C4    C     C_R   0.576586 0.501063 0.300597 0.800869
C5    C     C_R   0.803174 0.494155 0.024466 -0.191854
H1    H     H_    0.848813 0.524327 0.169866 0.162229
H2    H     H_    0.853541 0.438874 0.826110 0.204907
H3    H     H_    0.915764 0.504451 0.981510 0.165594
C6    C     C_R   0.618800 0.496664 0.187613 -0.044649
C7    C     C_R   0.237515 0.409427 0.857983 0.435068
C8    C     C_R   0.195337 0.397096 0.965202 -0.224520
C9    C     C_R   0.293989 0.417768 0.022799 -0.251592
C10   C     C_R   0.442465 0.438137 0.973469 0.083589
C11   C     C_R   0.488122 0.432697 0.864053 0.014162
C12   C     C_R   0.548464 0.460010 0.028399 0.084963
C13   C     C_R   0.697395 0.466438 0.973296 0.138740
C14   C     C_R   0.739914 0.440418 0.868096 -0.221478
C15   C     C_R   0.636709 0.415880 0.815685 -0.110524
C16   C     C_R   0.511608 0.478444 0.135793 -0.236916
C17   C     C_R   0.764641 0.506981 0.131377 -0.198080
C18   C     C_R   0.383336 0.440051 0.807128 -0.222651
H4    H     H_    0.400150 0.479488 0.180694 0.156792
H5    H     H_    0.251912 0.410274 0.105216 0.141231
H6    H     H_    0.084816 0.371603 0.004584 0.150150
H7    H     H_    0.675852 0.381279 0.737424 0.185838
C19   C     C_R   0.411497 0.931827 0.450986 -0.031769
C20   C     C_R   0.510426 0.870284 0.489920 -0.062996
C21   C     C_R   0.625233 0.938621 0.510504 -0.159689
H8    H     H_    0.710720 0.894157 0.534232 0.155379
C22   C     C_R   0.623969 0.067048 0.508526 -0.155971
H9    H     H_    0.707117 0.117463 0.533530 0.155279
C23   C     C_R   0.510827 0.128674 0.481931 -0.057709
C24   C     C_R   0.416750 0.057938 0.439668 -0.131886
C25   C     C_3   0.255198 0.062827 0.451549 0.127468
C26   C     C_3   0.249631 0.926934 0.480155 0.554114
H10   H     H_    0.196222 0.124388 0.515493 0.126197
C27   C     C_R   0.959184 0.470558 0.412330 0.204533
N1    N     N_R   0.852320 0.499070 0.499340 -0.236506
C28   C     C_R   0.896081 0.547211 0.581752 0.480038
C29   C     C_R   0.043938 0.542296 0.582859 -0.062545
H11   H     H_    0.073281 0.571195 0.651841 0.208944
N2    N     N_R   0.148230 0.499110 0.499340 -0.221896
C30   C     C_R   0.106568 0.472082 0.412117 0.281337
C31   C     C_3   0.131382 0.353123 0.355646 -0.483934
C32   C     C_3   0.973840 0.351586 0.354397 -0.472889
H12   H     H_    0.209148 0.361493 0.278368 0.179835
H13   H     H_    0.156675 0.283585 0.406276 0.248246
H14   H     H_    0.959697 0.361796 0.275625 0.191728
H15   H     H_    0.909315 0.275877 0.400342 0.225823
O9    O     O_3   0.208673 0.077101 0.359781 -0.554292
C33   C     C_3   0.322239 0.095459 0.268336 0.129464
H16   H     H_    0.398906 0.017213 0.253258 0.172154
H17   H     H_    0.381625 0.182967 0.273984 0.128095
C34   C     C_3   0.258679 0.101682 0.176433 -0.754072
H18   H     H_    0.176064 0.174748 0.188806 0.244409
H19   H     H_    0.346222 0.121981 0.105164 0.194491
H20   H     H_    0.206685 0.012184 0.165827 0.270964
N3    N     N_R   0.189090 0.905587 0.591358 0.068685
O10   O     O_R   0.123693 0.802281 0.622440 -0.389201
O11   O     O_R   0.226963 0.976511 0.658932 -0.438781
N4    N     N_R   0.187579 0.844749 0.414780 0.156390
O12   O     O_R   0.048463 0.844531 0.425595 -0.364486
O13   O     O_R   0.270288 0.776999 0.342073 -0.377857
O14   O     O_3   0.795031 0.588163 0.669343 -0.586247
C35   C     C_3   0.791541 0.717862 0.674810 0.110239
H21   H     H_    0.682039 0.747212 0.672769 0.164955
H22   H     H_    0.871326 0.764849 0.610235 0.186782
C36   C     C_3   0.813549 0.761113 0.777907 -0.737500
H23   H     H_    0.918034 0.726951 0.786611 0.272249
H24   H     H_    0.814225 0.863197 0.782072 0.215774
H25   H     H_    0.724041 0.725509 0.842470 0.242421
O15   O     O_3   0.134878 0.389245 0.804206 -0.606702
C37   C     C_3   0.145470 0.265861 0.767827 0.110391
H26   H     H_    0.143098 0.200178 0.831032 0.156067
H27   H     H_    0.247471 0.252808 0.704992 0.161907
C38   C     C_3   0.017744 0.234153 0.724717 -0.789086
H28   H     H_    0.010364 0.301493 0.665469 0.233650
H29   H     H_    0.030851 0.141155 0.688641 0.244596
H30   H     H_    0.915545 0.233556 0.788071 0.229194

loop_
_geom_bond_atom_site_label_1
_geom_bond_atom_site_label_2
_geom_bond_distance
_ccdc_geom_bond_type
C5    H3    1.080984 S    
C7    O15   1.383294 S    
C26   N4    1.470667 S    
C24   C25   1.514188 S    
Cu1   Cu2   2.696184 S    
C30   C31   1.476779 S    
C25   C26   1.530843 S    
Cu1   O7    1.964057 S    
C13   C14   1.385618 A    
C19   C20   1.387904 A    
Cu1   N2    2.025438 S    
C16   H4    1.074014 S    
C32   H15   1.111832 S    
C21   H8    1.080990 S    
O7    C4    1.299859 A    
C36   H24   1.110685 S    
H1    C17   1.083146 S    
C33   H17   1.112921 S    
O5    C3    1.305427 A    
C37   H26   1.115848 S    
C15   H7    1.078517 S    
N3    O10   1.296832 A    
C29   N2    1.364791 A    
C10   C11   1.415839 A    
C27   C30   1.411518 A    
C22   C23   1.413392 A    
C2    C18   1.491176 S    
C28   O14   1.376289 S    
O1    Cu1   1.969243 S    
C8    C9    1.389251 A    
O3    Cu1   1.963627 S    
C3    C23   1.461022 S    
C25   H10   1.109866 S    
C12   C16   1.400749 A    
C31   H12   1.105253 S    
O14   C35   1.411686 S    
H2    C14   1.081331 S    
C34   H20   1.110727 S    
O3    C2    1.309649 A    
N4    O13   1.301984 A    
C36   H23   1.110116 S    
C5    C13   1.398044 A    
C8    H6    1.081115 S    
C12   C13   1.418501 A    
C38   H30   1.108687 S    
O9    C33   1.416797 S    
O1    C1    1.300844 A    
C34   H19   1.110694 S    
C33   C34   1.522363 S    
C35   H21   1.109532 S    
Cu2   N1    2.026187 S    
C20   C21   1.403939 A    
C27   N1    1.362217 A    
Cu2   O8    1.963627 S    
C26   N3    1.469915 S    
C29   H11   1.079896 S    
C19   C26   1.492950 S    
C35   H22   1.114064 S    
N3    O11   1.302292 A    
C22   H9    1.083263 S    
C37   H27   1.112801 S    
O8    C4    1.299015 A    
O15   C37   1.415162 S    
C23   C24   1.402751 A    
C6    C16   1.399525 A    
N2    C30   1.363570 A    
C5    C17   1.387686 A    
C27   C32   1.486054 S    
Cu1   O5    1.976144 S    
C9    H5    1.074812 S    
C31   C32   1.514305 S    
N1    C28   1.379023 A    
C38   H28   1.109393 S    
C4    C6    1.461259 S    
O2    Cu2   1.976144 S    
C11   C15   1.407979 A    
O6    C3    1.294021 A    
O4    Cu2   1.964057 S    
C34   H18   1.108991 S    
O2    C1    1.293829 A    
C11   C18   1.423073 A    
N4    O12   1.301040 A    
C21   C22   1.397956 A    
C36   H25   1.111088 S    
O4    C2    1.303191 A    
C25   O9    1.433479 S    
C38   H29   1.107364 S    
C10   C12   1.424355 A    
C33   H16   1.112614 S    
C35   C36   1.522507 S    
C37   C38   1.522819 S    
C7    C8    1.395139 A    
C1    C20   1.451245 S    
Cu2   O6    1.969243 S    
C28   C29   1.423033 A    
C32   H14   1.111525 S    
C14   C15   1.382242 A    
C9    C10   1.411937 A    
C19   C24   1.381575 A    
C6    C17   1.399538 A    
C7    C18   1.415272 A    
C31   H13   1.099989 S    
