data_str_m2_o10_o28_f0_pcu.sym.146
_audit_creation_date              2012-12-10T16:50:09-0500
_audit_creation_method            fapswitch 2.2
_symmetry_space_group_name_H-M    P1
_symmetry_Int_Tables_number       1
_space_group_crystal_system       triclinic
_cell_length_a                    23.552317
_cell_length_b                    8.66708
_cell_length_c                    7.485081
_cell_angle_alpha                 103.734406
_cell_angle_beta                  94.572451
_cell_angle_gamma                 93.324522
_cell_volume                      1474.84063559

loop_
_atom_site_label
_atom_site_type_symbol
_atom_type_description
_atom_site_fract_x
_atom_site_fract_y
_atom_site_fract_z
_atom_type_partial_charge
C1    C     C_R   0.498279 0.199449 0.452573 0.893262
C2    C     C_R   0.501856 0.800570 0.547452 0.848148
C3    C     C_R   0.244668 0.649036 0.490202 0.214736
C4    C     C_R   0.755228 0.444124 0.315660 0.146534
C5    C     C_R   0.304590 0.648732 0.503346 -0.011239
C6    C     C_R   0.695391 0.438487 0.321044 0.013504
C7    C     C_R   0.330072 0.506589 0.506953 -0.199342
C8    C     C_R   0.671873 0.496049 0.491154 -0.166123
C9    C     C_R   0.296054 0.367649 0.502960 0.359110
C10   C     C_R   0.709118 0.552814 0.654608 0.361092
C11   C     C_R   0.238176 0.377172 0.526380 -0.252664
C12   C     C_R   0.767908 0.543986 0.648621 -0.251757
C13   C     C_R   0.210976 0.514568 0.511123 0.217561
C14   C     C_R   0.791276 0.493758 0.480810 0.265876
C15   C     C_2   0.497604 0.030877 0.426615 -0.374283
C16   C     C_2   0.502797 0.969183 0.573526 -0.357533
C17   C     C_R   0.391560 0.499969 0.501801 0.859005
C18   C     C_R   0.609085 0.498851 0.497683 0.846493
C19   C     C_R   0.884732 0.636996 0.549681 0.537114
C20   C     C_R   0.116075 0.381010 0.398611 0.547327
C21   C     C_R   0.877005 0.357525 0.410440 0.629538
C22   C     C_R   0.123740 0.639781 0.602611 0.623404
C23   C     C_R   0.936570 0.358541 0.400803 -0.097859
C24   C     C_R   0.064165 0.646343 0.580556 -0.087511
C25   C     C_R   0.970411 0.501540 0.484242 -0.088640
C26   C     C_R   0.030343 0.505888 0.490009 -0.090421
C27   C     C_R   0.944375 0.641586 0.558555 -0.044659
C28   C     C_R   0.056491 0.371317 0.400665 -0.049368
C29   C     C_R   0.962833 0.221862 0.310701 0.464219
C30   C     C_R   0.038081 0.789450 0.643873 0.432610
C31   C     C_R   0.022807 0.231829 0.309503 -0.293076
C32   C     C_R   0.978104 0.785044 0.631198 -0.298517
Cu1   Cu    Cu3+1 0.506340 0.517380 0.684380 0.991913
Cu2   Cu    Cu3+1 0.493660 0.482620 0.315620 0.979212
H1    H     H_    0.043440 0.130976 0.236377 0.167306
H2    H     H_    0.957526 0.894918 0.668715 0.195724
H3    H     H_    0.213708 0.271873 0.540671 0.205550
H4    H     H_    0.795855 0.581060 0.775905 0.173862
H5    H     H_    0.492562 0.957378 0.285903 0.169965
H6    H     H_    0.507791 0.042663 0.714257 0.175438
N1    N     N_R   0.852359 0.496065 0.479396 -0.444016
N2    N     N_R   0.149160 0.512069 0.503932 -0.439795
N3    N     N_2   0.484110 0.456420 0.038520 0.000806
N4    N     N_2   0.515890 0.543580 0.961480 0.003106
O1    O     O_R   0.504120 0.286130 0.619770 -0.556999
O2    O     O_R   0.495880 0.713870 0.380230 -0.564064
O3    O     O_R   0.493410 0.256770 0.308360 -0.600047
O4    O     O_R   0.506590 0.743230 0.691640 -0.607977
O5    O     O_R   0.423230 0.514630 0.655730 -0.559007
O6    O     O_R   0.576770 0.485370 0.344270 -0.537436
O7    O     O_R   0.412530 0.485280 0.344320 -0.610855
O8    O     O_R   0.587470 0.514720 0.655680 -0.560735
O9    O     O_2   0.859145 0.772539 0.610779 -0.554112
O10   O     O_2   0.140486 0.260294 0.290632 -0.578537
O11   O     O_2   0.843921 0.219171 0.355283 -0.479978
O12   O     O_2   0.155605 0.757561 0.726923 -0.509485
O13   O     O_3   0.928362 0.089880 0.205764 -0.536809
C33   C     C_3   0.951453 0.943523 0.209178 0.085081
H7    H     H_    0.972225 0.944451 0.348352 0.159071
H8    H     H_    0.982753 0.916384 0.104729 0.119999
C34   C     C_3   0.903558 0.810688 0.158321 -0.700473
H9    H     H_    0.883061 0.803258 0.017317 0.257680
H10   H     H_    0.921042 0.694913 0.161182 0.190756
H11   H     H_    0.870866 0.834215 0.258348 0.276484
O14   O     O_3   0.070594 0.933356 0.670625 -0.552408
C35   C     C_3   0.064447 0.035767 0.843924 0.087453
H12   H     H_    0.082978 0.985092 0.956892 0.177548
H13   H     H_    0.019268 0.058728 0.864470 0.123088
C36   C     C_3   0.096431 0.195873 0.854304 -0.674306
H14   H     H_    0.081691 0.241635 0.733394 0.229824
H15   H     H_    0.087972 0.283844 0.981375 0.219353
H16   H     H_    0.143085 0.182907 0.854939 0.257661
N5    N     N_3   0.217912 0.781863 0.446674 -0.515390
H17   H     H_    0.228986 0.792144 0.317361 0.223303
H18   H     H_    0.233969 0.885702 0.544658 0.278612
N6    N     N_3   0.780011 0.401446 0.143310 -0.562817
H19   H     H_    0.766365 0.476424 0.060728 0.230490
H20   H     H_    0.765734 0.284007 0.076201 0.243548
N7    N     N_3   0.338885 0.792256 0.508510 -0.579294
H21   H     H_    0.365365 0.822238 0.632583 0.226611
H22   H     H_    0.364999 0.769505 0.400212 0.228535
N8    N     N_3   0.658610 0.369854 0.155365 -0.552161
H23   H     H_    0.667395 0.251174 0.106581 0.210602
H24   H     H_    0.667109 0.431752 0.055467 0.263374
O15   O     O_3   0.317761 0.219952 0.456076 -0.572919
C37   C     C_3   0.310403 0.167755 0.260470 0.088670
H25   H     H_    0.330725 0.256477 0.194225 0.140504
H26   H     H_    0.264140 0.147023 0.209716 0.180908
C38   C     C_3   0.338060 0.012763 0.196112 -0.769643
H27   H     H_    0.311677 0.913544 0.225424 0.250625
H28   H     H_    0.340701 0.987353 0.044520 0.202439
H29   H     H_    0.381793 0.021159 0.266423 0.252370
O16   O     O_3   0.688295 0.609413 0.823585 -0.594915
C39   C     C_3   0.698320 0.777476 0.880257 0.029578
H30   H     H_    0.657486 0.831226 0.857316 0.155520
H31   H     H_    0.730734 0.829566 0.805385 0.168881
C40   C     C_3   0.718544 0.826093 0.085561 -0.767809
H32   H     H_    0.760192 0.777321 0.110804 0.253305
H33   H     H_    0.723991 0.958068 0.133069 0.224905
H34   H     H_    0.686882 0.780121 0.166371 0.238429
N9    N     N_3   0.442865 0.351352 0.922034 -0.396312
H35   H     H_    0.449162 0.238255 0.942502 0.202766
H36   H     H_    0.403340 0.381314 0.968342 0.210866
N10   N     N_3   0.556308 0.650918 0.078492 -0.410203
H37   H     H_    0.549071 0.763408 0.057761 0.195842
H38   H     H_    0.595973 0.623621 0.032259 0.244395

loop_
_geom_bond_atom_site_label_1
_geom_bond_atom_site_label_2
_ccdc_geom_bond_type
C35   H13   S    
O16   C39   S    
C6    N8    S    
C34   H11   S    
Cu1   O1    S    
N5    H17   S    
C17   O7    A    
N10   H38   S    
C40   H32   S    
N4    N10   S    
C18   O8    A    
O15   C37   S    
C2    O2    A    
Cu1   O8    S    
Cu2   O7    S    
N9    H35   S    
C23   C29   A    
C24   C26   A    
C37   H26   S    
C35   C36   S    
C33   H8    S    
C15   C16   D    
C34   H10   S    
C11   H3    S    
N10   H37   S    
C9    O15   S    
C7    C17   S    
Cu2   O2    S    
C5    N7    S    
C2    C16   S    
C34   H9    S    
C3    C13   A    
C19   O9    S    
C33   C34   S    
C35   H12   S    
N9    H36   S    
C4    C14   A    
N5    H18   S    
C36   H14   S    
C13   N2    S    
C40   H33   S    
Cu2   O6    S    
C36   H15   S    
N6    H20   S    
N6    H19   S    
C20   O10   S    
C21   N1    A    
C17   O5    A    
N7    H22   S    
C37   H25   S    
C1    O3    A    
C22   O12   S    
C20   C28   A    
C10   O16   S    
C2    O4    A    
C33   H7    S    
C8    C18   S    
C36   H16   S    
N3    N4    D    
N3    N9    S    
C20   N2    A    
Cu1   Cu2   S    
C38   H29   S    
C39   H31   S    
C9    C11   A    
C15   H5    S    
C10   C12   A    
C16   H6    S    
C14   N1    S    
C1    C15   S    
C4    C6    A    
C12   C14   A    
N8    H23   S    
N8    H24   S    
C21   C23   A    
C31   H1    S    
C38   H28   S    
C32   H2    S    
C40   H34   S    
C19   C27   A    
C18   O6    A    
C5    C7    A    
C7    C9    A    
C21   O11   S    
C27   C32   A    
Cu1   N4    S    
C28   C31   A    
Cu2   N3    S    
C29   O13   S    
C3    C5    A    
C37   C38   S    
C6    C8    A    
C25   C27   A    
C26   C28   A    
C39   C40   S    
C25   C26   A    
C29   C31   A    
C30   C32   A    
C11   C13   A    
C1    O1    A    
O13   C33   S    
C22   N2    A    
C22   C24   A    
C23   C25   A    
C12   H4    S    
C39   H30   S    
C3    N5    S    
C24   C30   A    
C4    N6    S    
C30   O14   S    
N7    H21   S    
C8    C10   A    
O14   C35   S    
Cu1   O4    S    
Cu2   O3    S    
C38   H27   S    
Cu1   O5    S    
C19   N1    A    
