data_str_m3_o10_o18_f0_pcu.sym.86
_audit_creation_date              2012-12-10T16:52:41-0500
_audit_creation_method            fapswitch 2.2
_symmetry_space_group_name_H-M    P1
_symmetry_Int_Tables_number       1
_space_group_crystal_system       triclinic
_cell_length_a                    7.839091
_cell_length_b                    8.583094
_cell_length_c                    13.83854
_cell_angle_alpha                 94.032829
_cell_angle_beta                  93.058495
_cell_angle_gamma                 93.445066
_cell_volume                      925.572047605

loop_
_atom_site_label
_atom_site_type_symbol
_atom_type_description
_atom_site_fract_x
_atom_site_fract_y
_atom_site_fract_z
_atom_type_partial_charge
C1    C     C_R   0.043392 0.794235 0.497415 0.941405
C2    C     C_R   0.936923 0.486534 0.317949 0.963577
C3    C     C_R   0.092386 0.525112 0.787327 -0.114437
C4    C     C_R   0.903453 0.458210 0.213564 -0.099105
C5    C     C_R   0.035640 0.631272 0.948007 -0.313547
C6    C     C_R   0.931699 0.303714 0.063048 -0.303063
C7    C     C_R   0.982432 0.601252 0.849779 0.499851
C8    C     C_R   0.998425 0.356815 0.156449 0.487543
C9    C     C_R   0.242181 0.467005 0.824186 -0.352060
C10   C     C_R   0.754950 0.515502 0.175129 -0.333313
C11   C     C_R   0.294418 0.491912 0.922033 0.099570
C12   C     C_R   0.956826 0.205808 0.503410 0.926322
C13   C     C_R   0.679501 0.454018 0.086116 0.093259
C14   C     C_R   0.192975 0.582257 0.983173 0.096822
C15   C     C_R   0.771638 0.348409 0.028933 0.092439
C16   C     C_R   0.450769 0.438300 0.958720 0.049516
C17   C     C_R   0.514253 0.493287 0.053466 0.065310
C18   C     C_R   0.408385 0.581841 0.113287 -0.157048
C19   C     C_R   0.544654 0.330522 0.904140 -0.164578
C20   C     C_R   0.250174 0.624144 0.078542 -0.170209
C21   C     C_R   0.702223 0.286743 0.938978 -0.163687
C22   C     C_2   0.052228 0.951767 0.476791 0.076910
C23   C     C_2   0.948194 0.048174 0.524527 0.058435
C24   C     C_R   0.063019 0.512861 0.682118 0.921690
H1    H     H_    0.172490 0.691325 0.126325 0.203295
H2    H     H_    0.512283 0.624818 0.573450 0.233508
H3    H     H_    0.202746 0.240823 0.142974 0.347466
H4    H     H_    0.767736 0.699736 0.867352 0.337938
H5    H     H_    0.301585 0.800685 0.321647 0.369497
H6    H     H_    0.933220 0.203238 0.734174 0.330411
H7    H     H_    0.769650 0.203208 0.895515 0.190753
H8    H     H_    0.697779 0.604931 0.218773 0.176919
H9    H     H_    0.322145 0.410451 0.773402 0.192367
H10   H     H_    0.956231 0.695636 0.996462 0.151955
H11   H     H_    0.002345 0.224678 0.018129 0.147109
H12   H     H_    0.440674 0.616274 0.188642 0.160420
H13   H     H_    0.497088 0.272836 0.835467 0.181504
H14   H     H_    0.487771 0.375300 0.426499 0.233984
N1    N     N_2   0.440860 0.456490 0.474790 -0.156100
N2    N     N_2   0.559140 0.543510 0.525210 -0.151061
O1    O     O_R   0.891570 0.738930 0.506190 -0.576313
O2    O     O_3   0.828957 0.650713 0.813366 -0.691635
O3    O     O_2   0.023776 0.077749 0.304539 -0.277437
O4    O     O_2   0.311364 0.087374 0.384353 -0.276168
O5    O     O_3   0.182344 0.822218 0.302178 -0.586304
O6    O     O_2   0.673095 0.925926 0.607927 -0.239228
O7    O     O_2   0.951819 0.904156 0.692978 -0.315510
O8    O     O_3   0.820005 0.174447 0.700361 -0.547090
O9    O     O_R   0.108430 0.261070 0.493810 -0.579260
O10   O     O_R   0.174650 0.711050 0.490030 -0.620039
O11   O     O_R   0.825350 0.288950 0.509970 -0.583619
O12   O     O_R   0.909850 0.521900 0.644940 -0.522881
O13   O     O_R   0.090150 0.478100 0.355060 -0.544198
O14   O     O_R   0.192930 0.494020 0.628780 -0.648070
O15   O     O_R   0.807070 0.505980 0.371220 -0.654570
O16   O     O_3   0.152899 0.309884 0.193074 -0.691627
S1    S     S_3+6 0.145163 0.990547 0.365048 0.037075
S2    S     S_3+6 0.846384 0.007232 0.633501 0.038465
Zn1   Zn    Zn3+2 0.810990 0.518620 0.510790 1.075949
Zn2   Zn    Zn3+2 0.189010 0.481380 0.489210 1.050894

loop_
_geom_bond_atom_site_label_1
_geom_bond_atom_site_label_2
_ccdc_geom_bond_type
C24   O12   A    
C23   S2    S    
C2    C4    S    
C24   O14   A    
O8    S2    S    
C3    C9    A    
O12   Zn1   S    
O15   Zn1   S    
C9    C11   A    
C1    O10   A    
C18   C20   A    
C13   C17   A    
O4    S1    D    
C4    C8    A    
O10   Zn2   S    
C5    H10   S    
C8    O16   S    
C22   S1    S    
C17   C18   A    
C5    C14   A    
C1    C22   S    
N2    Zn1   S    
O14   Zn2   S    
O6    S2    D    
O7    S2    D    
C9    H9    S    
C21   H7    S    
C12   C23   S    
H2    N2    S    
C3    C24   S    
O9    Zn2   S    
C16   C19   A    
N1    Zn2   S    
C10   H8    S    
H6    O8    S    
C19   C21   A    
O13   Zn2   S    
C12   O9    A    
C3    C7    A    
C2    O15   A    
C13   C15   A    
H14   N1    S    
O5    S1    S    
C11   C14   A    
O11   Zn1   S    
C20   H1    S    
O3    S1    D    
C4    C10   A    
C14   C20   A    
C15   C21   A    
C12   O11   A    
C6    H11   S    
O1    Zn1   S    
C11   C16   A    
C7    O2    S    
H4    O2    S    
N1    N2    D    
C5    C7    A    
H3    O16   S    
C6    C8    A    
C19   H13   S    
C6    C15   A    
C22   C23   D    
C18   H12   S    
C10   C13   A    
C1    O1    A    
H5    O5    S    
C16   C17   A    
C2    O13   A    
