data_str_m2_o14_o14_f0_pcu.sym.11
_audit_creation_date              2012-10-26T19:04:13-0400
_audit_creation_method            fapswitch 2.2
_symmetry_space_group_name_H-M    P1
_symmetry_Int_Tables_number       1
_space_group_crystal_system       triclinic
_cell_length_a                    14.947144
_cell_length_b                    15.642267
_cell_length_c                    9.590094
_cell_angle_alpha                 89.785587
_cell_angle_beta                  90.313419
_cell_angle_gamma                 89.544445
_cell_volume                      2242.11270433

loop_
_atom_site_label
_atom_site_type_symbol
_atom_type_description
_atom_site_fract_x
_atom_site_fract_y
_atom_site_fract_z
_atom_type_partial_charge
C1    C     C_R   0.384804 0.877727 0.501237 0.534363
C2    C     C_R   0.711964 0.224186 0.380482 -0.180795
C3    C     C_R   0.259242 0.319769 0.425866 -0.158832
C4    C     C_R   0.212309 0.723719 0.379825 -0.178207
C5    C     C_R   0.679589 0.808882 0.500631 0.001902
C6    C     C_R   0.676349 0.194930 0.506274 -0.010449
C7    C     C_R   0.180095 0.309230 0.500209 0.002272
C8    C     C_R   0.174959 0.695914 0.505292 -0.010881
C9    C     C_R   0.664904 0.000798 0.144933 -0.063245
C10   C     C_R   0.164890 0.499281 0.144930 -0.061744
C11   C     C_R   0.746194 0.000936 0.073413 0.112437
C12   C     C_R   0.379496 0.116845 0.499644 0.543133
C13   C     C_R   0.246179 0.498806 0.073432 0.113038
C14   C     C_R   0.744882 0.999921 0.929018 -0.147306
C15   C     C_R   0.244877 0.497879 0.929035 -0.148356
C16   C     C_R   0.664261 0.999955 0.856974 -0.103720
C17   C     C_R   0.164254 0.498570 0.856980 -0.102375
C18   C     C_R   0.580848 0.000542 0.925816 0.125501
C19   C     C_R   0.080837 0.499172 0.925831 0.126508
C20   C     C_R   0.580976 0.000696 0.075245 0.090628
C21   C     C_R   0.080966 0.499322 0.075234 0.091264
C22   C     C_R   0.422569 0.999606 0.072990 0.238890
C23   C     C_R   0.885400 0.377313 0.501120 0.534156
C24   C     C_R   0.922374 0.502207 0.073150 0.242235
C25   C     C_R   0.613995 0.123121 0.501115 0.530887
C26   C     C_R   0.616953 0.879741 0.500321 0.524281
C27   C     C_R   0.113552 0.623394 0.500908 0.531507
C28   C     C_R   0.117268 0.379983 0.500240 0.523245
C29   C     C_R   0.423172 0.998535 0.924627 0.000578
C30   C     C_R   0.923159 0.502278 0.924472 0.008620
C31   C     C_R   0.208562 0.087343 0.637357 -0.111728
C32   C     C_R   0.331738 0.784351 0.765667 -0.107871
C33   C     C_R   0.709554 0.588350 0.642832 -0.110044
C34   C     C_R   0.879161 0.616553 0.499670 0.542354
C35   C     C_R   0.839691 0.277486 0.762299 -0.106934
C36   C     C_R   0.126899 0.074761 0.703671 -0.131230
C37   C     C_R   0.288401 0.766418 0.890543 -0.137612
C38   C     C_R   0.629010 0.576676 0.712781 -0.128867
C39   C     C_R   0.800699 0.253976 0.888120 -0.139703
C40   C     C_R   0.564523 0.641291 0.712661 -0.127188
C41   C     C_R   0.712440 0.227555 0.890210 -0.130448
C42   C     C_R   0.062062 0.139066 0.702046 -0.129440
C43   C     C_R   0.200436 0.738988 0.888403 -0.128288
C44   C     C_R   0.580385 0.718024 0.642988 -0.103716
C45   C     C_R   0.322927 0.255403 0.424862 -0.160381
C46   C     C_R   0.666790 0.215147 0.765091 -0.095919
C47   C     C_R   0.078859 0.216438 0.634869 -0.104021
C48   C     C_R   0.158946 0.721506 0.761455 -0.094899
C49   C     C_R   0.662253 0.732076 0.573818 0.030415
C50   C     C_R   0.710183 0.226690 0.635093 0.027019
C51   C     C_R   0.161835 0.231502 0.570005 0.029956
C52   C     C_R   0.205753 0.730307 0.633858 0.026901
C53   C     C_R   0.227360 0.165874 0.570240 0.023778
C54   C     C_R   0.287348 0.774783 0.635217 0.022234
C55   C     C_R   0.727638 0.666255 0.573324 0.025884
C56   C     C_R   0.281814 0.781335 0.380366 -0.165807
C57   C     C_R   0.791837 0.271074 0.634375 0.022395
C58   C     C_R   0.308521 0.179851 0.498907 -0.003501
C59   C     C_R   0.320154 0.807782 0.506380 -0.012817
C60   C     C_R   0.807921 0.679390 0.499008 -0.002583
C61   C     C_R   0.821815 0.306514 0.505869 -0.013404
C62   C     C_3   0.284777 0.073961 0.125686 -0.290449
C63   C     C_3   0.766800 0.457442 0.099991 -0.323255
C64   C     C_3   0.846342 0.065339 0.244160 -0.316513
C65   C     C_3   0.346728 0.563561 0.243221 -0.317001
C66   C     C_R   0.821365 0.754116 0.422349 -0.155652
C67   C     C_R   0.781859 0.281331 0.380511 -0.168736
C68   C     C_R   0.757710 0.818458 0.423343 -0.157166
Cu1   Cu    Cu3+1 0.499990 1.000000 0.640660 0.894588
Cu2   Cu    Cu3+1 0.999990 0.500000 0.640660 0.894814
Cu3   Cu    Cu3+1 0.500010 0.000000 0.359340 0.945541
Cu4   Cu    Cu3+1 0.000010 0.500000 0.359340 0.943590
H1    H     H_    0.384805 0.265341 0.368823 0.126815
H2    H     H_    0.861046 0.505508 0.866420 0.123491
H3    H     H_    0.255586 0.034472 0.637158 0.134689
H4    H     H_    0.400797 0.802763 0.774571 0.140963
H5    H     H_    0.756224 0.535212 0.641714 0.133399
H6    H     H_    0.908279 0.297573 0.768167 0.141221
H7    H     H_    0.113367 0.014378 0.754586 0.112086
H8    H     H_    0.322529 0.775793 0.989138 0.100285
H9    H     H_    0.616080 0.516763 0.765557 0.108228
H10   H     H_    0.838308 0.258729 0.984508 0.101658
H11   H     H_    0.501460 0.631547 0.765198 0.110150
H12   H     H_    0.306281 0.804325 0.281067 0.130243
H13   H     H_    0.679902 0.214727 0.988617 0.109659
H14   H     H_    0.998076 0.128595 0.751402 0.111244
H15   H     H_    0.164919 0.729305 0.985222 0.109642
H16   H     H_    0.527349 0.765147 0.641554 0.128769
H17   H     H_    0.597116 0.198270 0.772747 0.151799
H18   H     H_    0.025823 0.263381 0.631305 0.124973
H19   H     H_    0.089453 0.703388 0.765309 0.150869
H20   H     H_    0.770291 0.876873 0.365853 0.143486
H21   H     H_    0.686204 0.202444 0.281027 0.132739
H22   H     H_    0.272492 0.378850 0.370640 0.143146
H23   H     H_    0.882541 0.763498 0.364218 0.129562
H24   H     H_    0.188187 0.700505 0.280280 0.133625
H25   H     H_    0.304246 0.943048 0.125002 0.220002
H26   H     H_    0.227682 0.071819 0.199184 0.147536
H27   H     H_    0.257921 0.077370 0.017486 0.113089
H28   H     H_    0.324067 0.132455 0.147693 0.173578
H29   H     H_    0.820800 0.573607 0.158089 0.252264
H30   H     H_    0.715133 0.455590 0.182632 0.152355
H31   H     H_    0.790557 0.391318 0.081006 0.143489
H32   H     H_    0.735602 0.483831 0.003480 0.115934
H33   H     H_    0.671262 0.999042 0.254688 0.190809
H34   H     H_    0.805450 0.304922 0.281343 0.136554
H35   H     H_    0.171235 0.498644 0.254700 0.190701
H36   H     H_    0.884247 0.983607 0.084751 0.251147
H37   H     H_    0.914486 0.057696 0.289474 0.144427
H38   H     H_    0.798108 0.063257 0.331503 0.151117
H39   H     H_    0.842119 0.128241 0.190135 0.146478
H40   H     H_    0.384113 0.480751 0.084985 0.250571
H41   H     H_    0.414830 0.555777 0.288631 0.144442
H42   H     H_    0.298490 0.562254 0.330606 0.149969
H43   H     H_    0.342880 0.626196 0.188295 0.148177
H44   H     H_    0.806959 0.999177 0.871166 0.110147
H45   H     H_    0.306961 0.497059 0.871203 0.109059
H46   H     H_    0.671756 0.999119 0.747161 0.193799
H47   H     H_    0.171749 0.498807 0.747155 0.193463
H48   H     H_    0.360581 0.996734 0.867532 0.118957
N1    N     N_R   0.501200 1.000000 0.147910 -0.222680
N2    N     N_R   0.001200 0.500000 0.147910 -0.227448
N3    N     N_R   0.501270 1.000000 0.852040 -0.262678
N4    N     N_R   0.001270 0.500000 0.852040 -0.264892
N5    N     N_2   0.339701 0.998079 0.144365 -0.460304
N6    N     N_2   0.840004 0.510672 0.145569 -0.459959
N7    N     N_2   0.829592 0.996933 0.146499 -0.532543
N8    N     N_2   0.329551 0.494704 0.146573 -0.533451
O1    O     O_R   0.409820 0.909830 0.618810 -0.528842
O2    O     O_R   0.590170 0.909830 0.618760 -0.525579
O3    O     O_R   0.090170 0.590170 0.618760 -0.530019
O4    O     O_R   0.090170 0.409830 0.618760 -0.524860
O5    O     O_R   0.590190 0.090180 0.381190 -0.531421
O6    O     O_R   0.590190 0.909820 0.381190 -0.519791
O7    O     O_R   0.090190 0.590180 0.381190 -0.531118
O8    O     O_R   0.090190 0.409820 0.381190 -0.520057
O9    O     O_R   0.409820 0.090170 0.618810 -0.507672
O10   O     O_R   0.909820 0.409830 0.618810 -0.527066
O11   O     O_R   0.909820 0.590170 0.618810 -0.509264
O12   O     O_R   0.409840 0.909830 0.381240 -0.472670
O13   O     O_R   0.409840 0.090170 0.381240 -0.471450
O14   O     O_R   0.909840 0.409830 0.381240 -0.465403
O15   O     O_R   0.909840 0.590170 0.381240 -0.484662
O16   O     O_R   0.590170 0.090170 0.618760 -0.530805

loop_
_geom_bond_atom_site_label_1
_geom_bond_atom_site_label_2
_ccdc_geom_bond_type
C44   C49   A    
C33   C55   A    
Cu4   O15   S    
C24   N6    S    
C22   C29   A    
C27   O3    A    
C65   H42   S    
C23   O10   A    
C36   C42   A    
C4    C8    A    
Cu3   O6    S    
C39   C41   A    
C46   H17   S    
Cu1   O16   S    
Cu4   O14   S    
C34   O15   A    
C19   C21   A    
C3    C7    A    
C5    C68   A    
C30   H2    S    
C11   C14   A    
Cu4   O8    S    
C6    C25   S    
C66   C68   A    
Cu1   N3    S    
C9    H33   S    
C34   O11   A    
C12   O13   A    
C45   H1    S    
C21   N2    A    
Cu1   Cu3   S    
C17   C19   A    
C62   H26   S    
C13   N8    S    
C31   H3    S    
Cu1   O2    S    
C48   H19   S    
C41   C46   A    
C10   C13   A    
C23   O14   A    
C42   H14   S    
C25   O5    A    
C43   C48   A    
C8    C52   A    
C40   C44   A    
C26   O2    A    
C18   N3    A    
Cu3   O13   S    
C12   C58   S    
C60   C66   A    
Cu2   O11   S    
C4    H24   S    
C55   C60   A    
C4    C56   A    
C34   C60   S    
C65   H43   S    
C40   H11   S    
C5    C49   A    
C10   H35   S    
C2    C6    A    
C63   H30   S    
C32   C54   A    
C29   H48   S    
C52   C54   A    
C56   H12   S    
C54   C59   A    
C10   C21   A    
Cu1   O9    S    
C19   N4    A    
C37   H8    S    
C45   C58   A    
C65   N8    S    
C63   H31   S    
C2    C67   A    
Cu4   O7    S    
C47   C51   A    
C22   N5    S    
C49   C55   A    
C3    C45   A    
C31   C53   A    
C7    C28   S    
C15   H45   S    
C28   O4    A    
C37   C43   A    
C35   C39   A    
C32   H4    S    
C26   O6    A    
C16   H46   S    
C61   C67   A    
C9    C20   A    
C64   H38   S    
C23   C61   S    
C64   N7    S    
Cu2   O4    S    
H29   N6    S    
C16   C18   A    
C32   C37   A    
C6    C50   A    
C9    C11   A    
C20   N1    A    
C1    O12   A    
C62   H28   S    
C11   N7    S    
H25   N5    S    
C30   N4    A    
Cu2   O10   S    
C13   C15   A    
C38   H9    S    
C47   H18   S    
C14   C16   A    
C25   O16   A    
C22   N1    A    
C15   C17   A    
Cu4   N2    S    
C28   O8    A    
C50   C57   A    
C65   H41   S    
Cu3   N1    S    
C2    H21   S    
C39   H10   S    
C63   H32   S    
C64   H39   S    
C36   H7    S    
Cu3   O5    S    
C62   N5    S    
Cu2   Cu4   S    
C53   C58   A    
C67   H34   S    
C57   C61   A    
Cu3   O12   S    
C41   H13   S    
C24   N2    A    
C46   C50   A    
C35   H6    S    
C1    O1    A    
C33   C38   A    
C56   C59   A    
C35   C57   A    
C27   O7    A    
C1    C59   S    
C43   H15   S    
C38   C40   A    
C62   H27   S    
C33   H5    S    
C64   H37   S    
C14   H44   S    
C29   N3    A    
Cu2   O3    S    
C68   H20   S    
C3    H22   S    
C18   C20   A    
C42   C47   A    
H36   N7    S    
C24   C30   A    
H40   N8    S    
C63   N6    S    
C17   H47   S    
C7    C51   A    
C5    C26   S    
Cu2   N4    S    
C48   C52   A    
Cu1   O1    S    
C8    C27   S    
C12   O9    A    
C31   C36   A    
C51   C53   A    
C44   H16   S    
C66   H23   S    
