data_str_m3_o10_o14_f0_pcu.sym.144
_audit_creation_date              2012-12-10T16:50:03-0500
_audit_creation_method            fapswitch 2.2
_symmetry_space_group_name_H-M    P1
_symmetry_Int_Tables_number       1
_space_group_crystal_system       triclinic
_cell_length_a                    7.910739
_cell_length_b                    8.555098
_cell_length_c                    10.527254
_cell_angle_alpha                 91.994136
_cell_angle_beta                  81.672335
_cell_angle_gamma                 94.000227
_cell_volume                      703.004878969

loop_
_atom_site_label
_atom_site_type_symbol
_atom_type_description
_atom_site_fract_x
_atom_site_fract_y
_atom_site_fract_z
_atom_type_partial_charge
C1    C     C_R   0.545638 0.794403 0.496870 0.936358
C2    C     C_R   0.454362 0.205607 0.503072 0.972232
C3    C     C_R   0.508134 0.520656 0.261448 0.886945
C4    C     C_R   0.183777 0.612639 0.944963 0.455101
C5    C     C_R   0.084266 0.720047 0.022838 -0.165123
C6    C     C_R   0.138776 0.790169 0.131760 -0.221757
C7    C     C_R   0.285805 0.743133 0.170760 -0.124006
C8    C     C_R   0.387550 0.640140 0.091561 0.068018
C9    C     C_R   0.352955 0.597349 0.967871 -0.032904
C10   C     C_R   0.495457 0.550564 0.877910 -0.212060
C11   C     C_R   0.657976 0.574988 0.915652 0.440521
C12   C     C_R   0.671423 0.556075 0.043948 -0.256845
C13   C     C_R   0.525343 0.574526 0.132231 -0.176444
C14   C     C_2   0.569269 0.958331 0.494813 -0.341838
C15   C     C_2   0.430739 0.041600 0.504549 -0.369789
C16   C     C_R   0.496398 0.510916 0.742048 0.941577
Cl1   Cl    Cl    0.809720 0.698677 0.819474 -0.637147
Cl2   Cl    Cl    0.074218 0.457247 0.869906 -0.575392
H1    H     H_    0.989069 0.628139 0.589285 0.255860
H2    H     H_    0.958558 0.744101 0.008666 0.212610
H3    H     H_    0.059419 0.870002 0.191609 0.165903
H4    H     H_    0.321749 0.788696 0.261033 0.154565
H5    H     H_    0.791196 0.531974 0.074593 0.201804
H6    H     H_    0.699961 0.009888 0.485504 0.188111
H7    H     H_    0.300058 0.990004 0.513739 0.187272
H8    H     H_    0.012369 0.374988 0.407297 0.190723
N1    N     N_2   0.950330 0.457950 0.466250 -0.165201
N2    N     N_2   0.049670 0.542050 0.533750 -0.133596
O1    O     O_R   0.389250 0.738570 0.508280 -0.631950
O2    O     O_R   0.678390 0.711630 0.486650 -0.619167
O3    O     O_R   0.355400 0.513470 0.694050 -0.560854
O4    O     O_R   0.644540 0.486530 0.672420 -0.560373
O5    O     O_R   0.321610 0.288370 0.513350 -0.606115
O6    O     O_R   0.610750 0.261430 0.491720 -0.612110
O7    O     O_R   0.355460 0.513470 0.327580 -0.630376
O8    O     O_R   0.644600 0.486530 0.305950 -0.623620
Zn1   Zn    Zn3+2 0.306930 0.517990 0.514440 1.005130
Zn2   Zn    Zn3+2 0.693070 0.482010 0.485560 0.993935

loop_
_geom_bond_atom_site_label_1
_geom_bond_atom_site_label_2
_ccdc_geom_bond_type
C8    C9    A    
C11   C12   A    
C6    C7    A    
H1    N2    S    
O4    Zn2   S    
C16   O4    A    
C7    H4    S    
C9    C10   A    
C3    C13   S    
C3    O7    A    
C4    Cl2   S    
C2    O6    A    
O8    Zn2   S    
C7    C8    A    
C5    H2    S    
C10   C16   S    
C16   O3    A    
C2    C15   S    
C12   H5    S    
H8    N1    S    
C8    C13   A    
N2    Zn1   S    
C3    O8    A    
C2    O5    A    
C1    O1    A    
C1    O2    A    
O7    Zn1   S    
C5    C6    A    
C15   H7    S    
C10   C11   A    
N1    Zn2   S    
O1    Zn1   S    
C12   C13   A    
O2    Zn2   S    
C14   H6    S    
N1    N2    D    
C14   C15   D    
C11   Cl1   S    
C1    C14   S    
C4    C9    A    
O6    Zn2   S    
C6    H3    S    
O5    Zn1   S    
O3    Zn1   S    
C4    C5    A    
