data_str_m3_o10_o29_f0_pcu.sym.61
_audit_creation_date              2012-12-10T16:59:21-0500
_audit_creation_method            fapswitch 2.2
_symmetry_space_group_name_H-M    P1
_symmetry_Int_Tables_number       1
_space_group_crystal_system       triclinic
_cell_length_a                    7.805437
_cell_length_b                    8.541437
_cell_length_c                    27.720368
_cell_angle_alpha                 92.089853
_cell_angle_beta                  85.178315
_cell_angle_gamma                 93.49674
_cell_volume                      1837.22570054

loop_
_atom_site_label
_atom_site_type_symbol
_atom_type_description
_atom_site_fract_x
_atom_site_fract_y
_atom_site_fract_z
_atom_type_partial_charge
C1    C     C_R   0.545484 0.794535 0.498791 0.979212
C2    C     C_R   0.529457 0.639984 0.128586 -0.022041
C3    C     C_R   0.504395 0.500544 0.646448 -0.035848
C4    C     C_R   0.495576 0.499304 0.353553 -0.035837
C5    C     C_R   0.537855 0.642332 0.026421 0.047741
C6    C     C_R   0.462164 0.357017 0.973571 0.047734
C7    C     C_R   0.457457 0.357285 0.024818 0.048137
C8    C     C_R   0.542570 0.642062 0.975174 0.048139
C9    C     C_R   0.495600 0.499892 0.050879 0.072052
C10   C     C_R   0.504415 0.499458 0.949113 0.072055
C11   C     C_R   0.573977 0.780755 0.054374 -0.227482
C12   C     C_R   0.454516 0.205465 0.501209 0.979201
C13   C     C_R   0.426028 0.218598 0.945617 -0.227475
C14   C     C_R   0.569808 0.779169 0.104379 -0.138279
C15   C     C_R   0.430173 0.220190 0.895612 -0.138275
C16   C     C_R   0.501317 0.500283 0.593858 0.877964
C17   C     C_R   0.498678 0.499702 0.406142 0.877971
C18   C     C_R   0.584579 0.780031 0.948774 -0.225935
C19   C     C_R   0.415461 0.219316 0.051218 -0.225935
C20   C     C_2   0.569574 0.957985 0.498083 -0.362872
C21   C     C_2   0.430426 0.042015 0.501917 -0.362856
C22   C     C_R   0.550841 0.636790 0.822482 0.506486
C23   C     C_R   0.508298 0.499338 0.897885 -0.049381
C24   C     C_R   0.449121 0.362583 0.177514 0.506490
C25   C     C_R   0.473349 0.362194 0.820958 0.508137
C26   C     C_R   0.526588 0.637183 0.179033 0.508102
C27   C     C_R   0.664450 0.497126 0.717406 -0.096190
C28   C     C_R   0.335424 0.501768 0.282588 -0.096146
C29   C     C_R   0.661875 0.496835 0.667375 -0.197602
C30   C     C_R   0.338025 0.502285 0.332622 -0.197613
C31   C     C_R   0.349826 0.504483 0.676203 -0.203248
C32   C     C_R   0.650188 0.495878 0.323802 -0.203295
C33   C     C_R   0.352899 0.504204 0.726192 -0.097267
C34   C     C_R   0.491696 0.500019 0.102108 -0.049384
C35   C     C_R   0.647090 0.495950 0.273812 -0.097167
C36   C     C_R   0.510033 0.500541 0.746666 0.322248
C37   C     C_R   0.489889 0.498878 0.253331 0.322133
C38   C     C_1   0.026122 0.348108 0.455260 0.388058
C39   C     C_1   0.973872 0.651869 0.544748 0.388078
C40   C     C_R   0.549544 0.639247 0.872968 -0.022120
C41   C     C_R   0.450446 0.360114 0.127026 -0.022110
C42   C     C_R   0.587698 0.778262 0.898746 -0.143018
C43   C     C_R   0.412322 0.221092 0.101248 -0.143008
C44   C     C_R   0.470516 0.359378 0.871405 -0.022057
H1    H     H_    0.226788 0.507259 0.660955 0.162650
H2    H     H_    0.785890 0.494188 0.733503 0.135322
H3    H     H_    0.599103 0.888224 0.124026 0.196370
H4    H     H_    0.400864 0.111139 0.875964 0.196366
H5    H     H_    0.606609 0.893578 0.039081 0.141847
H6    H     H_    0.393394 0.105774 0.960910 0.141852
H7    H     H_    0.616350 0.892639 0.965334 0.140744
H8    H     H_    0.383716 0.106703 0.034658 0.140740
H9    H     H_    0.701190 0.008588 0.494413 0.183467
H10   H     H_    0.298810 0.991412 0.505587 0.183468
H11   H     H_    0.773279 0.493689 0.339055 0.162616
H12   H     H_    0.233590 0.506906 0.749097 0.136963
H13   H     H_    0.766441 0.493682 0.250912 0.136995
H14   H     H_    0.620371 0.887126 0.880321 0.191995
H15   H     H_    0.379653 0.112228 0.119673 0.191996
H16   H     H_    0.217081 0.504812 0.354777 0.162439
H17   H     H_    0.782784 0.493899 0.645217 0.162422
H18   H     H_    0.213932 0.504159 0.266487 0.135373
N1    N     N_R   0.512409 0.499689 0.797863 -0.361867
N2    N     N_R   0.487524 0.499694 0.202132 -0.361846
N3    N     N_2   0.950320 0.457960 0.486880 -0.155689
N4    N     N_2   0.049680 0.542040 0.513120 -0.155700
N5    N     N_1   0.087355 0.255688 0.428644 -0.244056
N6    N     N_1   0.912633 0.744268 0.571370 -0.243947
O1    O     O_R   0.389250 0.738570 0.503220 -0.622051
O2    O     O_2   0.411133 0.229244 0.201895 -0.531193
O3    O     O_2   0.562465 0.770383 0.204921 -0.529264
O4    O     O_2   0.437431 0.229009 0.795067 -0.529247
O5    O     O_R   0.610750 0.261430 0.496780 -0.622060
O6    O     O_R   0.678390 0.711630 0.494810 -0.629884
O7    O     O_R   0.321610 0.288370 0.505190 -0.629881
O8    O     O_R   0.355440 0.513440 0.575450 -0.631044
O9    O     O_R   0.644560 0.486560 0.424550 -0.631027
O10   O     O_R   0.644590 0.486500 0.567040 -0.632079
O11   O     O_R   0.355410 0.513500 0.432960 -0.632064
O12   O     O_2   0.588841 0.770129 0.798102 -0.531178
Zn1   Zn    Zn3+2 0.306940 0.517990 0.505620 0.956480
Zn2   Zn    Zn3+2 0.693060 0.482010 0.494380 0.956477

loop_
_geom_bond_atom_site_label_1
_geom_bond_atom_site_label_2
_ccdc_geom_bond_type
C24   C41   A    
C27   C29   A    
C39   N6    T    
C42   H14   S    
C24   O2    S    
C1    O6    A    
O9    Zn2   S    
C35   C37   A    
C15   C44   A    
C5    C11   A    
C18   C42   A    
C21   H10   S    
C11   C14   A    
C23   C40   A    
C17   O11   A    
C33   C36   A    
C25   N1    A    
C3    C29   A    
C26   N2    A    
C22   N1    A    
C14   H3    S    
C19   H8    S    
C30   H16   S    
C31   C33   A    
C36   N1    S    
C32   H11   S    
C43   H15   S    
C2    C34   A    
C33   H12   S    
C40   C42   A    
C24   N2    A    
C12   O5    A    
C26   O3    S    
C41   C43   A    
C34   C41   A    
C15   H4    S    
O6    Zn2   S    
C25   C44   A    
C19   C43   A    
C18   H7    S    
C29   H17   S    
C32   C35   A    
O11   Zn1   S    
O7    Zn1   S    
C12   C21   S    
C8    C18   A    
C23   C44   A    
C5    C9    A    
C11   H5    S    
O10   Zn2   S    
C38   N3    S    
C22   C40   A    
C17   O9    A    
C2    C26   A    
C25   O4    S    
C38   N5    T    
C3    C31   A    
C4    C32   A    
C4    C17   S    
C27   H2    S    
C7    C19   A    
C13   C15   A    
C9    C34   A    
C10   C23   A    
C39   N4    S    
O5    Zn2   S    
C37   N2    S    
C7    C9    A    
C1    C20   S    
C16   O8    A    
C20   H9    S    
O8    Zn1   S    
C6    C10   A    
C5    C8    A    
C6    C7    A    
C27   C36   A    
C35   H13   S    
C28   C30   A    
C22   O12   S    
N4    Zn1   S    
N3    Zn2   S    
C28   C37   A    
C16   O10   A    
C2    C14   A    
C1    O1    A    
O1    Zn1   S    
C13   H6    S    
C20   C21   D    
C8    C10   A    
N3    N4    D    
C31   H1    S    
C12   O7    A    
C4    C30   A    
C3    C16   S    
C6    C13   A    
C28   H18   S    
