data_str_m2_o10_o29_f0_pcu.sym.88
_audit_creation_date              2012-10-26T20:17:43-0400
_audit_creation_method            fapswitch 2.2
_symmetry_space_group_name_H-M    P1
_symmetry_Int_Tables_number       1
_space_group_crystal_system       triclinic
_cell_length_a                    27.846839
_cell_length_b                    8.717481
_cell_length_c                    7.412059
_cell_angle_alpha                 103.249151
_cell_angle_beta                  93.449691
_cell_angle_gamma                 91.860109
_cell_volume                      1746.26100524

loop_
_atom_site_label
_atom_site_type_symbol
_atom_type_description
_atom_site_fract_x
_atom_site_fract_y
_atom_site_fract_z
_atom_type_partial_charge
C1    C     C_R   0.498583 0.199902 0.453350 0.576963
C2    C     C_R   0.870727 0.355112 0.398192 0.018973
C3    C     C_R   0.354459 0.507819 0.515201 -0.035783
C4    C     C_R   0.645541 0.492181 0.484799 -0.035783
C5    C     C_R   0.972788 0.356988 0.423539 0.009262
C6    C     C_R   0.027212 0.643011 0.576464 0.009262
C7    C     C_R   0.976127 0.644882 0.549013 0.009342
C8    C     C_R   0.023873 0.355117 0.450991 0.009343
C9    C     C_R   0.949110 0.500327 0.480496 -0.043784
C10   C     C_R   0.050890 0.499672 0.519507 -0.043784
C11   C     C_R   0.944572 0.221992 0.328250 0.009168
C12   C     C_R   0.501417 0.800098 0.546650 0.576963
C13   C     C_R   0.055427 0.778007 0.671754 0.009168
C14   C     C_R   0.894617 0.218791 0.316396 0.251373
C15   C     C_R   0.105382 0.781208 0.683607 0.251373
C16   C     C_R   0.407413 0.502004 0.504372 0.594494
C17   C     C_R   0.592587 0.497996 0.495628 0.594494
C18   C     C_R   0.048936 0.212963 0.421287 0.362051
C19   C     C_R   0.951064 0.787036 0.578716 0.362051
C20   C     C_2   0.497920 0.032709 0.426734 0.349459
C21   C     C_2   0.502080 0.967291 0.573266 0.349459
C22   C     C_R   0.177073 0.366565 0.488487 0.515494
C23   C     C_R   0.102097 0.501058 0.534304 -0.128642
C24   C     C_R   0.822927 0.633435 0.511514 0.515494
C25   C     C_R   0.179385 0.646959 0.585581 0.465985
C26   C     C_R   0.820615 0.353041 0.414421 0.465985
C27   C     C_R   0.283135 0.564718 0.693655 0.242993
C28   C     C_R   0.716865 0.435282 0.306345 0.242992
C29   C     C_R   0.333969 0.559514 0.688245 0.167001
C30   C     C_R   0.666031 0.440486 0.311755 0.167003
C31   C     C_R   0.323981 0.459017 0.351819 0.339236
C32   C     C_R   0.676018 0.540983 0.648181 0.339236
C33   C     C_R   0.274277 0.461984 0.358996 0.428893
C34   C     C_R   0.897903 0.498942 0.465699 -0.128642
C35   C     C_R   0.725723 0.538016 0.641004 0.428893
C36   C     C_R   0.253709 0.512495 0.528808 0.176070
C37   C     C_R   0.746291 0.487505 0.471193 0.176069
C38   C     C_R   0.126271 0.359168 0.482176 0.014958
C39   C     C_R   0.873729 0.640831 0.517826 0.014958
C40   C     C_R   0.099456 0.214234 0.430358 0.312063
C41   C     C_R   0.900544 0.785766 0.569645 0.312064
C42   C     C_R   0.129273 0.644887 0.601810 0.018973
Cu1   Cu    Cu3+1 0.505380 0.517380 0.684380 1.169029
Cu2   Cu    Cu3+1 0.494620 0.482620 0.315620 1.169029
F1    F     F_    0.342052 0.403003 0.184532 -0.563310
F2    F     F_    0.657948 0.596997 0.815468 -0.563309
F3    F     F_    0.245726 0.414821 0.199361 -0.518121
F4    F     F_    0.754273 0.585179 0.800640 -0.518121
F5    F     F_    0.025368 0.070983 0.399812 -0.612234
F6    F     F_    0.974632 0.929016 0.600192 -0.612234
F7    F     F_    0.493001 0.945473 0.248081 -0.591456
F8    F     F_    0.506999 0.054527 0.751919 -0.591456
H1    H     H_    0.462277 0.379875 0.948401 0.280727
H2    H     H_    0.282155 0.703646 0.938509 0.361541
H3    H     H_    0.843786 0.113439 0.138906 0.380289
H4    H     H_    0.156214 0.886560 0.861097 0.380290
H5    H     H_    0.537722 0.620125 0.051599 0.280728
H6    H     H_    0.960208 0.118826 0.248902 0.233549
H7    H     H_    0.039792 0.881173 0.751102 0.233548
H8    H     H_    0.100085 0.983476 0.345666 0.381679
H9    H     H_    0.899915 0.016523 0.654337 0.381680
H10   H     H_    0.653120 0.416691 0.045603 0.389834
H11   H     H_    0.346880 0.583308 0.954396 0.389834
H12   H     H_    0.717845 0.296352 0.061493 0.361540
N1    N     N_R   0.202154 0.508934 0.533911 -0.363459
N2    N     N_R   0.797846 0.491065 0.466090 -0.363459
N3    N     N_2   0.486510 0.456430 0.038510 -0.207650
N4    N     N_2   0.513490 0.543570 0.961490 -0.207650
O1    O     O_R   0.503500 0.286120 0.619780 -0.500415
O2    O     O_2   0.798451 0.766776 0.551591 -0.327241
O3    O     O_2   0.794870 0.214670 0.384975 -0.388057
O4    O     O_2   0.205129 0.785330 0.615027 -0.388057
O5    O     O_3   0.123234 0.074454 0.393150 -0.568722
O6    O     O_3   0.876766 0.925545 0.606852 -0.568723
O7    O     O_3   0.635932 0.396907 0.151579 -0.625249
O8    O     O_3   0.364068 0.603093 0.848422 -0.625249
O9    O     O_3   0.738963 0.380717 0.143517 -0.596343
O10   O     O_3   0.261037 0.619283 0.856484 -0.596343
O11   O     O_3   0.870789 0.082494 0.214272 -0.599755
O12   O     O_R   0.496500 0.713880 0.380220 -0.500416
O13   O     O_3   0.129211 0.917505 0.785731 -0.599755
O14   O     O_R   0.494410 0.256780 0.308360 -0.445228
O15   O     O_R   0.505590 0.743220 0.691640 -0.445227
O16   O     O_R   0.434810 0.514700 0.655690 -0.470406
O17   O     O_R   0.565190 0.485300 0.344310 -0.470406
O18   O     O_R   0.425720 0.485350 0.344280 -0.454571
O19   O     O_R   0.574280 0.514650 0.655720 -0.454571
O20   O     O_2   0.201549 0.233223 0.448408 -0.327241

loop_
_geom_bond_atom_site_label_1
_geom_bond_atom_site_label_2
_ccdc_geom_bond_type
Cu1   O16   S    
C27   C29   A    
Cu1   O15   S    
H12   O9    S    
C27   O10   S    
C24   C39   A    
C24   O2    S    
H4    O13   S    
C15   O13   S    
C29   O8    S    
C23   C42   A    
C17   O17   A    
C35   C37   A    
H1    N3    S    
C5    C11   A    
C20   F7    S    
Cu2   O14   S    
C11   C14   A    
H11   O8    S    
C22   C38   A    
H8    O5    S    
C16   O16   A    
C33   C36   A    
C40   O5    S    
C3    C29   A    
C18   C40   A    
C41   O6    S    
Cu1   N4    S    
C31   C33   A    
C22   O20   S    
C11   H6    S    
C24   N2    A    
C2    C34   A    
Cu1   O1    S    
C16   O18   A    
C26   O3    S    
Cu2   O18   S    
C35   F4    S    
N3    N4    D    
C26   N2    A    
C32   C35   A    
Cu2   O12   S    
C25   N1    A    
C39   C41   A    
C36   N1    S    
C1    O14   A    
C12   C21   S    
C1    O1    A    
C34   C39   A    
C12   O15   A    
Cu1   Cu2   S    
C22   N1    A    
C5    C9    A    
H3    O11   S    
C37   N2    S    
C2    C26   A    
C25   O4    S    
C14   O11   S    
C3    C31   A    
C28   O9    S    
C4    C32   A    
C4    C17   S    
C7    C19   A    
C13   C15   A    
C9    C34   A    
H9    O6    S    
H10   O7    S    
H5    N4    S    
Cu2   O17   S    
C7    C9    A    
C1    C20   S    
C17   O19   A    
C32   F2    S    
C15   C42   A    
C25   C42   A    
C6    C10   A    
C5    C8    A    
C6    C7    A    
C13   H7    S    
C10   C23   A    
C23   C38   A    
C27   C36   A    
Cu1   O19   S    
C28   C30   A    
C6    C13   A    
C38   C40   A    
C30   O7    S    
C19   F6    S    
C28   C37   A    
C33   F3    S    
C12   O12   A    
C2    C14   A    
C8    C18   A    
C20   C21   D    
C8    C10   A    
C31   F1    S    
Cu2   N3    S    
C21   F8    S    
C4    C30   A    
C3    C16   S    
C19   C41   A    
C18   F5    S    
H2    O10   S    
