data_str_m2_o4_o9_f0_pcu.sym.131
_audit_creation_date              2012-12-10T19:10:03-0500
_audit_creation_method            fapswitch 2.2
_symmetry_space_group_name_H-M    P1
_symmetry_Int_Tables_number       1
_space_group_crystal_system       triclinic
_cell_length_a                    10.841288
_cell_length_b                    10.811661
_cell_length_c                    9.539431
_cell_angle_alpha                 90.073534
_cell_angle_beta                  90.375581
_cell_angle_gamma                 90.017287
_cell_volume                      1118.11394311

loop_
_atom_site_label
_atom_site_type_symbol
_atom_type_description
_atom_site_fract_x
_atom_site_fract_y
_atom_site_fract_z
_atom_type_partial_charge
C1    C     C_R   0.501656 0.262497 0.499932 0.796742
C2    C     C_R   0.236658 0.709655 0.025308 -0.089406
C3    C     C_R   0.932450 0.546335 0.386497 -0.241123
C4    C     C_R   0.871585 0.495675 0.501968 -0.077473
C5    C     C_R   0.939711 0.448697 0.616840 0.018375
C6    C     C_R   0.067443 0.455209 0.614031 -0.241921
C7    C     C_R   0.128326 0.505781 0.498638 -0.082579
C8    C     C_R   0.060282 0.552805 0.383684 0.002185
C9    C     C_R   0.878338 0.447165 0.868629 -0.156024
C10   C     C_R   0.830556 0.386380 0.985610 -0.225417
C11   C     C_R   0.787480 0.265071 0.973620 -0.129767
C12   C     C_R   0.262308 0.503057 0.499425 0.785635
C13   C     C_R   0.792392 0.203929 0.844503 0.314772
C14   C     C_R   0.838809 0.264969 0.726624 -0.168520
C15   C     C_R   0.882430 0.386879 0.738403 0.087955
C16   C     C_R   0.480068 0.064499 0.621425 0.210718
C17   C     C_R   0.510973 0.129589 0.500944 -0.111125
C18   C     C_R   0.556790 0.064752 0.384755 -0.209191
C19   C     C_R   0.556997 0.935664 0.385439 -0.212132
C20   C     C_R   0.510469 0.871163 0.501592 -0.110946
C21   C     C_R   0.480080 0.937297 0.622147 0.185550
C22   C     C_3   0.366320 0.932361 0.709598 -0.497642
C23   C     C_R   0.501253 0.737766 0.500154 0.798103
C24   C     C_3   0.366487 0.072645 0.708252 -0.478753
C25   C     C_R   0.588278 0.563304 0.074206 0.242046
C26   C     C_R   0.420914 0.427290 0.073803 -0.047236
C27   C     C_R   0.420811 0.427367 0.924787 -0.074417
C28   C     C_R   0.588803 0.562641 0.926965 0.268031
C29   C     C_3   0.616070 0.697371 0.920226 -0.446845
C30   C     C_3   0.612999 0.698743 0.079105 -0.506629
C31   C     C_R   0.737679 0.496910 0.500691 0.799956
C32   C     C_R   0.247888 0.767985 0.155650 -0.122916
C33   C     C_R   0.188616 0.718542 0.272657 -0.089279
C34   C     C_R   0.118894 0.609458 0.259662 0.130530
C35   C     C_R   0.107665 0.551994 0.128204 -0.176429
C36   C     C_R   0.165941 0.602398 0.011376 -0.138259
Cu1   Cu    Cu3+1 0.499990 0.499980 0.640670 0.950491
Cu2   Cu    Cu3+1 0.500010 0.500020 0.359330 0.944180
H1    H     H_    0.283196 0.746667 0.935087 0.119868
H2    H     H_    0.751540 0.218279 0.064939 0.151150
H3    H     H_    0.843401 0.216891 0.627109 0.141970
H4    H     H_    0.588705 0.113243 0.292497 0.167409
H5    H     H_    0.590414 0.887119 0.294350 0.163614
H6    H     H_    0.286256 0.890552 0.653447 0.191961
H7    H     H_    0.385392 0.894792 0.815483 0.196974
H8    H     H_    0.286921 0.113211 0.650235 0.188288
H9    H     H_    0.385326 0.114175 0.812920 0.210060
H10   H     H_    0.354912 0.370790 0.129157 0.140278
H11   H     H_    0.303064 0.850983 0.166175 0.123980
H12   H     H_    0.354729 0.370903 0.868340 0.130737
H13   H     H_    0.709182 0.715990 0.876977 0.220040
H14   H     H_    0.540187 0.751691 0.872216 0.218869
H15   H     H_    0.703774 0.720484 0.128049 0.198341
H16   H     H_    0.533238 0.751720 0.119987 0.213441
H17   H     H_    0.198555 0.763803 0.373486 0.097801
H18   H     H_    0.056223 0.466772 0.117157 0.134475
H19   H     H_    0.158066 0.557188 0.910489 0.133873
H20   H     H_    0.880193 0.583966 0.299037 0.150480
H21   H     H_    0.119697 0.416447 0.700839 0.147768
H22   H     H_    0.911992 0.541036 0.879345 0.141022
H23   H     H_    0.827201 0.433213 0.085831 0.147954
N1    N     N_R   0.500790 0.500930 0.147930 -0.183097
N2    N     N_R   0.500790 0.500890 0.852020 -0.187541
O1    O     O_R   0.500000 0.319640 0.618810 -0.571660
O2    O     O_R   0.500010 0.319680 0.381230 -0.590569
O3    O     O_R   0.319640 0.499990 0.618790 -0.595693
O4    O     O_R   0.319650 0.500030 0.381210 -0.570070
O5    O     O_R   0.499990 0.680320 0.618770 -0.581248
O6    O     O_R   0.500000 0.680360 0.381190 -0.583921
O7    O     O_R   0.680350 0.499970 0.618790 -0.566745
O8    O     O_R   0.680360 0.500010 0.381210 -0.592657
Br1   Br    Br    0.741175 0.035336 0.831446 -0.608395

loop_
_geom_bond_atom_site_label_1
_geom_bond_atom_site_label_2
_ccdc_geom_bond_type
C23   O5    A    
C33   H17   S    
Cu2   O4    S    
C1    O2    A    
C3    H20   S    
C16   C21   A    
C13   Br1   S    
C11   C13   A    
C9    C10   A    
C23   O6    A    
C1    C17   S    
C19   C20   A    
C20   C23   S    
C26   H10   S    
C9    H22   S    
C24   H8    S    
C32   C33   A    
Cu1   O1    S    
Cu1   O5    S    
C31   O8    A    
C33   C34   A    
C26   N1    A    
Cu2   O6    S    
C7    C8    A    
C16   C24   S    
C17   C18   A    
C8    C34   S    
C13   C14   A    
Cu1   O3    S    
C25   C28   A    
C30   H16   S    
C26   C27   A    
C29   C30   S    
C27   N2    A    
C14   H3    S    
C5    C6    A    
C6    H21   S    
C21   C22   S    
C28   C29   S    
C12   O4    A    
Cu1   Cu2   S    
C19   H5    S    
C34   C35   A    
C6    C7    A    
C25   N1    A    
C18   H4    S    
C9    C15   A    
C11   H2    S    
C32   H11   S    
C30   H15   S    
C22   C24   S    
C7    C12   S    
C5    C15   S    
C10   H23   S    
C16   C17   A    
C10   C11   A    
C2    H1    S    
C24   H9    S    
C3    C4    A    
C4    C31   S    
C28   N2    A    
C22   H7    S    
C20   C21   A    
C36   H19   S    
C27   H12   S    
C2    C32   A    
C3    C8    A    
C29   H13   S    
C2    C36   A    
C25   C30   S    
C14   C15   A    
C18   C19   A    
Cu1   N2    S    
C35   H18   S    
Cu1   O7    S    
Cu2   O2    S    
C12   O3    A    
C1    O1    A    
C29   H14   S    
C31   O7    A    
C22   H6    S    
Cu2   O8    S    
C4    C5    A    
Cu2   N1    S    
C35   C36   A    
