data_str_m2_o40_o41_f0_fof.sym.19
_audit_creation_date              2012-10-26T17:12:42-0400
_audit_creation_method            fapswitch 2.2
_symmetry_space_group_name_H-M    P1
_symmetry_Int_Tables_number       1
_space_group_crystal_system       triclinic
_cell_length_a                    27.974603
_cell_length_b                    18.672134
_cell_length_c                    16.775955
_cell_angle_alpha                 89.950641
_cell_angle_beta                  62.783635
_cell_angle_gamma                 89.814187
_cell_volume                      7792.63074152

loop_
_atom_site_label
_atom_site_type_symbol
_atom_type_description
_atom_site_fract_x
_atom_site_fract_y
_atom_site_fract_z
_atom_type_partial_charge
C1    C     C_R   0.291688 0.721651 0.331871 0.549404
C2    C     C_R   0.590660 0.000195 0.530600 0.026318
C3    C     C_R   0.684594 0.725919 0.913677 0.026870
C4    C     C_R   0.109950 0.815511 0.050420 -0.102447
C5    C     C_R   0.880297 0.179502 0.958929 -0.080912
C6    C     C_R   0.839344 0.902279 0.003043 -0.106574
C7    C     C_R   0.151608 0.116293 0.011931 -0.096292
C8    C     C_R   0.611194 0.317390 0.050069 -0.097334
C9    C     C_R   0.379681 0.679119 0.959319 -0.091544
C10   C     C_R   0.333918 0.404380 0.014972 -0.097302
C11   C     C_R   0.607984 0.688072 0.049879 -0.095195
C12   C     C_R   0.137575 0.799872 0.099781 0.177413
C13   C     C_R   0.911090 0.499671 0.461706 0.026781
C14   C     C_R   0.851520 0.197573 0.911884 0.218348
C15   C     C_R   0.809757 0.887353 0.956771 0.203492
C16   C     C_R   0.170109 0.143409 0.069467 0.157780
C17   C     C_R   0.639531 0.302783 0.098423 0.189772
C18   C     C_R   0.350786 0.697483 0.912578 0.203909
C19   C     C_R   0.298374 0.393018 0.978552 0.205289
C20   C     C_R   0.632875 0.709852 0.101872 0.204642
C21   C     C_R   0.241897 0.693149 0.793044 -0.084216
C22   C     C_R   0.721175 0.209492 0.241403 -0.090615
C23   C     C_R   0.750680 0.708712 0.208961 -0.095721
C24   C     C_R   0.089417 0.500318 0.536108 0.026954
C25   C     C_R   0.237776 0.306551 0.799438 -0.105611
C26   C     C_R   0.742061 0.193356 0.792841 -0.086484
C27   C     C_R   0.220784 0.708245 0.242153 -0.087868
C28   C     C_R   0.271870 0.190033 0.193105 -0.089959
C29   C     C_R   0.764220 0.762718 0.781309 -0.099848
C30   C     C_R   0.271677 0.678487 0.838471 -0.017835
C31   C     C_R   0.691268 0.223571 0.196012 -0.062232
C32   C     C_R   0.716642 0.699383 0.169841 -0.063673
C33   C     C_R   0.262277 0.329659 0.850617 -0.078477
C34   C     C_R   0.772066 0.178842 0.837931 -0.025009
C35   C     C_R   0.583383 0.871151 0.546101 -0.088791
C36   C     C_R   0.190603 0.721536 0.196995 -0.054290
C37   C     C_R   0.247397 0.168424 0.141465 -0.068368
C38   C     C_R   0.784129 0.796042 0.833697 -0.071632
C39   C     C_R   0.922818 0.908525 0.069519 0.539476
C40   C     C_R   0.077032 0.091846 0.930716 0.546707
C41   C     C_R   0.071504 0.899484 0.935671 0.534987
C42   C     C_R   0.927814 0.099466 0.064936 0.543285
C43   C     C_R   0.422726 0.409226 0.069952 0.545233
C44   C     C_R   0.571836 0.599872 0.935354 0.547124
C45   C     C_R   0.571574 0.399571 0.935629 0.550758
C46   C     C_R   0.419050 0.128718 0.440871 -0.112845
C47   C     C_R   0.427718 0.599388 0.064998 0.538678
C48   C     C_R   0.042394 0.630066 0.520747 0.001640
C49   C     C_R   0.958329 0.369905 0.476375 0.013609
C50   C     C_R   0.960253 0.629513 0.468534 0.003024
C51   C     C_R   0.040364 0.370472 0.528858 0.017982
C52   C     C_R   0.543822 0.129923 0.514606 0.001292
C53   C     C_R   0.460489 0.869836 0.467866 0.022741
C54   C     C_R   0.461569 0.129499 0.462660 0.005551
C55   C     C_R   0.542510 0.870290 0.520400 0.020209
C56   C     C_R   0.021836 0.694867 0.506606 -0.101277
C57   C     C_R   0.418392 0.870314 0.445036 -0.087199
C58   C     C_R   0.978903 0.305103 0.490477 -0.068401
C59   C     C_R   0.982205 0.694525 0.477908 -0.102828
C60   C     C_R   0.018438 0.305453 0.519397 -0.058381
C61   C     C_R   0.523207 0.194755 0.500638 -0.104264
C62   C     C_R   0.481646 0.804996 0.480445 -0.034808
C63   C     C_R   0.483515 0.194486 0.472083 -0.105272
C64   C     C_R   0.521155 0.805255 0.509432 -0.043314
C65   C     C_R   0.979596 0.564712 0.484991 0.027557
C66   C     C_R   0.021159 0.435260 0.512105 0.027865
C67   C     C_R   0.022236 0.564933 0.507888 0.027300
C68   C     C_R   0.584393 0.129553 0.540967 -0.115901
C69   C     C_R   0.978548 0.435037 0.489133 0.029038
C70   C     C_R   0.481271 0.064639 0.478239 0.027820
C71   C     C_R   0.523285 0.935122 0.503965 0.029520
C72   C     C_R   0.523952 0.064816 0.501044 0.027191
C73   C     C_R   0.480666 0.934936 0.481002 0.028791
C74   C     C_R   0.458714 0.999717 0.470033 0.002570
C75   C     C_R   0.545484 0.000064 0.513234 0.002548
C76   C     C_R   0.956999 0.499778 0.476952 0.002119
C77   C     C_R   0.043721 0.500198 0.520254 0.002072
C78   C     C_R   0.388819 0.933863 0.451353 0.000538
C79   C     C_R   0.082085 0.371344 0.552593 -0.092726
C80   C     C_R   0.613314 0.066019 0.537946 0.000071
C81   C     C_R   0.612872 0.934471 0.540068 0.002152
C82   C     C_R   0.389094 0.065430 0.449714 0.001430
C83   C     C_R   0.887902 0.433863 0.455987 0.003094
C84   C     C_R   0.112486 0.566129 0.542174 0.000474
C85   C     C_R   0.111936 0.434593 0.544771 0.000684
C86   C     C_R   0.888388 0.565408 0.453576 0.000537
C87   C     C_R   0.336517 0.934257 0.455434 -0.022118
C88   C     C_R   0.664096 0.065619 0.539914 -0.023214
C89   C     C_R   0.663894 0.934592 0.540917 -0.021605
C90   C     C_R   0.918277 0.628666 0.445418 -0.115401
C91   C     C_R   0.336629 0.065435 0.454755 -0.025610
C92   C     C_R   0.836258 0.434283 0.457376 -0.021888
C93   C     C_R   0.163867 0.565701 0.541804 -0.022460
C94   C     C_R   0.163637 0.434617 0.542938 -0.022690
C95   C     C_R   0.836458 0.565397 0.456349 -0.024253
C96   C     C_R   0.312003 0.999933 0.456128 -0.159050
C97   C     C_R   0.687805 0.000037 0.542095 -0.157257
C98   C     C_R   0.812093 0.499922 0.456761 -0.159805
C99   C     C_R   0.187896 0.500081 0.542914 -0.158894
C100  C     C_R   0.917080 0.370293 0.451575 -0.096417
C101  C     C_R   0.703731 0.268472 0.671796 0.548152
C102  C     C_R   0.083418 0.629696 0.546052 -0.115221
C103  C     C_R   0.209105 0.746728 0.965024 -0.002605
C104  C     C_R   0.771109 0.214683 0.054182 0.004476
C105  C     C_R   0.763983 0.792347 0.063007 -0.004289
C106  C     C_R   0.217152 0.237074 0.960297 0.004283
C107  C     C_R   0.709997 0.247829 0.964126 -0.005270
C108  C     C_R   0.270324 0.713793 0.055016 0.018676
C109  C     C_R   0.272361 0.279160 0.057425 -0.001114
C110  C     C_R   0.708235 0.753094 0.966596 -0.001913
C111  C     C_R   0.259684 0.712467 0.919716 0.051074
C112  C     C_R   0.706748 0.725400 0.670190 0.552700
C113  C     C_R   0.716532 0.235844 0.103238 0.032987
C114  C     C_R   0.720365 0.743980 0.100114 0.038779
C115  C     C_R   0.250439 0.298702 0.933908 0.031335
C116  C     C_R   0.760411 0.213128 0.918874 0.042708
C117  C     C_R   0.215529 0.734220 0.104306 0.035718
C118  C     C_R   0.241359 0.215788 0.081150 0.028587
C119  C     C_R   0.755141 0.795355 0.926849 0.042667
C120  C     C_R   0.293999 0.707424 0.960749 0.034752
C121  C     C_R   0.688446 0.262982 0.057013 0.002262
C122  C     C_R   0.686430 0.735598 0.058377 0.006153
C123  C     C_R   0.296678 0.268169 0.328495 0.544419
C124  C     C_R   0.273412 0.324601 0.988811 0.007997
C125  C     C_R   0.794766 0.207943 0.959906 0.028010
C126  C     C_R   0.187102 0.761055 0.058271 0.000667
C127  C     C_R   0.208780 0.199069 0.039165 0.005885
C128  C     C_R   0.776133 0.826282 0.981059 0.004676
C129  C     C_R   0.133687 0.807936 0.956661 -0.028078
C130  C     C_R   0.855357 0.175468 0.052955 -0.023137
C131  C     C_R   0.837637 0.857093 0.071760 -0.032361
C132  C     C_R   0.156346 0.154750 0.936619 -0.022452
C133  C     C_R   0.634276 0.308788 0.956414 -0.024991
C134  C     C_R   0.791751 0.221752 0.331799 0.548705
C135  C     C_R   0.354867 0.674940 0.053309 -0.017016
C136  C     C_R   0.338590 0.354842 0.074009 -0.030084
C137  C     C_R   0.635250 0.688825 0.955213 -0.028595
C138  C     C_R   0.112302 0.840718 0.902485 -0.023651
C139  C     C_R   0.882769 0.151466 0.101890 -0.022874
C140  C     C_R   0.873392 0.864489 0.110606 -0.018957
C141  C     C_R   0.125291 0.138205 0.891186 -0.020244
C142  C     C_R   0.612475 0.340944 0.902458 -0.022785
C143  C     C_R   0.382505 0.651196 0.102032 -0.020434
C144  C     C_R   0.374321 0.364423 0.111952 -0.018534
C145  C     C_R   0.203746 0.768501 0.671798 0.547012
C146  C     C_R   0.614440 0.655566 0.900819 -0.019300
C147  C     C_R   0.134927 0.823577 0.811280 -0.158184
C148  C     C_R   0.861734 0.169170 0.192352 -0.154223
C149  C     C_R   0.860957 0.830319 0.191760 -0.160048
C150  C     C_R   0.139841 0.167900 0.807058 -0.153145
C151  C     C_R   0.634851 0.323439 0.811365 -0.158189
C152  C     C_R   0.361591 0.669058 0.192410 -0.152169
C153  C     C_R   0.362438 0.331480 0.193663 -0.157187
C154  C     C_R   0.638583 0.669920 0.809003 -0.153530
C155  C     C_R   0.178699 0.776773 0.771089 -0.022977
C156  C     C_R   0.203982 0.231101 0.671711 0.545469
C157  C     C_R   0.810316 0.198372 0.238475 -0.021964
C158  C     C_R   0.816526 0.785227 0.231940 -0.025127
C159  C     C_R   0.181386 0.217591 0.769725 -0.022853
C160  C     C_R   0.678723 0.276799 0.771066 -0.022408
C161  C     C_R   0.310123 0.698075 0.238677 -0.022579
C162  C     C_R   0.320604 0.282314 0.231101 -0.028716
C163  C     C_R   0.685896 0.709671 0.767251 -0.020556
C164  C     C_R   0.201135 0.745982 0.824781 0.014682
C165  C     C_R   0.777467 0.203525 0.194577 0.014624
C166  C     C_R   0.787816 0.765819 0.183437 0.018212
C167  C     C_R   0.795679 0.769491 0.328620 0.546076
C168  C     C_R   0.203630 0.246605 0.824675 0.015355
C169  C     C_R   0.701373 0.246297 0.824565 0.014635
C170  C     C_R   0.277085 0.702831 0.195074 0.013489
C171  C     C_R   0.297679 0.256226 0.177277 0.014913
C172  C     C_R   0.711668 0.733565 0.819234 0.020534
C173  C     C_R   0.196624 0.631682 0.527210 0.534196
C174  C     C_R   0.803421 0.368289 0.472545 0.558067
C175  C     C_R   0.803550 0.631721 0.472074 0.540359
C176  C     C_R   0.196485 0.368300 0.527723 0.550346
C177  C     C_R   0.696701 0.131615 0.526690 0.534507
C178  C     C_R   0.412263 0.999655 0.456381 0.027275
C179  C     C_R   0.303525 0.868232 0.471962 0.557721
C180  C     C_R   0.303599 0.131762 0.471695 0.543473
C181  C     C_R   0.696580 0.868339 0.527159 0.558338
C182  C     C_R   0.181259 0.767172 0.915462 0.025266
C183  C     C_R   0.801511 0.198442 0.100360 0.028409
C184  C     C_R   0.796562 0.805075 0.106118 0.024238
C185  C     C_R   0.191989 0.213309 0.907563 0.028923
C186  C     C_R   0.681838 0.267938 0.914986 0.025696
C187  C     C_R   0.300953 0.697738 0.100920 0.037358
C188  C     C_R   0.302943 0.296711 0.102670 0.025351
Cu1   Cu    Cu3+1 0.209920 0.785290 0.495070 0.978183
Cu2   Cu    Cu3+1 0.504760 0.500000 0.075850 1.014531
Cu3   Cu    Cu3+1 0.995240 0.000000 0.924150 0.941874
Cu4   Cu    Cu3+1 0.004760 0.000000 0.075850 1.072810
Cu5   Cu    Cu3+1 0.790080 0.214710 0.504930 0.986895
Cu6   Cu    Cu3+1 0.790080 0.785290 0.504930 0.956688
Cu7   Cu    Cu3+1 0.209920 0.214710 0.495070 0.994640
Cu8   Cu    Cu3+1 0.709920 0.285290 0.495070 0.969939
Cu9   Cu    Cu3+1 0.290080 0.714710 0.504930 0.981278
Cu10  Cu    Cu3+1 0.290080 0.285290 0.504930 0.934084
Cu11  Cu    Cu3+1 0.709920 0.714710 0.495070 0.976834
Cu12  Cu    Cu3+1 0.495240 0.500000 0.924150 0.936490
H1    H     H_    0.535999 0.754620 0.520958 0.144435
H2    H     H_    0.726956 0.999917 0.540514 0.166746
H3    H     H_    0.772262 0.500064 0.461040 0.164497
H4    H     H_    0.227540 0.499942 0.539396 0.162955
H5    H     H_    0.590048 0.821678 0.572482 0.158982
H6    H     H_    0.410714 0.178290 0.416740 0.145790
H7    H     H_    0.410329 0.820253 0.421883 0.163526
H8    H     H_    0.590862 0.179677 0.565927 0.152873
H9    H     H_    0.089529 0.321926 0.578172 0.158554
H10   H     H_    0.910562 0.678124 0.420256 0.148019
H11   H     H_    0.909781 0.320138 0.427673 0.154819
H12   H     H_    0.468612 0.245103 0.460632 0.130240
H13   H     H_    0.090438 0.679855 0.570284 0.152331
H14   H     H_    0.119424 0.849333 0.769945 0.161481
H15   H     H_    0.884810 0.157563 0.228029 0.167240
H16   H     H_    0.885071 0.840953 0.225810 0.158187
H17   H     H_    0.119501 0.150418 0.768932 0.165692
H18   H     H_    0.619106 0.348840 0.770159 0.160882
H19   H     H_    0.384821 0.657752 0.227905 0.167962
H20   H     H_    0.384691 0.345917 0.229787 0.159959
H21   H     H_    0.621138 0.647684 0.768620 0.164465
H22   H     H_    0.069322 0.834537 0.088007 0.172907
H23   H     H_    0.466301 0.754186 0.471020 0.152122
H24   H     H_    0.923396 0.173636 0.921271 0.174553
H25   H     H_    0.861396 0.951873 0.987217 0.181856
H26   H     H_    0.132438 0.064820 0.029947 0.175812
H27   H     H_    0.570721 0.336642 0.088481 0.169162
H28   H     H_    0.422791 0.673470 0.921510 0.172993
H29   H     H_    0.353290 0.456007 0.004739 0.168993
H30   H     H_    0.566138 0.673405 0.085030 0.177758
H31   H     H_    0.251188 0.661153 0.734377 0.159059
H32   H     H_    0.699352 0.200548 0.312849 0.150756
H33   H     H_    0.748590 0.668648 0.256852 0.152557
H34   H     H_    0.538661 0.245582 0.509753 0.134628
H35   H     H_    0.245260 0.338473 0.741387 0.159346
H36   H     H_    0.751048 0.161080 0.734493 0.162623
H37   H     H_    0.199188 0.699251 0.313623 0.151108
H38   H     H_    0.273272 0.152891 0.241593 0.142924
H39   H     H_    0.792989 0.757473 0.712045 0.157063
H40   H     H_    0.303308 0.638931 0.810827 0.214974
H41   H     H_    0.648166 0.223365 0.234105 0.187202
H42   H     H_    0.689603 0.654269 0.190936 0.187054
H43   H     H_    0.291802 0.371305 0.822349 0.194288
H44   H     H_    0.803491 0.139016 0.810343 0.221834
H45   H     H_    0.033053 0.254870 0.531563 0.146776
H46   H     H_    0.147582 0.720106 0.235247 0.192020
H47   H     H_    0.233942 0.113907 0.148736 0.176690
H48   H     H_    0.824501 0.817252 0.800956 0.170294
H49   H     H_    0.040417 0.781614 0.268295 0.328941
H50   H     H_    0.917774 0.110403 0.760574 0.347355
H51   H     H_    0.893739 0.952050 0.792721 0.332147
H52   H     H_    0.166565 0.012289 0.148850 0.349825
H53   H     H_    0.542848 0.292374 0.268796 0.326860
H54   H     H_    0.422246 0.615086 0.754835 0.333283
H55   H     H_    0.354709 0.507476 0.843612 0.336319
H56   H     H_    0.967498 0.745111 0.465945 0.136386
H57   H     H_    0.575668 0.603121 0.237613 0.356047
H58   H     H_    0.963285 0.254269 0.481780 0.144731
H59   H     H_    0.037447 0.745704 0.515311 0.137265
H60   H     H_    0.271726 0.000075 0.462304 0.166247
O1    O     O_R   0.255040 0.869590 0.478480 -0.495136
O2    O     O_R   0.817950 0.203450 0.375560 -0.511505
O3    O     O_R   0.817950 0.796550 0.375560 -0.509835
O4    O     O_R   0.182050 0.203450 0.624440 -0.505551
O5    O     O_R   0.682050 0.296550 0.624440 -0.512329
O6    O     O_R   0.317950 0.703450 0.375560 -0.510067
O7    O     O_R   0.317950 0.296550 0.375560 -0.514150
O8    O     O_R   0.682050 0.703450 0.624440 -0.507330
O9    O     O_R   0.250530 0.763330 0.367210 -0.498704
O10   O     O_R   0.749470 0.236670 0.632790 -0.504880
O11   O     O_R   0.749470 0.763330 0.632790 -0.514685
O12   O     O_R   0.744960 0.130410 0.521520 -0.507894
O13   O     O_R   0.250530 0.236670 0.367210 -0.490774
O14   O     O_R   0.750530 0.263330 0.367210 -0.499094
O15   O     O_R   0.249470 0.736670 0.632790 -0.506369
O16   O     O_R   0.249470 0.263330 0.632790 -0.517622
O17   O     O_R   0.750530 0.736670 0.367210 -0.506132
O18   O     O_R   0.177260 0.690030 0.513710 -0.536072
O19   O     O_R   0.822740 0.309970 0.486290 -0.512861
O20   O     O_R   0.822740 0.690030 0.486290 -0.529514
O21   O     O_R   0.177260 0.309970 0.513710 -0.515000
O22   O     O_R   0.677260 0.190030 0.513710 -0.537155
O23   O     O_R   0.744960 0.869590 0.521520 -0.494433
O24   O     O_R   0.322740 0.809970 0.486290 -0.513004
O25   O     O_R   0.322740 0.190030 0.486290 -0.521260
O26   O     O_R   0.677260 0.809970 0.513710 -0.514198
O27   O     O_R   0.051640 0.926880 0.885090 -0.511630
O28   O     O_R   0.948360 0.073120 0.114910 -0.492094
O29   O     O_R   0.948360 0.926880 0.114910 -0.507025
O30   O     O_R   0.051640 0.073120 0.885090 -0.510884
O31   O     O_R   0.551640 0.426880 0.885090 -0.506415
O32   O     O_R   0.448360 0.573120 0.114910 -0.506331
O33   O     O_R   0.448360 0.426880 0.114910 -0.511632
O34   O     O_R   0.255040 0.130410 0.478480 -0.503810
O35   O     O_R   0.551640 0.573120 0.885090 -0.506568
O36   O     O_R   0.940620 0.926560 0.986760 -0.527576
O37   O     O_R   0.059380 0.073440 0.013240 -0.491747
O38   O     O_R   0.059380 0.926560 0.013240 -0.508341
O39   O     O_R   0.940620 0.073440 0.986760 -0.526192
O40   O     O_R   0.440620 0.426560 0.986760 -0.520611
O41   O     O_R   0.559380 0.573440 0.013240 -0.508979
O42   O     O_R   0.559380 0.426560 0.013240 -0.493470
O43   O     O_R   0.440620 0.573440 0.986760 -0.530107
O44   O     O_2   0.157487 0.865919 0.225598 -0.232201
O45   O     O_R   0.755040 0.369590 0.478480 -0.496633
O46   O     O_2   0.083963 0.912970 0.201129 -0.244070
O47   O     O_3   0.068079 0.793804 0.287389 -0.539081
O48   O     O_2   0.862335 0.274017 0.767154 -0.244451
O49   O     O_2   0.943703 0.250596 0.781905 -0.286243
O50   O     O_3   0.903016 0.145504 0.733231 -0.500356
O51   O     O_2   0.758088 0.949316 0.871769 -0.232613
O52   O     O_2   0.810575 0.027173 0.918584 -0.319542
O53   O     O_3   0.862283 0.944728 0.781474 -0.518077
O54   O     O_2   0.133216 0.175378 0.245526 -0.244277
O55   O     O_2   0.073860 0.107703 0.203236 -0.229939
O56   O     O_R   0.244960 0.630410 0.521520 -0.511487
O57   O     O_3   0.154157 0.040419 0.204874 -0.454593
O58   O     O_2   0.663176 0.370041 0.219390 -0.233293
O59   O     O_2   0.590831 0.420391 0.194219 -0.270684
O60   O     O_3   0.571215 0.303727 0.286568 -0.543745
O61   O     O_2   0.360880 0.775598 0.769423 -0.245298
O62   O     O_2   0.442369 0.753121 0.784083 -0.284943
O63   O     O_3   0.403063 0.648014 0.732819 -0.520835
O64   O     O_2   0.222659 0.461336 0.947687 -0.238102
O65   O     O_2   0.272980 0.532754 0.005047 -0.300565
O66   O     O_3   0.321966 0.493552 0.838863 -0.547771
O67   O     O_R   0.244960 0.369590 0.521520 -0.506227
O68   O     O_2   0.612716 0.772296 0.259866 -0.243865
O69   O     O_2   0.535337 0.737725 0.238439 -0.294385
O70   O     O_3   0.588909 0.637104 0.268299 -0.506309
O71   O     O_R   0.755040 0.630410 0.478480 -0.507979
O72   O     O_R   0.182050 0.796550 0.624440 -0.512050
S1    S     S_3+6 0.112490 0.845557 0.204703 -0.004309
S2    S     S_3+6 0.890753 0.219630 0.796562 -0.001563
S3    S     S_3+6 0.808521 0.954283 0.882294 -0.012691
S4    S     S_3+6 0.131409 0.118145 0.184008 0.029795
S5    S     S_3+6 0.616971 0.351631 0.200763 -0.003802
S6    S     S_3+6 0.389848 0.721273 0.797812 -0.012641
S7    S     S_3+6 0.276923 0.471733 0.943861 -0.024970
S8    S     S_3+6 0.591456 0.716713 0.219610 -0.006837

loop_
_geom_bond_atom_site_label_1
_geom_bond_atom_site_label_2
_ccdc_geom_bond_type
H51   O53   S    
C54   C70   A    
C61   H34   S    
C99   H4    S    
O53   S3    S    
C97   H2    S    
C64   H1    S    
C147  H14   S    
C12   S1    S    
C88   C177  S    
C27   H37   S    
O59   S5    D    
C50   C59   A    
Cu12  O40   S    
Cu1   O9    S    
C145  O15   A    
C181  O23   A    
Cu8   O22   S    
C52   C61   A    
C20   S8    S    
C12   C126  A    
C54   C63   A    
C26   H36   S    
C47   C143  S    
C44   O41   A    
Cu9   O6    S    
C61   C63   A    
C103  C126  A    
C95   C175  S    
C153  H20   S    
C62   C64   A    
C131  C140  A    
C91   C96   A    
C50   C90   A    
C162  C171  A    
C170  C187  A    
C70   C74   A    
C4    C12   A    
C147  C155  A    
C24   C85   A    
C112  O8    A    
O69   S8    D    
C88   C97   A    
O54   S4    D    
Cu7   Cu10  S    
C119  C128  A    
C49   C69   A    
C43   C144  S    
O48   S2    D    
C109  C118  A    
C17   S5    S    
C179  O24   A    
C150  C159  A    
Cu2   Cu12  S    
Cu3   Cu4   S    
C165  C183  A    
C137  C146  A    
C166  C184  A    
C175  O20   A    
C86   C90   A    
C71   C73   A    
C106  C127  A    
C82   C91   A    
C51   C66   A    
C89   C181  S    
C142  C151  A    
C145  O72   A    
O47   S1    S    
C52   C72   A    
C131  C184  A    
C105  C114  A    
C102  H13   S    
C74   C178  A    
C82   C178  A    
C36   C117  A    
C7    C132  A    
C38   C119  A    
Cu7   O34   S    
C5    C130  A    
C83   C100  A    
C43   O33   A    
Cu1   O72   S    
C45   C142  S    
C158  C167  S    
C177  O12   A    
C79   C85   A    
C173  O18   A    
Cu1   Cu9   S    
C66   C77   A    
C39   C140  S    
C32   H42   S    
C57   C78   A    
C30   H40   S    
C8    C17   A    
C37   H47   S    
C56   C59   A    
C106  C115  A    
Cu10  O7    S    
C80   C88   A    
C179  O1    A    
C93   C173  S    
Cu12  O31   S    
C9    H28   S    
C84   C93   A    
C105  C184  A    
C156  O16   A    
C86   C95   A    
C24   C77   A    
C104  C183  A    
C42   O39   A    
C2    C81   A    
C41   O27   A    
C58   C60   A    
C55   C71   A    
C2    C75   A    
C78   C87   A    
Cu5   O19   S    
Cu6   O20   S    
C39   O29   A    
C84   C102  A    
C67   C77   A    
Cu3   O27   S    
C133  C142  A    
O52   S3    D    
C58   H58   S    
C130  C183  A    
C4    H22   S    
C1    O9    A    
C3    C110  A    
C6    H25   S    
C69   C76   A    
C85   C94   A    
Cu12  O43   S    
C180  O25   A    
C46   C82   A    
H54   O63   S    
C101  C160  S    
Cu4   O29   S    
C29   C38   A    
C149  C158  A    
C167  O17   A    
C20   C122  A    
C152  C161  A    
C135  C143  A    
C174  O19   A    
C60   H45   S    
C48   C67   A    
C40   C141  S    
C136  C188  A    
C174  O45   A    
C72   C75   A    
C112  O11   A    
C135  C187  A    
C141  C150  A    
C25   C168  A    
Cu4   O38   S    
C139  C148  A    
C1    O6    A    
C98   H3    S    
C157  C165  A    
C92   C174  S    
C45   O42   A    
Cu2   O41   S    
Cu7   O13   S    
Cu10  O67   S    
O65   S7    D    
O62   S6    D    
Cu5   Cu8   S    
C38   H48   S    
C91   C180  S    
C45   O31   A    
C167  O3    A    
O68   S8    D    
C9    C135  A    
O58   S5    D    
C116  C125  A    
C33   H43   S    
C118  C127  A    
Cu8   O14   S    
C117  C126  A    
C132  C141  A    
C46   H6    S    
C180  O34   A    
C108  C117  A    
C110  C119  A    
Cu11  O8    S    
Cu1   O18   S    
C100  H11   S    
Cu5   O2    S    
Cu7   O4    S    
C181  O26   A    
O61   S6    D    
C28   C37   A    
C150  H17   S    
C148  C157  A    
C50   C65   A    
C51   C79   A    
C107  C116  A    
C104  C113  A    
C23   H33   S    
C9    C18   A    
C5    H24   S    
C113  C121  A    
O63   S6    S    
C51   C60   A    
C140  C149  A    
C31   C113  A    
C123  O13   A    
C25   C33   A    
C16   S4    S    
C43   O40   A    
C73   C74   A    
Cu4   O28   S    
C175  O71   A    
H49   O47   S    
C107  C186  A    
C65   C76   A    
C171  C188  A    
C40   O37   A    
C169  C186  A    
C108  C120  A    
C3    C172  A    
C130  C139  A    
O57   S4    S    
C152  H19   S    
Cu8   O45   S    
C103  C111  A    
C28   H38   S    
C15   S3    S    
Cu2   O32   S    
C104  C125  A    
C65   C67   A    
C68   H8    S    
C160  C169  A    
C173  O56   A    
C40   O30   A    
C3    C137  A    
C93   C99   A    
C81   C89   A    
C8    C133  A    
C1    C161  S    
C21   C164  A    
C47   O32   A    
C18   S6    S    
C14   S2    S    
C11   C20   A    
C53   C73   A    
C33   C115  A    
C34   H44   S    
Cu6   O3    S    
C53   C57   A    
O44   S1    D    
C132  C185  A    
Cu3   O39   S    
C10   C19   A    
C96   H60   S    
C48   C102  A    
C46   C54   A    
Cu1   O1    S    
C27   C170  A    
C5    C14   A    
C17   C121  A    
C143  C152  A    
C7    H26   S    
C15   C128  A    
C56   H59   S    
C107  C121  A    
O46   S1    D    
C158  C166  A    
C79   H9    S    
C112  C163  S    
C101  O5    A    
C115  C124  A    
C59   H56   S    
C78   C178  A    
O64   S7    D    
C31   H41   S    
C106  C185  A    
O70   S8    S    
C6    C131  A    
O55   S4    D    
C4    C129  A    
Cu9   O56   S    
C27   C36   A    
C21   C30   A    
C13   C83   A    
C153  C162  A    
C23   C32   A    
C154  H21   S    
O49   S2    D    
C11   C137  A    
C136  C144  A    
C110  C122  A    
Cu11  O17   S    
C163  C172  A    
C19   S7    S    
C63   H12   S    
O60   S5    S    
C164  C182  A    
C123  O7    A    
C94   C176  S    
C21   H31   S    
C68   C80   A    
Cu3   O30   S    
C103  C182  A    
C36   H46   S    
C108  C187  A    
C35   C81   A    
C95   C98   A    
C92   C98   A    
Cu11  O71   S    
C83   C92   A    
C14   C125  A    
H57   O70   S    
C10   C136  A    
Cu9   O15   S    
C66   C69   A    
Cu10  O16   S    
C34   C116  A    
Cu2   O42   S    
H55   O66   S    
C159  C168  A    
C41   O38   A    
C144  C153  A    
C6    C15   A    
C22   C165  A    
C35   H5    S    
C129  C138  A    
C26   C169  A    
C44   O35   A    
C146  C154  A    
C13   C86   A    
C44   C146  S    
C52   C68   A    
Cu10  O25   S    
C134  O2    A    
C156  O4    A    
Cu5   O10   S    
Cu8   O5    S    
C16   C127  A    
C8    H27   S    
C26   C34   A    
C109  C188  A    
C19   C124  A    
C22   C31   A    
C37   C118  A    
C35   C55   A    
C154  C163  A    
C90   H10   S    
C123  C162  S    
C10   H29   S    
C49   C58   A    
C89   C97   A    
C111  C120  A    
C114  C122  A    
C176  O21   A    
O66   S7    S    
C23   C166  A    
O51   S3    D    
C53   C62   A    
C177  O22   A    
C28   C171  A    
Cu6   Cu11  S    
C13   C76   A    
C138  C147  A    
C87   C96   A    
Cu2   O33   S    
C129  C182  A    
C41   C138  S    
C151  H18   S    
C62   H23   S    
C133  C186  A    
C161  C170  A    
Cu3   O36   S    
C11   H30   S    
Cu6   O23   S    
C134  O14   A    
Cu12  O35   S    
C148  H15   S    
C18   C120  A    
Cu4   O37   S    
C48   C56   A    
C7    C16   A    
C168  C185  A    
C105  C128  A    
C42   C139  S    
C156  C159  S    
C47   O43   A    
C109  C124  A    
C55   C64   A    
C155  C164  A    
C101  O10   A    
C57   H7    S    
C30   C111  A    
Cu7   O21   S    
C151  C160  A    
C24   C84   A    
C149  H16   S    
Cu11  O26   S    
C49   C100  A    
C71   C75   A    
C94   C99   A    
H52   O57   S    
H53   O60   S    
C29   C172  A    
Cu9   O24   S    
C2    C80   A    
C176  O67   A    
C87   C179  S    
C145  C155  S    
H50   O50   S    
C134  C157  S    
C22   H32   S    
C25   H35   S    
C39   O36   A    
Cu5   O12   S    
C70   C72   A    
Cu6   O11   S    
C32   C114  A    
C29   H39   S    
C42   O28   A    
O50   S2    S    
