data_str_m3_o4_o16_f0_pcu.sym.188
_audit_creation_date              2012-12-10T20:30:11-0500
_audit_creation_method            fapswitch 2.2
_symmetry_space_group_name_H-M    P1
_symmetry_Int_Tables_number       1
_space_group_crystal_system       triclinic
_cell_length_a                    9.890091
_cell_length_b                    10.684211
_cell_length_c                    13.084194
_cell_angle_alpha                 89.892023
_cell_angle_beta                  69.149695
_cell_angle_gamma                 88.713111
_cell_volume                      1291.68458508

loop_
_atom_site_label
_atom_site_type_symbol
_atom_type_description
_atom_site_fract_x
_atom_site_fract_y
_atom_site_fract_z
_atom_type_partial_charge
C1    C     C_R   0.498337 0.739913 0.501236 0.904842
C2    C     C_R   0.433352 0.482792 0.986157 0.102744
C3    C     C_R   0.457624 0.445040 0.878000 0.043515
C4    C     C_R   0.545395 0.464249 0.028206 0.127707
C5    C     C_R   0.667750 0.387377 0.971450 0.176420
C6    C     C_R   0.680313 0.335022 0.870946 -0.214456
C7    C     C_R   0.576952 0.363655 0.824518 -0.151940
C8    C     C_R   0.538227 0.520249 0.125970 -0.168186
C9    C     C_R   0.753836 0.406581 0.122498 -0.137467
C10   C     C_R   0.362513 0.490238 0.826064 -0.276070
C11   C     C_R   0.463041 0.936859 0.420553 0.064538
C12   C     C_R   0.418173 0.496449 0.705416 0.896359
C13   C     C_R   0.500218 0.872219 0.499368 -0.079791
C14   C     C_R   0.564995 0.934583 0.563410 -0.190692
C15   C     C_R   0.571383 0.063710 0.559437 -0.193729
C16   C     C_R   0.512981 0.128673 0.491235 -0.147097
C17   C     C_R   0.471920 0.064811 0.414756 0.108704
C18   C     C_3   0.339103 0.079263 0.386226 0.311401
C19   C     C_3   0.325337 0.938641 0.398219 -0.544513
C20   C     C_R   0.898707 0.587727 0.558849 0.250099
C21   C     C_R   0.954034 0.407204 0.449753 -0.146544
C22   C     C_R   0.097663 0.407249 0.449813 -0.123994
C23   C     C_R   0.502927 0.260412 0.497566 0.883981
C24   C     C_R   0.041818 0.588472 0.557669 0.393544
C25   C     C_3   0.051301 0.725061 0.535725 -0.527819
C26   C     C_3   0.896140 0.725146 0.541488 -0.524701
C27   C     C_R   0.581223 0.499790 0.295301 0.891726
C28   C     C_R   0.772996 0.361131 0.018169 -0.120114
C29   C     C_R   0.632997 0.483102 0.177454 -0.039071
C30   C     C_R   0.224985 0.543154 0.891310 0.382354
C31   C     C_R   0.193017 0.559602 0.003259 -0.202013
C32   C     C_R   0.296583 0.534311 0.049508 -0.233118
H1    H     H_    0.827921 0.376361 0.162321 0.152818
H2    H     H_    0.612505 0.112754 0.614347 0.153369
H3    H     H_    0.249038 0.132479 0.447810 0.071953
H4    H     H_    0.334858 0.886458 0.322433 0.246712
H5    H     H_    0.921947 0.333769 0.406905 0.172439
H6    H     H_    0.173238 0.334109 0.406877 0.201219
H7    H     H_    0.066634 0.779886 0.602594 0.254557
H8    H     H_    0.770827 0.273062 0.827591 0.150564
H9    H     H_    0.865404 0.300300 0.976775 0.127991
H10   H     H_    0.453485 0.587591 0.167728 0.134355
H11   H     H_    0.264504 0.551153 0.136333 0.165326
H12   H     H_    0.088814 0.597294 0.055379 0.195380
H13   H     H_    0.589742 0.319013 0.747376 0.156717
H14   H     H_    0.603023 0.884281 0.620259 0.156158
N1    N     N_R   0.856940 0.500860 0.500710 -0.120985
N2    N     N_R   0.142580 0.500820 0.500710 -0.122152
O1    O     O_R   0.385310 0.683210 0.499990 -0.606475
O2    O     O_R   0.614650 0.683240 0.500000 -0.625758
O3    O     O_R   0.328390 0.499940 0.653610 -0.525731
O4    O     O_R   0.557730 0.499980 0.653620 -0.614549
O5    O     O_R   0.385350 0.316760 0.500000 -0.622934
O6    O     O_R   0.614690 0.316790 0.500010 -0.626682
O7    O     O_R   0.442270 0.500020 0.346380 -0.589496
O8    O     O_R   0.671610 0.500060 0.346390 -0.620419
Zn1   Zn    Zn3+2 0.346870 0.499980 0.499990 1.018709
Zn2   Zn    Zn3+2 0.653130 0.500020 0.500010 0.952935
S1    S     S_3+6 0.379504 0.129714 0.248196 0.001028
O9    O     O_2   0.252157 0.105847 0.214410 -0.291792
O10   O     O_2   0.408727 0.267201 0.241116 -0.339722
O11   O     O_3   0.526004 0.050946 0.164258 -0.540288
H15   H     H_    0.550727 0.093592 0.092829 0.381843
H16   H     H_    0.232463 0.915244 0.472287 0.175431
H17   H     H_    0.127806 0.743144 0.451712 0.201705
H18   H     H_    0.820864 0.775047 0.614756 0.216556
H19   H     H_    0.883956 0.750720 0.462746 0.233323
S2    S     S_3+6 0.090044 0.593213 0.838839 0.020605
O12   O     O_2   0.956064 0.640387 0.928979 -0.293172
O13   O     O_2   0.148706 0.697551 0.759356 -0.294975
O14   O     O_3   0.044881 0.473920 0.774475 -0.548264
H20   H     H_    0.051541 0.398317 0.816435 0.325082

loop_
_geom_bond_atom_site_label_1
_geom_bond_atom_site_label_2
_ccdc_geom_bond_type
C2    C4    A    
C6    C7    A    
O3    Zn1   S    
C27   O7    A    
C27   C29   S    
C5    C28   A    
N2    Zn1   S    
C1    O2    A    
C10   C30   A    
C15   H2    S    
C22   N2    A    
C31   C32   A    
C9    C29   A    
C19   H16   S    
C4    C8    A    
C24   N2    A    
C17   C18   S    
O1    Zn1   S    
S1    O9    D    
C14   H14   S    
C3    C10   A    
C30   S2    S    
C21   C22   A    
C25   H7    S    
N1    Zn2   S    
C9    H1    S    
C11   C13   A    
C30   C31   A    
C11   C19   S    
O11   H15   S    
C10   C12   S    
S2    O14   S    
C26   H19   S    
C7    H13   S    
S2    O13   D    
C12   O4    A    
C32   H11   S    
O8    Zn2   S    
C23   O5    A    
C16   C23   S    
C2    C3    A    
C19   H4    S    
O7    Zn1   S    
O6    Zn2   S    
C5    C6    A    
O4    Zn2   S    
C13   C14   A    
C6    H8    S    
S1    O10   D    
C20   N1    A    
C1    C13   S    
C31   H12   S    
C8    C29   A    
C15   C16   A    
O2    Zn2   S    
C18   S1    S    
O14   H20   S    
C12   O3    A    
C21   H5    S    
C24   C25   S    
C23   O6    A    
C2    C32   A    
C18   C19   S    
C18   H3    S    
C25   H17   S    
O5    Zn1   S    
C27   O8    A    
C16   C17   A    
S1    O11   S    
C3    C7    A    
C21   N1    A    
C25   C26   S    
C14   C15   A    
C1    O1    A    
S2    O12   D    
C11   C17   A    
C28   H9    S    
C20   C24   A    
C9    C28   A    
C8    H10   S    
C4    C5    A    
C20   C26   S    
C22   H6    S    
C26   H18   S    
