data_str_m2_o11_o16_f0_pcu.sym.22
_audit_creation_date              2012-10-26T19:40:37-0400
_audit_creation_method            fapswitch 2.2
_symmetry_space_group_name_H-M    P1
_symmetry_Int_Tables_number       1
_space_group_crystal_system       triclinic
_cell_length_a                    9.960608
_cell_length_b                    10.9213
_cell_length_c                    13.188243
_cell_angle_alpha                 90.515378
_cell_angle_beta                  73.064177
_cell_angle_gamma                 89.62438
_cell_volume                      1372.31660002

loop_
_atom_site_label
_atom_site_type_symbol
_atom_type_description
_atom_site_fract_x
_atom_site_fract_y
_atom_site_fract_z
_atom_type_partial_charge
C1    C     C_R   0.499961 0.733787 0.499148 0.548816
C2    C     C_R   0.380872 0.494634 0.816255 -0.009197
C3    C     C_2   0.610012 0.066173 0.499279 -0.173188
C4    C     C_R   0.424211 0.497282 0.699910 0.531854
C5    C     C_2   0.494759 0.134041 0.507881 -0.122873
C6    C     C_2   0.607573 0.932193 0.504396 -0.167250
C7    C     C_2   0.498892 0.866109 0.494788 -0.121456
C8    C     C_2   0.044248 0.517018 0.582184 -0.010431
C9    C     C_2   0.901053 0.551031 0.571462 0.143707
C10   C     C_R   0.499560 0.266230 0.501552 0.548808
C11   C     C_R   0.576681 0.499247 0.299129 0.539128
C12   C     C_R   0.425442 0.448742 0.983724 0.053148
C13   C     C_R   0.780972 0.407453 0.013854 0.022756
C14   C     C_R   0.619150 0.483372 0.181677 -0.014531
C15   C     C_R   0.267640 0.568700 0.872429 -0.158771
C16   C     C_R   0.223926 0.568342 0.982982 -0.154058
C17   C     C_R   0.289898 0.491230 0.038551 0.020157
C18   C     C_3   0.870798 0.532657 0.147886 -0.274365
C19   C     C_3   0.845288 0.671303 0.158355 -0.428851
C20   C     C_3   0.819346 0.644073 0.651711 -0.246906
C21   C     C_3   0.896964 0.765581 0.641683 -0.470423
C22   C     C_3   0.914557 0.393935 0.439072 -0.094032
C23   C     C_R   0.461560 0.433542 0.872970 -0.012408
C24   C     C_3   0.921525 0.282728 0.507912 -0.406388
C25   C     C_3   0.759778 0.206911 0.842034 -0.287893
C26   C     C_3   0.673601 0.095783 0.828502 -0.445334
C27   C     C_3   0.929270 0.395662 0.937345 -0.273135
C28   C     C_3   0.019765 0.300817 0.973252 -0.440731
C29   C     C_3   0.208788 0.442513 0.147853 -0.285618
C30   C     C_3   0.255924 0.316149 0.176272 -0.430039
C31   C     C_R   0.532162 0.436899 0.033102 0.002445
C32   C     C_R   0.661968 0.381748 0.977587 0.035568
C33   C     C_R   0.668358 0.319067 0.881016 -0.000650
C34   C     C_R   0.575837 0.356162 0.824662 -0.112924
C35   C     C_R   0.516047 0.491220 0.132152 -0.156011
C36   C     C_R   0.757189 0.465728 0.116408 0.017098
Cu1   Cu    Cu3+1 0.361370 0.499980 0.499980 0.905824
Cu2   Cu    Cu3+1 0.638630 0.500020 0.500020 0.884521
H1    H     H_    0.392019 0.093910 0.521934 0.101929
H2    H     H_    0.936550 0.716205 0.174846 0.126830
H3    H     H_    0.887828 0.495123 0.220685 0.157399
H4    H     H_    0.967393 0.519957 0.086402 0.140213
H5    H     H_    0.057584 0.514160 0.660887 0.129047
H6    H     H_    0.997039 0.754526 0.661929 0.151116
H7    H     H_    0.919502 0.800593 0.559643 0.151499
H8    H     H_    0.830710 0.834000 0.697109 0.128478
H9    H     H_    0.715472 0.663863 0.642253 0.216327
H10   H     H_    0.802874 0.607719 0.732855 0.118522
H11   H     H_    0.010800 0.288566 0.541751 0.150465
H12   H     H_    0.700498 0.887176 0.514118 0.146752
H13   H     H_    0.823040 0.274260 0.573769 0.163844
H14   H     H_    0.937985 0.198274 0.458182 0.097593
H15   H     H_    0.852361 0.366365 0.385781 0.179072
H16   H     H_    0.017289 0.413633 0.382572 0.082643
H17   H     H_    0.586735 0.080518 0.902134 0.158459
H18   H     H_    0.629617 0.108224 0.760956 0.147853
H19   H     H_    0.742153 0.013080 0.812030 0.131112
H20   H     H_    0.838976 0.226268 0.765175 0.130241
H21   H     H_    0.813521 0.180288 0.900851 0.159719
H22   H     H_    0.006733 0.207996 0.943348 0.129871
H23   H     H_    0.406930 0.907657 0.481067 0.100769
H24   H     H_    0.992367 0.296440 0.060816 0.150169
H25   H     H_    0.132276 0.324156 0.940898 0.162477
H26   H     H_    0.930755 0.373948 0.855101 0.135178
H27   H     H_    0.980103 0.486406 0.927072 0.136796
H28   H     H_    0.212068 0.625819 0.830878 0.117053
H29   H     H_    0.168822 0.273753 0.238339 0.122368
H30   H     H_    0.283117 0.253964 0.105945 0.152219
H31   H     H_    0.345402 0.321976 0.209701 0.175030
H32   H     H_    0.199828 0.511223 0.212032 0.126691
H33   H     H_    0.102377 0.423788 0.147170 0.127575
H34   H     H_    0.142449 0.535740 0.431448 0.215886
H35   H     H_    0.710490 0.109461 0.489198 0.140644
H36   H     H_    0.423326 0.542595 0.172623 0.141035
H37   H     H_    0.139452 0.628655 0.024235 0.109472
H38   H     H_    0.589896 0.319673 0.745685 0.144379
H39   H     H_    0.832853 0.708278 0.083351 0.141234
H40   H     H_    0.750470 0.694840 0.224367 0.171471
N1    N     N_2   0.152660 0.501340 0.501130 -0.364023
N2    N     N_2   0.846520 0.501370 0.501160 -0.233187
O1    O     O_R   0.382960 0.678040 0.499980 -0.492754
O2    O     O_R   0.617100 0.678080 0.500020 -0.506688
O3    O     O_R   0.325800 0.499940 0.650950 -0.495962
O4    O     O_R   0.559930 0.499980 0.650990 -0.517905
O5    O     O_R   0.382900 0.321920 0.499980 -0.484832
O6    O     O_R   0.617040 0.321960 0.500020 -0.516426
O7    O     O_R   0.440070 0.500020 0.349010 -0.504163
O8    O     O_R   0.674200 0.500060 0.349050 -0.509858

loop_
_geom_bond_atom_site_label_1
_geom_bond_atom_site_label_2
_ccdc_geom_bond_type
C24   H14   S    
C35   H36   S    
C16   H37   S    
C17   C29   S    
C13   C32   A    
C8    H5    S    
C3    C6    S    
C26   H17   S    
C10   O5    A    
Cu1   N1    S    
C12   C23   A    
Cu1   Cu2   S    
Cu2   O6    S    
Cu1   O5    S    
C29   H32   S    
H34   N1    S    
C18   H4    S    
C14   C36   A    
C11   C14   S    
C1    O1    A    
C15   C16   A    
C18   C19   S    
C19   H39   S    
C7    H23   S    
C11   O7    A    
C8    C9    S    
C12   C17   A    
C8    N1    D    
C30   H29   S    
C24   H13   S    
Cu2   O2    S    
Cu1   O1    S    
C22   H15   S    
C21   H7    S    
C28   H22   S    
C13   C36   A    
C22   H16   S    
C27   H26   S    
C18   H3    S    
C14   C35   A    
C16   C17   A    
C1    O2    A    
C15   H28   S    
Cu2   O8    S    
C9    N2    D    
C19   H40   S    
C2    C4    S    
C29   C30   S    
C27   H27   S    
C21   H6    S    
C9    C20   S    
C31   C32   A    
C4    O4    A    
C11   O8    A    
C23   C34   A    
C33   C34   A    
C6    H12   S    
C2    C15   A    
C20   H10   S    
C5    H1    S    
C12   C31   A    
C31   C35   A    
C25   H20   S    
C2    C23   A    
C30   H31   S    
C21   H8    S    
C24   H11   S    
C10   O6    A    
Cu2   O4    S    
C1    C7    S    
Cu1   O7    S    
C13   C27   S    
C3    C5    D    
C26   H18   S    
C6    C7    D    
C32   C33   A    
C25   C26   S    
C22   N2    S    
C5    C10   S    
C4    O3    A    
Cu2   N2    S    
C22   C24   S    
C3    H35   S    
C26   H19   S    
C20   H9    S    
C19   H2    S    
C28   H25   S    
C20   C21   S    
C34   H38   S    
C27   C28   S    
Cu1   O3    S    
C25   H21   S    
C18   C36   S    
C30   H30   S    
C25   C33   S    
C29   H33   S    
C28   H24   S    
