data_str_m2_o5_o17_f0_pcu.sym.1
_audit_creation_date              2013-03-05T16:34:52-0500
_audit_creation_method            fapswitch 2.2
_symmetry_space_group_name_H-M    P1
_symmetry_Int_Tables_number       1
_space_group_crystal_system       triclinic
_cell_length_a                    15.056724
_cell_length_b                    9.247926
_cell_length_c                    7.786857
_cell_angle_alpha                 90.0
_cell_angle_beta                  89.99998
_cell_angle_gamma                 90.000124
_cell_volume                      1084.26898404

loop_
_atom_site_label
_atom_site_type_symbol
_atom_site_description
_atom_site_fract_x
_atom_site_fract_y
_atom_site_fract_z
_atom_type_partial_charge
O1    O     O_R   0.500000 0.288390 0.642760 -0.572670
O2    O     O_R   0.500000 0.711610 0.357240 -0.572670
O3    O     O_R   0.500000 0.711610 0.642760 -0.572670
O4    O     O_R   0.500000 0.288390 0.357240 -0.572670
C1    C     C_R   0.500000 0.219785 0.500000 0.894617
C2    C     C_R   0.500000 0.780215 0.500000 0.894617
O5    O     O_R   0.370260 0.500000 0.642800 -0.566136
O6    O     O_R   0.629740 0.500000 0.357200 -0.566137
O7    O     O_R   0.629740 0.500000 0.642800 -0.566136
O8    O     O_R   0.370260 0.500000 0.357200 -0.566137
C3    C     C_R   0.328741 0.500000 0.500000 0.922742
C4    C     C_R   0.671259 0.500000 0.500000 0.922742
Cu1   Cu    Cu3+1 0.500000 0.500000 0.669080 1.115792
Cu2   Cu    Cu3+1 0.500000 0.500000 0.330920 1.115792
N1    N     N_1   0.500000 0.500000 0.076820 -0.023585
N2    N     N_1   0.500000 0.500000 0.923180 -0.023585
C5    C     C_R   0.812917 0.631878 0.497816 0.343097
C6    C     C_R   0.187083 0.368122 0.497816 0.343097
C7    C     C_R   0.812917 0.368123 0.502180 0.343097
C8    C     C_R   0.187083 0.631878 0.502180 0.343097
C9    C     C_R   0.767440 0.500001 0.499999 -0.236129
C10   C     C_R   0.232559 0.500000 0.499999 -0.236129
C11   C     C_R   0.906332 0.367740 0.492588 -0.081312
C12   C     C_R   0.093668 0.632261 0.492588 -0.081312
C13   C     C_R   0.906333 0.632261 0.507405 -0.081311
C14   C     C_R   0.093667 0.367739 0.507405 -0.081311
C15   C     C_R   0.953028 0.500001 0.499996 -0.105029
C16   C     C_R   0.046972 0.500000 0.499996 -0.105030
C17   C     C_R   0.954789 0.238919 0.479884 0.415926
C18   C     C_R   0.045211 0.761082 0.479885 0.415923
C19   C     C_R   0.954790 0.761082 0.520105 0.415926
C20   C     C_R   0.045209 0.238918 0.520106 0.415928
C21   C     C_1   0.500000 0.065059 0.500000 -0.033765
C22   C     C_1   0.500000 0.934941 0.500000 -0.033765
Cl1   Cl    Cl    0.915985 0.103706 0.339161 -0.352975
Cl2   Cl    Cl    0.084016 0.896298 0.339166 -0.352974
Cl3   Cl    Cl    0.915988 0.896294 0.660829 -0.352974
Cl4   Cl    Cl    0.084010 0.103709 0.660834 -0.352975
Cl5   Cl    Cl    0.751291 0.792959 0.462392 -0.453251
Cl6   Cl    Cl    0.248709 0.207041 0.462394 -0.453251
Cl7   Cl    Cl    0.751290 0.207042 0.537608 -0.453251
Cl8   Cl    Cl    0.248710 0.792958 0.537609 -0.453252

loop_
_geom_bond_atom_site_label_1
_geom_bond_atom_site_label_2
_geom_bond_distance
_ccdc_geom_bond_type
C13   C19   1.400492 A    
C8    Cl8   1.776558 S    
C14   C20   1.400491 A    
C11   C15   1.411995 A    
C13   C15   1.411994 A    
C17   Cl1   1.762307 S    
C3    C10   1.448183 S    
C14   C16   1.411994 A    
O3    Cu1   1.967657 S    
C18   Cl2   1.762308 S    
O6    C4    1.275639 A    
O3    C2    1.279961 A    
C5    C13   1.408518 A    
C21   C22   1.203323 T    
C7    Cl7   1.776558 S    
C6    C10   1.398766 A    
Cu1   Cu2   2.633204 S    
O5    C3    1.275640 A    
O2    C2    1.279962 A    
O1    C1    1.279961 A    
C11   C17   1.400491 A    
C7    C9    1.398766 A    
C8    C10   1.398767 A    
C17   C20   1.396993 A    
C20   Cl4   1.762294 S    
C1    C21   1.430893 S    
O4    Cu2   1.967657 S    
C18   C19   1.396993 A    
O2    Cu2   1.967657 S    
O7    C4    1.275640 A    
C12   C18   1.400491 A    
O1    Cu1   1.967657 S    
O8    C3    1.275639 A    
N1    N2    1.196373 T    
C2    C22   1.430893 S    
O5    Cu1   1.964150 S    
C6    Cl6   1.776558 S    
C5    Cl5   1.776559 S    
Cu1   N2    1.978640 S    
C15   C16   1.414475 A    
C8    C12   1.408518 A    
C7    C11   1.408518 A    
O7    Cu1   1.964149 S    
O6    Cu2   1.964149 S    
Cu2   N1    1.978640 S    
C4    C9    1.448183 S    
C5    C9    1.398767 A    
C12   C16   1.411995 A    
C19   Cl3   1.762293 S    
O4    C1    1.279962 A    
O8    Cu2   1.964150 S    
C6    C14   1.408518 A    
