data_str_m9_o11_o16_f0_sra.sym.10
_audit_creation_date              2012-12-11T14:17:26-0500
_audit_creation_method            fapswitch 2.2
_symmetry_space_group_name_H-M    P1
_symmetry_Int_Tables_number       1
_space_group_crystal_system       triclinic
_cell_length_a                    6.965929
_cell_length_b                    13.806045
_cell_length_c                    20.256964
_cell_angle_alpha                 102.324286
_cell_angle_beta                  89.689456
_cell_angle_gamma                 90.467875
_cell_volume                      1903.17959224

loop_
_atom_site_label
_atom_site_type_symbol
_atom_type_description
_atom_site_fract_x
_atom_site_fract_y
_atom_site_fract_z
_atom_type_partial_charge
O1    O     O_R   0.506860 0.599390 0.449240 -0.532647
O2    O     O_R   0.180220 0.594600 0.586780 -0.503765
O3    O     O_R   0.004500 0.400610 0.550760 -0.539595
C1    C     C_R   0.348418 0.617866 0.612988 0.795374
O4    O     O_R   0.177490 0.611290 0.451970 -0.551899
O5    O     O_R   0.001750 0.417420 0.414990 -0.544760
C2    C     C_R   0.346932 0.635518 0.433738 0.747264
O6    O     O_R   0.509610 0.582580 0.585010 -0.547257
O7    O     O_3   0.337420 0.436370 0.488020 -0.385884
V1    V     V_3+5 0.064680 0.511800 0.502220 1.475869
O8    O     O_R   0.671710 0.405400 0.413220 -0.550202
C3    C     C_R   0.840202 0.384229 0.386567 0.730046
O9    O     O_R   0.674440 0.388710 0.548030 -0.546906
C4    C     C_R   0.842491 0.363192 0.565510 0.689940
V2    V     V_3+5 0.564010 0.488200 0.497780 1.437676
O10   O     O_3   0.841140 0.563630 0.511980 -0.358942
C5    C     C_R   0.899099 0.116329 0.612625 -0.166508
H1    H     H_    0.906444 0.167602 0.519854 0.104321
H2    H     H_    0.919301 0.992217 0.695569 0.130114
H3    H     H_    0.925293 0.040191 0.587163 0.117351
C6    C     C_R   0.850048 0.286600 0.605539 -0.028357
C7    C     C_R   0.839507 0.314345 0.933838 0.102641
C8    C     C_R   0.818831 0.388949 0.897039 -0.130622
C9    C     C_R   0.818299 0.366301 0.826356 -0.221965
C10   C     C_R   0.841022 0.267909 0.789050 0.080409
C11   C     C_R   0.862262 0.191846 0.825836 0.050651
C12   C     C_R   0.847591 0.242459 0.716608 0.084129
C13   C     C_R   0.880963 0.142371 0.683288 0.139957
C14   C     C_R   0.897249 0.068951 0.720600 -0.216399
C15   C     C_R   0.887254 0.092960 0.790534 -0.181756
C16   C     C_R   0.824660 0.312726 0.675748 -0.225932
C17   C     C_R   0.887567 0.188433 0.574153 -0.171014
C18   C     C_R   0.859385 0.215644 0.897464 -0.126775
H4    H     H_    0.786626 0.387990 0.696865 0.102736
H5    H     H_    0.801784 0.428025 0.802392 0.120897
H6    H     H_    0.801081 0.465592 0.922398 0.125095
H7    H     H_    0.902444 0.032832 0.816708 0.114017
C19   C     C_2   0.005596 0.290578 0.283971 -0.134452
C20   C     C_2   0.843291 0.315737 0.319767 -0.307176
H8    H     H_    0.141994 0.320595 0.305088 0.133347
H9    H     H_    0.705597 0.286050 0.300358 0.126830
C21   C     C_2   0.013288 0.222129 0.216327 -0.125299
C22   C     C_2   0.858013 0.184520 0.179944 -0.305533
H10   H     H_    0.155601 0.202816 0.195768 0.135346
H11   H     H_    0.714302 0.203447 0.198605 0.126725
C23   C     C_2   0.226532 0.814688 0.774999 -0.262175
C24   C     C_2   0.363485 0.814316 0.820922 -0.367902
H12   H     H_    0.112390 0.869013 0.786238 0.140710
H13   H     H_    0.476488 0.759388 0.811082 0.124810
C25   C     C_2   0.203823 0.732706 0.714024 0.468183
C26   C     C_2   0.358911 0.693683 0.677194 -0.394157
H14   H     H_    0.500482 0.721486 0.693241 0.112352
C27   C     C_R   0.428661 0.880176 0.385777 -0.252496
H15   H     H_    0.456543 0.003902 0.303484 0.119849
H16   H     H_    0.467201 0.955507 0.410237 0.127822
C28   C     C_R   0.360533 0.711552 0.393762 -0.120814
C29   C     C_R   0.323417 0.689017 0.067556 -0.292529
C30   C     C_R   0.318576 0.609217 0.100719 0.468368
C31   C     C_R   0.329730 0.630737 0.171837 -0.212653
C32   C     C_R   0.354461 0.729461 0.209976 0.023181
C33   C     C_R   0.372355 0.806986 0.173983 0.059233
C34   C     C_R   0.366048 0.754269 0.282345 0.107171
C35   C     C_R   0.406429 0.854099 0.315496 0.088152
C36   C     C_R   0.426759 0.927725 0.278471 -0.181796
C37   C     C_R   0.407495 0.905014 0.209021 -0.173514
C38   C     C_R   0.339831 0.684139 0.323309 -0.295746
C39   C     C_R   0.405718 0.809511 0.425227 0.403189
C40   C     C_R   0.354238 0.785423 0.103216 -0.111306
H17   H     H_    0.305192 0.607587 0.302015 0.116484
H18   H     H_    0.306102 0.677963 0.013420 0.087103
H19   H     H_    0.322771 0.568194 0.195808 0.131962
H20   H     H_    0.422444 0.965430 0.182925 0.112273
O11   O     O_R   0.203230 0.917310 0.915020 -0.539739
O12   O     O_R   0.535500 0.888690 0.048040 -0.543511
O13   O     O_R   0.711080 0.082610 0.085000 -0.545258
C41   C     C_R   0.366018 0.862882 0.064637 0.715602
O14   O     O_R   0.532630 0.905370 0.913230 -0.548214
O15   O     O_R   0.708190 0.099410 0.949230 -0.539493
C42   C     C_R   0.365302 0.885238 0.886323 0.775739
O16   O     O_R   0.206120 0.900510 0.050790 -0.539512
O17   O     O_3   0.375360 0.063570 0.011990 -0.375729
V3    V     V_3+5 0.648170 0.988200 0.997780 1.403756
O18   O     O_R   0.038240 0.111390 0.951940 -0.545634
C43   C     C_R   0.869764 0.136635 0.934995 0.684435
O19   O     O_R   0.041120 0.094710 0.086750 -0.541402
C44   C     C_R   0.872080 0.116109 0.113304 0.740617
V4    V     V_3+5 0.148810 0.011930 0.002180 1.408763
O20   O     O_3   0.871750 0.936430 0.988010 -0.373197
O21   O     O_3   0.020830 0.701571 0.691489 -0.538070
C45   C     C_3   0.895696 0.693978 0.745614 0.104631
H21   H     H_    0.784550 0.752004 0.750132 0.122798
H22   H     H_    0.965339 0.701960 0.795954 0.112965
C46   C     C_3   0.803611 0.592135 0.730781 -0.758971
H23   H     H_    0.917469 0.537196 0.732778 0.205185
H24   H     H_    0.691135 0.587342 0.769038 0.166357
H25   H     H_    0.739173 0.575759 0.679760 0.246183
O22   O     O_3   0.448212 0.833691 0.493438 -0.556573
C47   C     C_3   0.293616 0.886791 0.528903 0.067706
H26   H     H_    0.168367 0.836327 0.529426 0.132792
H27   H     H_    0.249438 0.950220 0.506503 0.114376
C48   C     C_3   0.355044 0.928694 0.601419 -0.674232
H28   H     H_    0.475766 0.982017 0.602236 0.224801
H29   H     H_    0.233173 0.967729 0.630788 0.174388
H30   H     H_    0.402293 0.867994 0.625518 0.223274
O23   O     O_3   0.299028 0.509677 0.067297 -0.558925
C49   C     C_3   0.333915 0.493033 0.996556 0.074036
H31   H     H_    0.469448 0.529578 0.985189 0.107007
H32   H     H_    0.213224 0.521181 0.970434 0.116320
C50   C     C_3   0.352747 0.382568 0.966842 -0.668668
H33   H     H_    0.210554 0.346876 0.959672 0.215725
H34   H     H_    0.422870 0.370773 0.916487 0.187476
H35   H     H_    0.436865 0.346185 0.000689 0.232093
C51   C     C_3   0.845867 0.335778 0.011355 -0.355377
C52   C     C_3   0.836985 0.444337 0.048544 -0.703453
H36   H     H_    0.940634 0.490773 0.027581 0.238902
H37   H     H_    0.691493 0.473859 0.046242 0.232561
H38   H     H_    0.871856 0.449941 0.102672 0.231124
H39   H     H_    0.727044 0.295090 0.030440 0.168383
H40   H     H_    0.980411 0.304879 0.027279 0.185120

loop_
_geom_bond_atom_site_label_1
_geom_bond_atom_site_label_2
_ccdc_geom_bond_type
O18   V4    S    
V4    O20   S    
C46   H23   S    
C24   C42   S    
C1    O6    A    
O22   C47   S    
C45   H21   S    
C24   H13   S    
C28   C39   A    
O19   C44   A    
C6    C16   A    
C34   C35   A    
O12   C41   A    
C4    C6    S    
C13   C14   A    
C19   C21   S    
O16   V4    S    
C50   H34   S    
O5    C3    A    
C19   C20   D    
V3    O20   S    
C38   H17   S    
C49   H31   S    
V2    O10   S    
C8    H6    S    
C5    H3    S    
C32   C34   A    
O11   V4    S    
C11   C18   A    
C51   H40   S    
O8    V2    S    
C7    C51   S    
C8    C9    A    
O1    V2    S    
C29   H18   S    
O7    V1    S    
C27   H16   S    
C31   C32   A    
C46   H24   S    
O9    C4    A    
C22   C44   S    
C21   H10   S    
C2    C28   S    
O12   V3    S    
O17   V3    S    
O14   C42   A    
C6    C17   A    
C23   H12   S    
C9    H5    S    
C34   C38   A    
O19   V4    S    
C12   C16   A    
C26   H14   S    
C48   H28   S    
C9    C10   A    
C20   H9    S    
C50   H35   S    
O4    C2    A    
O6    V2    S    
C1    C26   S    
C10   C11   A    
C51   H39   S    
C15   H7    S    
C32   C33   A    
O2    C1    A    
C14   C15   A    
O15   C43   A    
O15   V3    S    
C25   O21   S    
C45   H22   S    
O18   C43   A    
C25   C26   D    
O11   C42   A    
C16   H4    S    
C22   H11   S    
O17   V4    S    
O3    C4    A    
C11   C15   A    
C46   H25   S    
C47   H27   S    
O9    V2    S    
C10   C12   A    
H1    C17   S    
C21   C22   D    
C29   C40   A    
H2    C14   S    
C45   C46   S    
C51   C52   S    
C7    C18   A    
C23   C24   D    
O1    C2    A    
C5    C13   A    
C41   O16   A    
O5    V1    S    
C52   H37   S    
O8    C3    A    
O13   V3    S    
C52   H36   S    
C40   C41   S    
C37   H20   S    
O23   C49   S    
C23   C25   S    
C47   C48   S    
C30   O23   S    
C36   C37   A    
C3    C20   S    
C30   C31   A    
O4    V1    S    
O3    V1    S    
V1    O10   S    
C50   H33   S    
C19   H8    S    
C27   C35   A    
C33   C40   A    
C29   C30   A    
C49   H32   S    
O14   V3    S    
C28   C38   A    
O7    V2    S    
C27   C39   A    
C18   C43   S    
C52   H38   S    
C39   O22   S    
C35   C36   A    
C33   C37   A    
H15   C36   S    
C48   H29   S    
C47   H26   S    
C12   C13   A    
C5    C17   A    
C7    C8    A    
O13   C44   A    
C48   H30   S    
O21   C45   S    
C31   H19   S    
C49   C50   S    
O2    V1    S    
