data_str_m9_o16_o27_f0_sra.sym.12
_audit_creation_date              2012-12-11T15:16:36-0500
_audit_creation_method            fapswitch 2.2
_symmetry_space_group_name_H-M    P1
_symmetry_Int_Tables_number       1
_space_group_crystal_system       triclinic
_cell_length_a                    25.152857
_cell_length_b                    7.214732
_cell_length_c                    22.130942
_cell_angle_alpha                 90.054773
_cell_angle_beta                  109.804239
_cell_angle_gamma                 90.107847
_cell_volume                      3778.58377443

loop_
_atom_site_label
_atom_site_type_symbol
_atom_type_description
_atom_site_fract_x
_atom_site_fract_y
_atom_site_fract_z
_atom_type_partial_charge
O1    O     O_R   0.554350 0.505270 0.581390 -0.534522
O2    O     O_R   0.445650 0.005270 0.418610 -0.534677
O3    O     O_R   0.553380 0.177580 0.454800 -0.527590
O4    O     O_R   0.446620 0.677580 0.545200 -0.527331
C1    C     C_R   0.564990 0.344234 0.436877 0.698463
C2    C     C_R   0.435130 0.844080 0.563385 0.704178
O5    O     O_R   0.560970 0.175640 0.583140 -0.537787
O6    O     O_R   0.439030 0.675640 0.416860 -0.537647
O7    O     O_R   0.453290 0.004120 0.547860 -0.533932
O8    O     O_R   0.546710 0.504120 0.452140 -0.531329
C3    C     C_R   0.577854 0.345061 0.606137 0.687192
C4    C     C_R   0.422270 0.844618 0.393751 0.690105
O9    O     O_3   0.464660 0.338800 0.488280 -0.373491
O10   O     O_3   0.535340 0.838800 0.511720 -0.372999
V1    V     V_3+5 0.506560 0.064420 0.502170 1.418570
V2    V     V_3+5 0.493440 0.564420 0.497830 1.419017
C5    C     C_R   0.139700 0.962901 0.287531 0.364798
C6    C     C_R   0.860114 0.432560 0.711947 0.370885
H1    H     H_    0.223742 0.977900 0.399504 0.145690
H2    H     H_    0.776151 0.506886 0.603381 0.146347
C7    C     C_R   0.118093 0.941342 0.172316 -0.134834
C8    C     C_R   0.881936 0.438402 0.827644 -0.136628
C9    C     C_R   0.390538 0.794063 0.278334 -0.155974
C10   C     C_R   0.608998 0.290703 0.721300 -0.152436
C11   C     C_R   0.350368 0.769369 0.218137 -0.130342
C12   C     C_R   0.649024 0.263123 0.781389 -0.129910
C13   C     C_R   0.293964 0.807579 0.207682 -0.163584
C14   C     C_R   0.705572 0.300545 0.792180 -0.165108
C15   C     C_R   0.275970 0.882224 0.256543 0.074395
C16   C     C_R   0.723780 0.377473 0.743872 0.075286
C17   C     C_R   0.316736 0.896838 0.320521 0.064310
C18   C     C_R   0.682966 0.399412 0.680288 0.064007
C19   C     C_R   0.217347 0.926594 0.244092 -0.065248
C20   C     C_R   0.782636 0.417200 0.756286 -0.060769
C21   C     C_R   0.198351 0.950511 0.296965 -0.063405
C22   C     C_R   0.801511 0.435851 0.703258 -0.069002
C23   C     C_R   0.237912 0.959665 0.358886 -0.136590
C24   C     C_R   0.761801 0.467964 0.642539 -0.149033
C25   C     C_R   0.295976 0.946286 0.370887 0.097136
C26   C     C_R   0.703657 0.461052 0.631096 0.088858
C27   C     C_R   0.176268 0.945534 0.180997 0.240375
C28   C     C_R   0.823794 0.438541 0.819216 0.242416
C29   C     C_R   0.099727 0.944308 0.225660 0.046205
C30   C     C_R   0.900213 0.432142 0.774201 0.049075
C31   C     C_R   0.375357 0.851816 0.330612 -0.080613
C32   C     C_R   0.624340 0.352927 0.669602 -0.083138
H3    H     H_    0.434014 0.760609 0.284692 0.105935
H4    H     H_    0.565495 0.255965 0.714516 0.104862
H5    H     H_    0.264544 0.769833 0.161179 0.166793
H6    H     H_    0.734990 0.260290 0.838349 0.165875
H7    H     H_    0.362930 0.715372 0.179340 0.129238
H8    H     H_    0.636259 0.206555 0.819682 0.129118
C33   C     C_R   0.111999 0.774353 0.870730 -0.159834
C34   C     C_R   0.888356 0.274370 0.129798 -0.160578
H9    H     H_    0.089030 0.650006 0.874197 0.129534
H10   H     H_    0.911324 0.150321 0.126320 0.129575
C35   C     C_R   0.148094 0.767800 0.834701 -0.173049
C36   C     C_R   0.852519 0.267827 0.166170 -0.173020
H11   H     H_    0.151318 0.638954 0.811130 0.143160
H12   H     H_    0.849539 0.139212 0.189940 0.143881
C37   C     C_R   0.178868 0.924841 0.827962 0.017214
C38   C     C_R   0.821694 0.424441 0.172950 0.016065
C39   C     C_R   0.172792 0.091855 0.859225 0.151284
C40   C     C_R   0.827517 0.591035 0.141281 0.151631
C41   C     C_R   0.135699 0.096887 0.894756 -0.139303
C42   C     C_R   0.864404 0.596037 0.105469 -0.139209
H13   H     H_    0.131223 0.224724 0.918296 0.128838
H14   H     H_    0.868711 0.723555 0.081704 0.128808
C43   C     C_R   0.105010 0.939171 0.900935 -0.075606
C44   C     C_R   0.895129 0.438802 0.099304 -0.075603
N1    N     N_R   0.228067 0.055259 0.757045 -0.281501
N2    N     N_R   0.770992 0.556576 0.242173 -0.281884
N3    N     N_R   0.261305 0.038151 0.721554 -0.288524
N4    N     N_R   0.737924 0.539725 0.277882 -0.287841
C45   C     C_R   0.284467 0.872012 0.715690 0.547351
C46   C     C_R   0.716746 0.372053 0.286234 0.547046
N5    N     N_R   0.273259 0.724187 0.747466 -0.282654
N6    N     N_R   0.729783 0.222271 0.256744 -0.281347
N7    N     N_R   0.239999 0.741399 0.782991 -0.292123
N8    N     N_R   0.762841 0.239315 0.220947 -0.292253
C47   C     C_R   0.216821 0.907690 0.788859 0.519333
C48   C     C_R   0.784031 0.407208 0.212540 0.519093
C49   C     C_R   0.323079 0.699454 0.638258 0.115999
C50   C     C_R   0.680470 0.205807 0.366884 0.116438
C51   C     C_R   0.357523 0.700111 0.599070 0.313486
C52   C     C_R   0.645724 0.207388 0.405756 0.315853
C53   C     C_R   0.394788 0.851824 0.600855 -0.182194
C54   C     C_R   0.605764 0.352765 0.400157 -0.183916
C55   C     C_R   0.393901 0.006685 0.640593 0.110106
C56   C     C_R   0.604443 0.501877 0.357525 0.118520
C57   C     C_R   0.357277 0.007231 0.676324 -0.174703
C58   C     C_R   0.641375 0.502581 0.322181 -0.173701
H15   H     H_    0.356816 0.126748 0.705883 0.150693
H16   H     H_    0.640138 0.617826 0.290322 0.151549
C59   C     C_R   0.322348 0.856280 0.676520 -0.088176
C60   C     C_R   0.678809 0.356718 0.325361 -0.089960
O11   O     O_R   0.953220 0.285790 0.047790 -0.540263
O12   O     O_R   0.046780 0.785790 0.952210 -0.540448
O13   O     O_R   0.939020 0.617570 0.916840 -0.535288
O14   O     O_R   0.060980 0.117570 0.083160 -0.535676
C61   C     C_R   0.924257 0.448229 0.892903 0.793901
C62   C     C_R   0.075838 0.948700 0.107028 0.794067
O15   O     O_R   0.946600 0.615450 0.045180 -0.544618
O16   O     O_R   0.053400 0.115450 0.954820 -0.544800
O17   O     O_R   0.054370 0.786770 0.081410 -0.540300
O18   O     O_R   0.945630 0.286770 0.918590 -0.540243
C63   C     C_R   0.934267 0.447065 0.061587 0.702023
C64   C     C_R   0.065757 0.947180 0.938460 0.701938
O19   O     O_3   0.035300 0.454160 0.011680 -0.378504
O20   O     O_3   0.964700 0.954160 0.988320 -0.378282
V3    V     V_3+5 0.993450 0.728620 0.997830 1.437453
V4    V     V_3+5 0.006550 0.228620 0.002170 1.437019
C65   C     C_3   0.037092 0.941787 0.215785 -0.695347
H17   H     H_    0.028065 0.940674 0.261470 0.255148
H18   H     H_    0.016606 0.066194 0.188232 0.180649
H19   H     H_    0.017407 0.815484 0.188572 0.187109
C66   C     C_3   0.962869 0.429357 0.784134 -0.691571
H20   H     H_    0.972029 0.425104 0.738555 0.255410
H21   H     H_    0.983309 0.555760 0.810647 0.179872
H22   H     H_    0.982580 0.305158 0.812433 0.186451
C67   C     C_3   0.206311 0.264069 0.857541 -0.732680
H23   H     H_    0.200669 0.373350 0.890230 0.195700
H24   H     H_    0.252058 0.230817 0.873133 0.223876
H25   H     H_    0.192167 0.322326 0.808278 0.237515
C68   C     C_3   0.794060 0.763061 0.142872 -0.731856
H26   H     H_    0.799702 0.871989 0.110104 0.195131
H27   H     H_    0.748302 0.729318 0.127305 0.224584
H28   H     H_    0.808278 0.822168 0.192084 0.237743
C69   C     C_3   0.285030 0.534857 0.636319 -0.649725
H29   H     H_    0.285210 0.429616 0.599862 0.238219
H30   H     H_    0.299203 0.463823 0.683542 0.220992
H31   H     H_    0.240671 0.581894 0.624625 0.205378
C70   C     C_3   0.721355 0.047565 0.372564 -0.649252
H32   H     H_    0.722713 0.948042 0.411182 0.238403
H33   H     H_    0.708707 0.967828 0.326960 0.223579
H34   H     H_    0.764854 0.102645 0.383398 0.202396
O21   O     O_3   0.353552 0.550063 0.559154 -0.647942
H35   H     H_    0.349267 0.598385 0.515957 0.289203
O22   O     O_3   0.652300 0.065430 0.449405 -0.644515
H36   H     H_    0.652471 0.120552 0.490442 0.286961
C71   C     C_3   0.432409 0.172236 0.647992 -0.665429
H37   H     H_    0.429559 0.269891 0.685620 0.188318
H38   H     H_    0.476873 0.125137 0.662262 0.180643
H39   H     H_    0.420726 0.250955 0.602344 0.252944
C72   C     C_3   0.563256 0.660567 0.346804 -0.681296
H40   H     H_    0.573974 0.748285 0.390550 0.245649
H41   H     H_    0.564134 0.751788 0.306734 0.185843
H42   H     H_    0.519674 0.605376 0.334247 0.183815
O23   O     O_3   0.120380 0.990081 0.338228 -0.637633
H43   H     H_    0.140883 0.098494 0.362848 0.286810
O24   O     O_3   0.879367 0.428071 0.660441 -0.638641
H44   H     H_    0.853613 0.348262 0.626591 0.289333
O25   O     O_3   0.190939 0.985165 0.127717 -0.658987
H45   H     H_    0.225660 0.062308 0.142060 0.293373
O26   O     O_3   0.809138 0.478140 0.872524 -0.658717
H46   H     H_    0.774297 0.554133 0.858231 0.293787
C73   C     C_3   0.332922 0.979117 0.438978 -0.740465
H47   H     H_    0.361801 0.097056 0.441473 0.235227
H48   H     H_    0.308898 0.015093 0.471241 0.197285
H49   H     H_    0.355214 0.849215 0.457173 0.166634
C74   C     C_3   0.666521 0.519238 0.565446 -0.713868
H50   H     H_    0.638929 0.635120 0.569020 0.234731
H51   H     H_    0.690627 0.569442 0.534862 0.199010
H52   H     H_    0.642806 0.397000 0.541328 0.162537

loop_
_geom_bond_atom_site_label_1
_geom_bond_atom_site_label_2
_ccdc_geom_bond_type
C36   C38   A    
C42   H14   S    
C39   C41   A    
C73   H47   S    
C9    C31   A    
C13   C15   A    
O1    C3    A    
C33   C43   A    
C74   H52   S    
C2    O7    A    
C11   H7    S    
C72   H40   S    
C45   C59   S    
O18   V4    S    
O5    C3    A    
C8    C61   S    
N4    C46   A    
C21   C23   A    
C10   C12   A    
C49   C69   S    
C56   C72   S    
C6    C30   A    
C44   C63   S    
C71   H38   S    
C52   C54   A    
C35   H11   S    
C36   H12   S    
C15   C19   A    
C58   C60   A    
O12   C64   A    
C62   O17   A    
O15   V3    S    
C50   C60   A    
C37   C39   A    
O20   V3    S    
C67   H25   S    
C38   C40   A    
H1    C23   S    
C72   H41   S    
C7    C29   A    
C1    C54   S    
C14   H6    S    
C8    C30   A    
C41   H13   S    
C20   C28   A    
C8    C28   A    
C70   H34   S    
O24   H44   S    
C66   H21   S    
C55   C57   A    
C20   C22   A    
C65   H19   S    
O6    V2    S    
C51   C53   A    
C68   H26   S    
O17   V3    S    
O2    C4    A    
C73   H48   S    
C24   C26   A    
C25   C73   S    
N3    C45   A    
C71   H37   S    
C58   H16   S    
C74   H51   S    
C43   C64   S    
C74   H50   S    
C27   O25   S    
C33   H9    S    
C34   H10   S    
C50   C70   S    
C9    H3    S    
C16   C20   A    
C10   H4    S    
N2    N4    A    
C66   H22   S    
N7    C47   A    
O11   V4    S    
C33   C35   A    
O5    V1    S    
C2    C53   S    
C65   H18   S    
C40   C42   A    
O4    V2    S    
C5    C29   A    
C12   H8    S    
C46   C60   S    
C57   H15   S    
H2    C24   S    
C56   C58   A    
C34   C44   A    
O6    C4    A    
O13   V3    S    
O14   C62   A    
C39   C67   S    
N5    N7    A    
O1    V2    S    
C49   C59   A    
C68   H27   S    
O2    V1    S    
C45   N5    A    
C67   H23   S    
C65   H17   S    
C52   O22   S    
C7    C27   A    
C7    C62   S    
N8    C48   A    
C49   C51   A    
C54   C56   A    
O14   V4    S    
C73   H49   S    
C53   C55   A    
C70   H32   S    
O19   V4    S    
O4    C2    A    
C6    O24   S    
C51   O21   S    
O16   C64   A    
C72   H42   S    
O3    V1    S    
O16   V4    S    
C69   H29   S    
C34   C36   A    
C61   O18   A    
C41   C43   A    
O12   V3    S    
O13   C61   A    
C18   C32   A    
C5    O23   S    
C46   N6    A    
C4    C31   S    
O3    C1    A    
O15   C63   A    
O22   H36   S    
C35   C37   A    
C71   H39   S    
C11   C13   A    
O21   H35   S    
C12   C14   A    
C19   C27   A    
C69   H31   S    
C14   C16   A    
C28   O26   S    
O7    V1    S    
C10   C32   A    
C26   C74   S    
C15   C17   A    
C37   C47   S    
C66   H20   S    
C29   C65   S    
C16   C18   A    
C42   C44   A    
C30   C66   S    
C68   H28   S    
C55   C71   S    
C22   C24   A    
C19   C21   A    
C17   C25   A    
N6    N8    A    
C18   C26   A    
C38   C48   S    
C67   H24   S    
C57   C59   A    
O11   C63   A    
C1    O8    A    
C9    C11   A    
C23   C25   A    
C40   C68   S    
C17   C31   A    
O9    V2    S    
N1    N3    A    
O26   H46   S    
C70   H33   S    
O10   V1    S    
C50   C52   A    
C3    C32   S    
O8    V2    S    
C5    C21   A    
N1    C47   A    
O25   H45   S    
O23   H43   S    
C6    C22   A    
N2    C48   A    
C13   H5    S    
C69   H30   S    
