data_str_m9_o5_o2_f0_sra.sym.119
_audit_creation_date              2012-12-11T17:19:08-0500
_audit_creation_method            fapswitch 2.2
_symmetry_space_group_name_H-M    P1
_symmetry_Int_Tables_number       1
_space_group_crystal_system       triclinic
_cell_length_a                    14.665064
_cell_length_b                    7.263869
_cell_length_c                    13.483876
_cell_angle_alpha                 89.981824
_cell_angle_beta                  99.871103
_cell_angle_gamma                 89.971283
_cell_volume                      1415.10682828

loop_
_atom_site_label
_atom_site_type_symbol
_atom_type_description
_atom_site_fract_x
_atom_site_fract_y
_atom_site_fract_z
_atom_type_partial_charge
O1    O     O_R   0.648180 0.355050 0.151550 -0.535824
O2    O     O_R   0.351820 0.644950 0.848450 -0.535824
O3    O     O_R   0.851820 0.855050 0.348450 -0.536113
O4    O     O_R   0.148180 0.144950 0.651550 -0.536113
O5    O     O_R   0.835240 0.681980 0.154280 -0.537292
O6    O     O_R   0.164760 0.318020 0.845720 -0.537292
O7    O     O_R   0.664760 0.181980 0.345720 -0.538104
O8    O     O_R   0.335240 0.818020 0.654280 -0.538104
H1    H     H_    0.661835 0.745786 0.806971 0.119989
H2    H     H_    0.338165 0.254214 0.193029 0.119989
H3    H     H_    0.831817 0.298919 0.683919 0.120638
H4    H     H_    0.168183 0.701081 0.316081 0.120638
C1    C     C_R   0.863624 0.516171 0.133207 0.688837
C2    C     C_R   0.136376 0.483829 0.866793 0.688838
C3    C     C_R   0.636363 0.016195 0.366787 0.687032
C4    C     C_R   0.363637 0.983805 0.633213 0.687032
O9    O     O_R   0.647870 0.684600 0.139630 -0.534917
O10   O     O_R   0.352130 0.315400 0.860370 -0.534917
O11   O     O_R   0.852130 0.184600 0.360370 -0.535393
O12   O     O_R   0.147870 0.815400 0.639630 -0.535393
O13   O     O_R   0.663110 0.857440 0.333700 -0.534007
O14   O     O_R   0.336890 0.142560 0.666300 -0.534007
O15   O     O_R   0.836890 0.357440 0.166300 -0.533372
O16   O     O_R   0.163110 0.642560 0.833700 -0.533373
C5    C     C_R   0.615058 0.516010 0.113184 0.714014
C6    C     C_R   0.384941 0.483990 0.886816 0.714014
C7    C     C_R   0.884927 0.015940 0.386823 0.714737
C8    C     C_R   0.115073 0.984059 0.613177 0.714737
O17   O     O_3   0.755220 0.522230 0.313690 -0.376490
O18   O     O_3   0.244780 0.477770 0.686310 -0.376490
O19   O     O_3   0.744780 0.022230 0.186310 -0.375260
O20   O     O_3   0.255220 0.977770 0.813690 -0.375260
V1    V     V_3+5 0.749030 0.796100 0.238190 1.421053
V2    V     V_3+5 0.250970 0.203900 0.761810 1.421052
V3    V     V_3+5 0.750970 0.296100 0.261810 1.419571
V4    V     V_3+5 0.249030 0.703900 0.738190 1.419570
C9    C     C_1   0.966027 0.005301 0.466775 -0.187466
C10   C     C_1   0.033973 0.994699 0.533225 -0.187466
C11   C     C_1   0.533966 0.505391 0.033224 -0.188434
C12   C     C_1   0.466034 0.494609 0.966776 -0.188435
H5    H     H_    0.222340 0.239251 0.305642 0.127500
H6    H     H_    0.777659 0.760749 0.694358 0.127500
H7    H     H_    0.284007 0.686006 0.203427 0.124814
H8    H     H_    0.715993 0.313993 0.796573 0.124814
C13   C     C_R   0.552094 0.859310 0.697744 -0.146385
C14   C     C_R   0.447906 0.140690 0.302256 -0.146385
C15   C     C_R   0.944576 0.387505 0.797414 -0.146547
C16   C     C_R   0.055424 0.612495 0.202586 -0.146547
C17   C     C_R   0.642307 0.798645 0.731200 -0.123627
C18   C     C_R   0.357693 0.201355 0.268800 -0.123628
C19   C     C_R   0.852631 0.340993 0.761528 -0.126260
C20   C     C_R   0.147368 0.659007 0.238472 -0.126260
C21   C     C_R   0.707522 0.807005 0.667778 -0.119035
C22   C     C_R   0.292478 0.192995 0.332222 -0.119035
C23   C     C_R   0.787406 0.349391 0.824983 -0.122301
C24   C     C_R   0.212594 0.650609 0.175017 -0.122301
C25   C     C_R   0.682985 0.875786 0.570352 -0.141789
C26   C     C_R   0.317015 0.124214 0.429648 -0.141789
C27   C     C_R   0.813644 0.404016 0.924878 -0.141117
C28   C     C_R   0.186356 0.595984 0.075122 -0.141117
C29   C     C_R   0.591636 0.936644 0.533813 0.068036
C30   C     C_R   0.408364 0.063355 0.466187 0.068036
C31   C     C_R   0.906597 0.450950 0.963684 0.069518
C32   C     C_R   0.093402 0.549050 0.036316 0.069518
C33   C     C_R   0.524807 0.928507 0.598873 0.066461
C34   C     C_R   0.475193 0.071493 0.401127 0.066461
C35   C     C_R   0.973431 0.442852 0.898606 0.066236
C36   C     C_R   0.026569 0.557148 0.101394 0.066236
C37   C     C_R   0.566825 0.007952 0.434917 -0.178611
C38   C     C_R   0.433175 0.992048 0.565083 -0.178611
C39   C     C_R   0.933176 0.507868 0.065097 -0.176852
C40   C     C_R   0.066823 0.492131 0.934903 -0.176852
H9    H     H_    0.736618 0.881622 0.524478 0.103721
H10   H     H_    0.263382 0.118378 0.475522 0.103721
H11   H     H_    0.760187 0.409810 0.971008 0.098773
H12   H     H_    0.239813 0.590190 0.028992 0.098773
H13   H     H_    0.504401 0.852251 0.750567 0.113757
H14   H     H_    0.495599 0.147749 0.249433 0.113757
H15   H     H_    0.992491 0.380335 0.744802 0.110514
H16   H     H_    0.007509 0.619665 0.255198 0.110514

loop_
_geom_bond_atom_site_label_1
_geom_bond_atom_site_label_2
_ccdc_geom_bond_type
C26   C30   A    
C23   C27   A    
O10   C6    A    
C15   H15   S    
O6    V2    S    
C1    O15   A    
C18   C22   A    
C32   C36   A    
C14   C34   A    
H6    C21   S    
C34   C37   A    
O13   V1    S    
O3    V1    S    
O2    V4    S    
C33   C38   A    
C30   C38   A    
C35   C40   A    
O8    V4    S    
C2    O16   A    
H4    C20   S    
O5    V1    S    
O19   V1    S    
C8    C10   S    
O11   C7    A    
O5    C1    A    
O7    C3    A    
O8    C4    A    
O1    C5    A    
O9    V1    S    
O14   V2    S    
C15   C35   A    
O4    C8    A    
C25   H9    S    
O4    V2    S    
C3    C37   S    
C31   C35   A    
C30   C34   A    
H1    C17   S    
C11   C12   T    
C14   H14   S    
O1    V3    S    
C21   C25   A    
C15   C19   A    
O12   C8    A    
C28   H12   S    
C24   C28   A    
O20   V2    S    
C9    C10   T    
O6    C2    A    
C13   C17   A    
C4    C38   S    
O2    C6    A    
O16   V4    S    
C16   C36   A    
O10   V2    S    
C31   C39   A    
O15   V3    S    
C13   C33   A    
H2    C18   S    
C27   H11   S    
C26   H10   S    
C22   C26   A    
C29   C37   A    
C14   C18   A    
C4    O14   A    
C2    C40   S    
C25   C29   A    
C1    C39   S    
O17   V3    S    
C27   C31   A    
O18   V4    S    
C28   C32   A    
O9    C5    A    
C16   H16   S    
O3    C7    A    
O11   V3    S    
C5    C11   S    
H8    C23   S    
C6    C12   S    
C3    O13   A    
C7    C9    S    
C36   C39   A    
C17   C21   A    
O7    V3    S    
C19   C23   A    
C32   C40   A    
H5    C22   S    
H3    C19   S    
O12   V4    S    
C29   C33   A    
H7    C24   S    
C16   C20   A    
C13   H13   S    
C20   C24   A    
