data_str_m3_o40_o41_f0_fof.sym.208
_audit_creation_date              2012-12-10T16:37:57-0500
_audit_creation_method            fapswitch 2.2
_symmetry_space_group_name_H-M    P1
_symmetry_Int_Tables_number       1
_space_group_crystal_system       triclinic
_cell_length_a                    28.261154
_cell_length_b                    18.602688
_cell_length_c                    16.862517
_cell_angle_alpha                 89.897826
_cell_angle_beta                  60.971181
_cell_angle_gamma                 89.897795
_cell_volume                      7751.48954341

loop_
_atom_site_label
_atom_site_type_symbol
_atom_type_description
_atom_site_fract_x
_atom_site_fract_y
_atom_site_fract_z
_atom_type_partial_charge
C1    C     C_R   0.700217 0.264654 0.677199 0.898242
C2    C     C_R   0.300090 0.736147 0.322753 0.965753
C3    C     C_R   0.299423 0.265253 0.322774 0.871150
C4    C     C_R   0.700312 0.735137 0.677177 0.910506
C5    C     C_R   0.200337 0.765060 0.677215 0.909101
C6    C     C_R   0.799718 0.235212 0.322827 0.972624
C7    C     C_R   0.799987 0.764239 0.322811 0.842114
C8    C     C_R   0.200488 0.234698 0.677298 0.946541
C9    C     C_R   0.922222 0.500020 0.424778 0.045578
C10   C     C_R   0.108329 0.500263 0.467986 0.042716
C11   C     C_R   0.409112 0.995223 0.469241 0.010420
C12   C     C_R   0.604414 0.999182 0.481621 0.049683
C13   C     C_R   0.120448 0.373649 0.434117 -0.078041
C14   C     C_R   0.931106 0.628676 0.396196 -0.071330
C15   C     C_R   0.930617 0.370849 0.399767 -0.066951
C16   C     C_R   0.119867 0.627177 0.434559 -0.082407
C17   C     C_R   0.625444 0.878251 0.423353 -0.078739
C18   C     C_R   0.386249 0.111432 0.546242 -0.077152
C19   C     C_R   0.431203 0.875881 0.398777 -0.053964
C20   C     C_R   0.600531 0.128681 0.480754 -0.088073
C21   C     C_R   0.721864 0.268676 0.952259 0.016913
C22   C     C_R   0.278245 0.733467 0.047974 0.019771
C23   C     C_R   0.272159 0.279013 0.053334 0.017525
C24   C     C_R   0.722141 0.730704 0.952466 0.018614
C25   C     C_R   0.222813 0.771927 0.951443 0.018576
C26   C     C_R   0.777476 0.230612 0.048493 0.022661
C27   C     C_R   0.778104 0.768466 0.048212 0.028088
C28   C     C_R   0.211791 0.248203 0.963398 0.022696
C29   C     C_R   0.754600 0.206300 0.926803 0.048413
C30   C     C_R   0.245647 0.796103 0.073186 0.050879
C31   C     C_R   0.232450 0.224716 0.087111 0.047905
C32   C     C_R   0.755039 0.792845 0.926584 0.048696
C33   C     C_R   0.254972 0.708937 0.926884 0.050366
C34   C     C_R   0.744622 0.292878 0.074089 0.049847
C35   C     C_R   0.745374 0.706157 0.073938 0.055943
C36   C     C_R   0.252832 0.300819 0.927421 0.052181
C37   C     C_R   0.781948 0.186794 0.975973 0.054980
C38   C     C_R   0.218748 0.816282 0.023269 0.052009
C39   C     C_R   0.198754 0.214783 0.047121 0.053192
C40   C     C_R   0.782371 0.812357 0.975723 0.055217
C41   C     C_R   0.282326 0.689385 0.975987 0.054642
C42   C     C_R   0.717400 0.312498 0.024771 0.054787
C43   C     C_R   0.717596 0.687040 0.025348 0.054959
C44   C     C_R   0.280253 0.319825 0.976429 0.057877
C45   C     C_R   0.658177 0.347044 0.932403 0.068848
C46   C     C_R   0.342115 0.654820 0.067482 0.076513
C47   C     C_R   0.341027 0.350065 0.067197 0.071572
C48   C     C_R   0.657997 0.652897 0.933306 0.071004
C49   C     C_R   0.159842 0.850844 0.930255 0.067028
C50   C     C_R   0.841621 0.152704 0.067778 0.069956
C51   C     C_R   0.841989 0.846646 0.067494 0.064509
C52   C     C_R   0.137888 0.183207 0.957205 0.070913
C53   C     C_R   0.624984 0.359325 0.891270 -0.134831
C54   C     C_R   0.375486 0.642211 0.108301 -0.141700
C55   C     C_R   0.374619 0.360136 0.108212 -0.134185
C56   C     C_R   0.625017 0.640573 0.891655 -0.133767
C57   C     C_R   0.126222 0.862076 0.889770 -0.135397
C58   C     C_R   0.874964 0.140647 0.108730 -0.140001
C59   C     C_R   0.875197 0.858967 0.108627 -0.145203
C60   C     C_R   0.113398 0.158436 0.904790 -0.127962
C61   C     C_R   0.635271 0.324163 0.812974 -0.296793
C62   C     C_R   0.365495 0.677691 0.186316 -0.269590
C63   C     C_R   0.364092 0.324159 0.186246 -0.297643
C64   C     C_R   0.635544 0.675570 0.813059 -0.294885
C65   C     C_R   0.136089 0.826152 0.812153 -0.289641
C66   C     C_R   0.864726 0.175916 0.186950 -0.277778
C67   C     C_R   0.865045 0.823614 0.186883 -0.281204
C68   C     C_R   0.132196 0.181682 0.816947 -0.294414
C69   C     C_R   0.676810 0.275330 0.775054 -0.129948
C70   C     C_R   0.323832 0.726441 0.224594 -0.068461
C71   C     C_R   0.321527 0.277036 0.225183 -0.132263
C72   C     C_R   0.677076 0.724263 0.775065 -0.133389
C73   C     C_R   0.177302 0.776897 0.774803 -0.131711
C74   C     C_R   0.823047 0.224522 0.225035 -0.090805
C75   C     C_R   0.823640 0.774675 0.224810 -0.137146
C76   C     C_R   0.175707 0.227642 0.776474 -0.108440
C77   C     C_R   0.701288 0.249369 0.826770 0.077183
C78   C     C_R   0.299196 0.752630 0.173088 0.104123
C79   C     C_R   0.294654 0.254549 0.175617 0.064142
C80   C     C_R   0.701601 0.750043 0.826739 0.077207
C81   C     C_R   0.201816 0.751551 0.826631 0.078829
C82   C     C_R   0.798322 0.250214 0.173605 0.095602
C83   C     C_R   0.799295 0.748693 0.173045 0.090383
C84   C     C_R   0.199064 0.256823 0.828592 0.093298
C85   C     C_R   0.694878 0.128367 0.521700 0.922223
C86   C     C_R   0.308657 0.870213 0.463782 0.939314
C87   C     C_R   0.304180 0.127503 0.480140 0.955514
C88   C     C_R   0.697465 0.871692 0.514340 0.880246
C89   C     C_R   0.196568 0.628272 0.516336 0.929920
C90   C     C_R   0.808428 0.370797 0.465431 0.933334
C91   C     C_R   0.808399 0.629227 0.465510 0.865963
C92   C     C_R   0.196358 0.371774 0.516960 0.873446
C93   C     C_R   0.693528 0.287897 0.904306 0.079600
C94   C     C_R   0.306831 0.714185 0.095617 0.093975
C95   C     C_R   0.302959 0.293995 0.098157 0.069940
C96   C     C_R   0.693685 0.711642 0.904633 0.080802
C97   C     C_R   0.194613 0.791045 0.903280 0.082853
C98   C     C_R   0.806022 0.211604 0.096174 0.084670
C99   C     C_R   0.806699 0.787490 0.095770 0.081103
C100  C     C_R   0.183019 0.229251 0.916206 0.084674
C101  C     C_R   0.658143 0.392468 0.998869 -0.192005
C102  C     C_R   0.341729 0.609303 0.001527 -0.182729
C103  C     C_R   0.343147 0.394822 0.997947 -0.188940
C104  C     C_R   0.657340 0.608090 0.001056 -0.193405
C105  C     C_R   0.160675 0.897735 0.994954 -0.173121
C106  C     C_R   0.841794 0.107376 0.001102 -0.184868
C107  C     C_R   0.841984 0.891960 0.000773 -0.187139
C108  C     C_R   0.118850 0.165153 0.049538 -0.193225
C109  C     C_R   0.686729 0.375942 0.043788 -0.214131
C110  C     C_R   0.312859 0.625782 0.957105 -0.209855
C111  C     C_R   0.314522 0.379612 0.952797 -0.218293
C112  C     C_R   0.686057 0.624434 0.045755 -0.211627
C113  C     C_R   0.189055 0.880787 0.040583 -0.206159
C114  C     C_R   0.812956 0.123642 0.956536 -0.211081
C115  C     C_R   0.813171 0.875608 0.956255 -0.209832
C116  C     C_R   0.150135 0.176565 0.091267 -0.220898
C117  C     C_R   0.733118 0.187028 0.803630 -0.182797
C118  C     C_R   0.266881 0.814665 0.196862 -0.187366
C119  C     C_R   0.259723 0.194872 0.200645 -0.110655
C120  C     C_R   0.733573 0.812183 0.803300 -0.180326
C121  C     C_R   0.233044 0.688771 0.804460 -0.182262
C122  C     C_R   0.766256 0.312354 0.196999 -0.154707
C123  C     C_R   0.767830 0.686130 0.196042 -0.122414
C124  C     C_R   0.237234 0.313047 0.797471 -0.193108
C125  C     C_R   0.759038 0.165928 0.852230 -0.210505
C126  C     C_R   0.240867 0.835955 0.148296 -0.219653
C127  C     C_R   0.228606 0.181016 0.158494 -0.150708
C128  C     C_R   0.759575 0.833103 0.851729 -0.210369
C129  C     C_R   0.258916 0.667923 0.853110 -0.208832
C130  C     C_R   0.740063 0.333171 0.148773 -0.213235
C131  C     C_R   0.741600 0.665293 0.147907 -0.169734
C132  C     C_R   0.264006 0.333670 0.844651 -0.225900
C133  C     C_R   0.072996 0.101455 0.935528 0.922530
C134  C     C_R   0.921013 0.907448 0.070850 0.926482
C135  C     C_R   0.920980 0.092475 0.070834 0.910061
C136  C     C_R   0.079769 0.909216 0.928347 0.946639
C137  C     C_R   0.579035 0.592417 0.929198 0.921266
C138  C     C_R   0.421109 0.407379 0.070598 0.924090
C139  C     C_R   0.421164 0.593073 0.070660 0.922791
C140  C     C_R   0.579023 0.407554 0.929151 0.919432
C141  C     C_R   0.545725 0.125684 0.504496 0.005590
C142  C     C_R   0.477581 0.872933 0.411041 0.031917
C143  C     C_R   0.439395 0.117708 0.531972 0.018696
C144  C     C_R   0.575083 0.873919 0.422960 0.091661
C145  C     C_R   0.070024 0.629942 0.433757 0.021171
C146  C     C_R   0.975518 0.369360 0.415769 0.024610
C147  C     C_R   0.976184 0.630571 0.412160 0.094686
C148  C     C_R   0.070037 0.370500 0.435035 0.086779
C149  C     C_R   0.512937 0.187240 0.529519 -0.201714
C150  C     C_R   0.511694 0.812137 0.386975 -0.239915
C151  C     C_R   0.459345 0.182483 0.547563 -0.197031
C152  C     C_R   0.558718 0.812157 0.394662 -0.118866
C153  C     C_R   0.049235 0.694600 0.419874 -0.247057
C154  C     C_R   0.002095 0.304938 0.414742 -0.243342
C155  C     C_R   0.002648 0.695052 0.410894 -0.110823
C156  C     C_R   0.048375 0.305547 0.424454 -0.112474
C157  C     C_R   0.473902 0.057397 0.500072 0.050220
C158  C     C_R   0.540227 0.934100 0.450621 0.013458
C159  C     C_R   0.524881 0.059876 0.494980 0.046770
C160  C     C_R   0.491316 0.933384 0.446239 0.043642
C161  C     C_R   0.995668 0.565618 0.429397 0.013044
C162  C     C_R   0.042075 0.434887 0.441878 0.013620
C163  C     C_R   0.042113 0.565545 0.441062 0.047600
C164  C     C_R   0.995376 0.434591 0.431035 0.045287
C165  C     C_R   0.971139 0.500074 0.428250 -0.050279
C166  C     C_R   0.063821 0.500259 0.451107 -0.049020
C167  C     C_R   0.457675 0.994763 0.473191 -0.049284
C168  C     C_R   0.556637 0.997574 0.475024 -0.053097
C169  C     C_R   0.898102 0.434183 0.422073 0.057527
C170  C     C_R   0.132761 0.565406 0.470766 0.064313
C171  C     C_R   0.132717 0.435045 0.471189 -0.043307
C172  C     C_R   0.898151 0.565811 0.421402 -0.034663
C173  C     C_R   0.394116 0.934566 0.436315 0.047779
C174  C     C_R   0.624901 0.065239 0.492375 0.070380
C175  C     C_R   0.634070 0.936031 0.470420 -0.039252
C176  C     C_R   0.374903 0.056450 0.499373 0.054340
C177  C     C_R   0.843078 0.435104 0.440110 -0.070155
C178  C     C_R   0.172075 0.564143 0.502131 -0.072254
C179  C     C_R   0.171937 0.436099 0.502622 -0.104349
C180  C     C_R   0.843090 0.564925 0.439837 -0.129317
C181  C     C_R   0.341446 0.934968 0.444635 -0.057668
C182  C     C_R   0.669051 0.064233 0.511869 -0.081209
C183  C     C_R   0.673665 0.936444 0.500536 -0.114343
C184  C     C_R   0.331581 0.060520 0.479018 -0.077180
C185  C     C_R   0.817346 0.500039 0.447292 -0.288431
C186  C     C_R   0.188340 0.500085 0.521645 -0.305864
C187  C     C_R   0.314747 0.999165 0.454219 -0.306807
C188  C     C_R   0.689603 0.999996 0.521753 -0.307337
H1    H     H_    0.066394 0.254458 0.425577 0.177388
H2    H     H_    0.986973 0.746736 0.405406 0.186067
H3    H     H_    0.986907 0.253190 0.408675 0.123546
H4    H     H_    0.068067 0.745579 0.418186 0.126508
H5    H     H_    0.581195 0.762439 0.380143 0.187582
H6    H     H_    0.435107 0.230910 0.567661 0.121338
H7    H     H_    0.502185 0.762985 0.363887 0.127487
H8    H     H_    0.528252 0.238458 0.537653 0.127683
H9    H     H_    0.775174 0.500071 0.463929 0.193010
H10   H     H_    0.216354 0.500014 0.548439 0.185419
H11   H     H_    0.278171 0.000232 0.448457 0.192108
H12   H     H_    0.719972 0.999664 0.543531 0.190106
H13   H     H_    0.612952 0.338526 0.777985 0.193127
H14   H     H_    0.387892 0.663292 0.221159 0.188303
H15   H     H_    0.387321 0.336464 0.220224 0.194792
H16   H     H_    0.613317 0.661259 0.777972 0.193929
H17   H     H_    0.113507 0.839924 0.777427 0.193418
H18   H     H_    0.887200 0.161823 0.221766 0.193418
H19   H     H_    0.887327 0.837933 0.221876 0.212017
H20   H     H_    0.114516 0.160096 0.777532 0.191706
H21   H     H_    0.637716 0.443091 0.015761 0.158869
H22   H     H_    0.361959 0.558567 0.984781 0.157781
H23   H     H_    0.365546 0.443789 0.977836 0.163068
H24   H     H_    0.636263 0.558029 0.019538 0.159927
H25   H     H_    0.141185 0.949714 0.009180 0.173276
H26   H     H_    0.862615 0.057065 0.983552 0.159258
H27   H     H_    0.862619 0.942346 0.983163 0.159181
H28   H     H_    0.079197 0.143861 0.093491 0.180547
H29   H     H_    0.684163 0.415082 0.092647 0.131374
H30   H     H_    0.315224 0.586469 0.908587 0.131259
H31   H     H_    0.318770 0.417559 0.901357 0.131514
H32   H     H_    0.682660 0.585907 0.095922 0.130459
H33   H     H_    0.187472 0.920381 0.088309 0.136302
H34   H     H_    0.815746 0.084628 0.907397 0.131128
H35   H     H_    0.815734 0.914709 0.907214 0.131197
H36   H     H_    0.133860 0.158868 0.160766 0.150110
H37   H     H_    0.736896 0.152185 0.749584 0.162781
H38   H     H_    0.262737 0.849075 0.251501 0.162494
H39   H     H_    0.256461 0.157472 0.252182 0.158833
H40   H     H_    0.737402 0.847089 0.749154 0.164339
H41   H     H_    0.236345 0.653389 0.751180 0.162569
H42   H     H_    0.762507 0.347322 0.250915 0.158718
H43   H     H_    0.764347 0.651219 0.249981 0.151203
H44   H     H_    0.245922 0.344372 0.738075 0.168966
H45   H     H_    0.782917 0.117732 0.828206 0.134407
H46   H     H_    0.216422 0.883693 0.172778 0.136540
H47   H     H_    0.202532 0.134423 0.181302 0.127834
H48   H     H_    0.783635 0.881068 0.827302 0.134413
H49   H     H_    0.282315 0.619308 0.829749 0.134242
H50   H     H_    0.715902 0.381112 0.173133 0.131617
H51   H     H_    0.718094 0.616846 0.171739 0.124333
H52   H     H_    0.294291 0.374826 0.813029 0.134415
O1    O     O_R   0.746490 0.236330 0.638080 -0.633423
O2    O     O_R   0.253510 0.763670 0.361920 -0.644571
O3    O     O_R   0.253510 0.236330 0.361920 -0.631628
O4    O     O_R   0.746490 0.763670 0.638080 -0.629481
O5    O     O_R   0.246490 0.736330 0.638080 -0.631408
O6    O     O_R   0.753510 0.263670 0.361920 -0.620857
O7    O     O_R   0.753510 0.736330 0.361920 -0.631901
O8    O     O_R   0.246490 0.263670 0.638080 -0.636614
O9    O     O_R   0.674170 0.186160 0.516270 -0.635010
O10   O     O_R   0.325830 0.813840 0.483730 -0.639919
O11   O     O_R   0.325830 0.186160 0.483730 -0.637905
O12   O     O_R   0.674170 0.813840 0.516270 -0.636669
O13   O     O_R   0.174170 0.686160 0.516270 -0.650418
O14   O     O_R   0.825830 0.313840 0.483730 -0.632846
O15   O     O_R   0.825830 0.686160 0.483730 -0.629076
O16   O     O_R   0.174170 0.313840 0.516270 -0.639551
O17   O     O_R   0.739960 0.127620 0.525000 -0.641268
O18   O     O_R   0.260040 0.872380 0.475000 -0.640030
O19   O     O_R   0.260040 0.127620 0.475000 -0.638215
O20   O     O_R   0.739960 0.872380 0.525000 -0.633642
O21   O     O_R   0.239960 0.627620 0.525000 -0.637085
O22   O     O_R   0.760040 0.372380 0.475000 -0.643492
O23   O     O_R   0.760040 0.627620 0.475000 -0.629726
O24   O     O_R   0.239960 0.372380 0.525000 -0.634296
O25   O     O_R   0.680700 0.294870 0.629350 -0.625476
O26   O     O_R   0.319300 0.705130 0.370650 -0.633101
O27   O     O_R   0.319300 0.294870 0.370650 -0.623137
O28   O     O_R   0.680700 0.705130 0.629350 -0.616301
O29   O     O_R   0.180700 0.794870 0.629350 -0.618821
O30   O     O_R   0.819300 0.205130 0.370650 -0.627344
O31   O     O_R   0.819300 0.794870 0.370650 -0.621295
O32   O     O_R   0.180700 0.205130 0.629350 -0.621484
O33   O     O_R   0.062020 0.072840 0.007170 -0.652371
O34   O     O_R   0.937980 0.927160 0.992830 -0.638623
O35   O     O_R   0.937980 0.072840 0.992830 -0.641464
O36   O     O_R   0.062020 0.927160 0.007170 -0.621494
O37   O     O_R   0.562020 0.572840 0.007170 -0.637383
O38   O     O_R   0.437980 0.427160 0.992830 -0.640209
O39   O     O_R   0.437980 0.572840 0.992830 -0.638092
O40   O     O_R   0.562020 0.427160 0.007170 -0.636882
O41   O     O_R   0.947860 0.073950 0.109290 -0.628950
O42   O     O_R   0.052140 0.926050 0.890710 -0.615474
O43   O     O_R   0.052140 0.073950 0.890710 -0.616891
O44   O     O_R   0.947860 0.926050 0.109290 -0.607306
O45   O     O_R   0.447860 0.573950 0.109290 -0.615691
O46   O     O_R   0.552140 0.426050 0.890710 -0.618457
O47   O     O_R   0.552140 0.573950 0.890710 -0.617005
O48   O     O_R   0.447860 0.426050 0.109290 -0.616404
Zn1   Zn    Zn3+2 0.792340 0.208750 0.507670 0.944366
Zn2   Zn    Zn3+2 0.207660 0.791250 0.492330 0.935742
Zn3   Zn    Zn3+2 0.207660 0.208750 0.492330 0.969781
Zn4   Zn    Zn3+2 0.792340 0.791250 0.507670 0.960356
Zn5   Zn    Zn3+2 0.292340 0.708750 0.507670 0.945115
Zn6   Zn    Zn3+2 0.707660 0.291250 0.492330 0.946287
Zn7   Zn    Zn3+2 0.707660 0.708750 0.492330 0.957752
Zn8   Zn    Zn3+2 0.292340 0.291250 0.507670 0.935191
Zn9   Zn    Zn3+2 0.505960 0.500000 0.080520 0.936752
Zn10  Zn    Zn3+2 0.494040 0.500000 0.919480 0.933351
Zn11  Zn    Zn3+2 0.005960 0.000000 0.080520 0.943571
Zn12  Zn    Zn3+2 0.994040 0.000000 0.919480 0.938189
C189  C     C_2   0.166811 0.331377 0.364610 0.497278
H53   H     H_    0.207750 0.348924 0.343830 0.059351
O49   O     O_2   0.160469 0.279511 0.326668 -0.604906
C190  C     C_2   0.926072 0.681282 0.333216 0.466317
H54   H     H_    0.894800 0.674183 0.314256 0.047025
O50   O     O_2   0.958379 0.729948 0.296602 -0.597385
C191  C     C_2   0.926141 0.314678 0.340528 0.462585
H55   H     H_    0.941009 0.260573 0.337472 0.039615
O51   O     O_2   0.907081 0.329474 0.291179 -0.603970
C192  C     C_2   0.164445 0.672375 0.366862 0.500148
H56   H     H_    0.157784 0.727946 0.355510 0.047591
O52   O     O_2   0.209027 0.645941 0.319348 -0.590267
C193  C     C_2   0.674408 0.840076 0.353257 0.484178
H57   H     H_    0.713959 0.855350 0.343013 0.058361
O53   O     O_2   0.672378 0.795696 0.301858 -0.597766
C194  C     C_2   0.341717 0.150057 0.624479 0.469443
H58   H     H_    0.349332 0.198847 0.651390 0.047820
O54   O     O_2   0.295957 0.125326 0.663014 -0.583527
C195  C     C_2   0.426262 0.824639 0.335154 0.440088
H59   H     H_    0.437135 0.768549 0.332511 0.049166
O55   O     O_2   0.410063 0.845368 0.283782 -0.600745
C196  C     C_2   0.633400 0.181043 0.407603 0.509948
H60   H     H_    0.616475 0.232514 0.403842 0.019379
O56   O     O_2   0.679039 0.165621 0.348427 -0.566893

loop_
_geom_bond_atom_site_label_1
_geom_bond_atom_site_label_2
_ccdc_geom_bond_type
C128  H48   S    
C196  O56   D    
C154  H3    S    
C85   C182  S    
C6    O30   A    
C9    C169  A    
C34   C42   A    
C181  C187  A    
C189  H53   S    
O9    Zn6   S    
C27   C99   A    
O39   Zn10  S    
C170  C178  A    
C139  O39   A    
C42   C109  A    
C24   C96   A    
C149  H8    S    
O1    Zn1   S    
C137  O47   A    
C62   C70   A    
C147  C155  A    
C88   O12   A    
O45   Zn9   S    
C143  C151  A    
C64   H16   S    
C90   C177  S    
C26   C34   A    
C11   C167  A    
C82   C98   A    
C157  C167  A    
C81   C121  A    
C73   C81   A    
C161  C163  A    
C162  C164  A    
O3    Zn3   S    
C192  O52   D    
C84   C100  A    
C121  H41   S    
C87   O19   A    
C37   C114  A    
C27   C35   A    
C10   C171  A    
C133  O43   A    
C21   C29   A    
O6    Zn6   S    
C17   C193  S    
C194  H58   S    
C23   C31   A    
C24   C32   A    
C91   O15   A    
C146  C154  A    
C113  H33   S    
C92   O24   A    
C63   C71   A    
C36   C44   A    
C89   O21   A    
O36   Zn11  S    
C91   O23   A    
C12   C174  A    
C176  C184  A    
C48   C96   A    
C129  H49   S    
C6    O6    A    
O44   Zn11  S    
C127  H47   S    
C60   C68   A    
C148  C162  A    
C183  C188  A    
C108  C116  A    
O38   Zn10  S    
C21   C93   A    
C78   C94   A    
C7    O31   A    
C23   C95   A    
C135  O35   A    
C49   C97   A    
C21   C42   A    
C22   C41   A    
C107  H27   S    
C51   C107  A    
C24   C43   A    
C185  H9    S    
C82   C122  A    
C161  C165  A    
C17   C175  A    
C18   C176  A    
C195  O55   D    
C85   O9    A    
O47   Zn10  S    
C29   C125  A    
C140  O40   A    
C69   C77   A    
C31   C127  A    
C45   C93   A    
C174  C182  A    
O30   Zn1   S    
C71   C79   A    
O17   Zn1   S    
C179  C186  A    
C118  H38   S    
C87   O11   A    
C137  O37   A    
C11   C176  A    
C63   H15   S    
C17   C144  A    
O11   Zn8   S    
C151  H6    S    
C105  C113  A    
C18   C143  A    
C78   C118  A    
C149  C151  A    
C193  O53   D    
C65   H17   S    
C188  H12   S    
C66   C74   A    
C7    O7    A    
C8    C76   S    
C49   C57   A    
C124  C132  A    
C52   C60   A    
C59   C67   A    
C53   C61   A    
C141  C159  A    
C62   H14   S    
C55   C63   A    
C86   C181  S    
C56   C64   A    
C35   C43   A    
C156  H1    S    
C190  O50   D    
C90   O14   A    
C45   C53   A    
O10   Zn5   S    
C138  O38   A    
C22   C94   A    
C171  C179  A    
C111  H31   S    
C169  C177  A    
C106  H26   S    
C50   C98   A    
C133  O33   A    
C103  H23   S    
C104  C112  A    
C3    O3    A    
C145  C163  A    
C101  H21   S    
C146  C164  A    
C14   C147  A    
C52   C100  A    
C134  O44   A    
C16   C145  A    
C178  C186  A    
C25   C38   A    
C54   C139  S    
C46   C94   A    
C27   C40   A    
C10   C166  A    
C57   C65   A    
C91   C180  S    
C112  H32   S    
C182  C188  A    
C89   C178  S    
C2    O2    A    
C28   C36   A    
C25   C97   A    
C67   C75   A    
C104  H24   S    
C136  O42   A    
C121  C129  A    
C22   C30   A    
C20   C141  A    
C19   C195  S    
C15   C146  A    
C58   C135  S    
C68   C76   A    
O24   Zn8   S    
C59   C134  S    
C184  C187  A    
C85   O17   A    
C32   C128  A    
C132  H52   S    
C72   C80   A    
C56   C137  S    
O18   Zn2   S    
C5    C73   S    
C126  H46   S    
C150  H7    S    
C109  H29   S    
C13   C171  A    
O23   Zn7   S    
C140  O46   A    
C117  C125  A    
C4    O4    A    
O16   Zn3   S    
C25   C33   A    
C119  C127  A    
O12   Zn7   S    
O13   Zn2   S    
C76   C84   A    
O20   Zn4   S    
C158  C168  A    
C115  H35   S    
C164  C165  A    
O21   Zn5   S    
O32   Zn3   S    
O2    Zn2   S    
C40   C115  A    
C101  C109  A    
C177  C185  A    
C103  C111  A    
C86   O18   A    
C162  C166  A    
C79   C119  A    
C68   H20   S    
O48   Zn9   S    
O22   Zn6   S    
C153  C155  A    
C120  H40   S    
C154  C156  A    
C172  C180  A    
C196  H60   S    
C173  C181  A    
C157  C159  A    
C83   C99   A    
C158  C160  A    
O40   Zn9   S    
C74   C82   A    
C6    C74   S    
C189  O49   D    
C16   C192  S    
C47   C103  A    
C141  C149  A    
C191  H55   S    
C50   C58   A    
C163  C166  A    
C3    O27   A    
C147  C161  A    
C38   C113  A    
C49   C105  A    
C54   C62   A    
C28   C39   A    
C1    C69   S    
C23   C44   A    
C187  H11   S    
C116  H36   S    
C3    C71   S    
O33   Zn11  S    
C79   C95   A    
C92   C179  S    
O34   Zn12  S    
C46   C54   A    
O8    Zn8   S    
C114  H34   S    
C108  H28   S    
C45   C101  A    
C92   O16   A    
C20   C196  S    
C19   C142  A    
O26   Zn5   S    
C102  C110  A    
C35   C131  A    
O31   Zn4   S    
C4    C72   S    
O35   Zn12  S    
C33   C129  A    
C192  H56   S    
C36   C132  A    
C123  C131  A    
C5    O5    A    
C120  C128  A    
C26   C37   A    
C15   C191  S    
C10   C170  A    
C5    O29   A    
C33   C41   A    
C142  C150  A    
C9    C165  A    
C75   C83   A    
C193  H57   S    
C77   C93   A    
C18   C194  S    
C88   O20   A    
C195  H59   S    
C44   C111  A    
C16   C170  A    
C123  H43   S    
C8    O8    A    
C8    O32   A    
C39   C116  A    
C29   C37   A    
C50   C106  A    
C186  H10   S    
C9    C172  A    
C148  C156  A    
C83   C123  A    
C2    C70   S    
C60   C133  S    
C144  C152  A    
C2    O26   A    
C86   O10   A    
C30   C126  A    
O7    Zn7   S    
C70   C78   A    
C53   C140  S    
C135  O41   A    
O41   Zn11  S    
C139  O45   A    
C19   C173  A    
O42   Zn12  S    
C46   C102  A    
C117  H37   S    
C55   C138  S    
C152  H5    S    
C106  C114  A    
C155  H2    S    
C77   C117  A    
C66   H18   S    
C48   C104  A    
C138  O48   A    
C65   C73   A    
C159  C168  A    
C15   C169  A    
C160  C167  A    
C61   H13   S    
O43   Zn12  S    
O4    Zn4   S    
C131  H51   S    
C57   C136  S    
C80   C96   A    
O14   Zn1   S    
C145  C153  A    
C28   C100  A    
C32   C40   A    
C52   C108  A    
C89   O13   A    
C13   C189  S    
C136  O36   A    
C90   O22   A    
C58   C66   A    
C143  C157  A    
C51   C99   A    
C122  H42   S    
C20   C174  A    
C11   C173  A    
C105  H25   S    
C14   C172  A    
O5    Zn5   S    
C87   C184  S    
C102  H22   S    
C88   C183  S    
C7    C75   S    
C191  O51   D    
O15   Zn4   S    
O19   Zn3   S    
C124  H44   S    
C107  C115  A    
C1    O1    A    
C26   C98   A    
C12   C175  A    
O37   Zn9   S    
C190  H54   S    
C41   C110  A    
C134  O34   A    
C194  O54   D    
C150  C152  A    
C80   C120  A    
C51   C59   A    
C43   C112  A    
C144  C158  A    
C67   H19   S    
C47   C55   A    
C61   C69   A    
C48   C56   A    
C130  H50   S    
C175  C183  A    
C4    O28   A    
C142  C160  A    
C12   C168  A    
C84   C124  A    
C13   C148  A    
O28   Zn7   S    
O29   Zn2   S    
C81   C97   A    
O25   Zn6   S    
C31   C39   A    
C64   C72   A    
O27   Zn8   S    
C110  H30   S    
C125  H45   S    
C180  C185  A    
C1    O25   A    
C34   C130  A    
C47   C95   A    
O46   Zn10  S    
C14   C190  S    
C118  C126  A    
C30   C38   A    
C122  C130  A    
C119  H39   S    
C153  H4    S    
