data_str_m3_o22_o22_f0_pcu.sym.90
_audit_creation_date              2012-12-10T19:09:34-0500
_audit_creation_method            fapswitch 2.2
_symmetry_space_group_name_H-M    P1
_symmetry_Int_Tables_number       1
_space_group_crystal_system       triclinic
_cell_length_a                    15.040633
_cell_length_b                    15.106095
_cell_length_c                    9.702252
_cell_angle_alpha                 90.231855
_cell_angle_beta                  90.094713
_cell_angle_gamma                 89.933808
_cell_volume                      2204.37989178

loop_
_atom_site_label
_atom_site_type_symbol
_atom_type_description
_atom_site_fract_x
_atom_site_fract_y
_atom_site_fract_z
_atom_type_partial_charge
C1    C     C_R   0.123608 0.381506 0.499820 0.901179
C2    C     C_R   0.123250 0.618804 0.500421 0.910903
C3    C     C_R   0.623609 0.881507 0.499820 0.901231
C4    C     C_R   0.623252 0.118802 0.500421 0.910887
C5    C     C_3   0.906854 0.500043 0.080878 -0.227352
C6    C     C_3   0.906861 0.499048 0.918676 -0.220329
C7    C     C_3   0.406853 0.000043 0.080878 -0.227355
C8    C     C_3   0.406861 0.999049 0.918676 -0.220333
C9    C     C_R   0.880385 0.377074 0.499820 0.990063
C10   C     C_R   0.881784 0.624060 0.499968 0.939414
C11   C     C_R   0.380382 0.877077 0.499820 0.990204
C12   C     C_R   0.381785 0.124060 0.499968 0.939398
C13   C     C_3   0.805991 0.265302 0.647106 0.260209
C14   C     C_3   0.836752 0.233535 0.391502 0.247151
C15   C     C_3   0.810613 0.739275 0.354256 0.323079
C16   C     C_3   0.836112 0.765420 0.612297 0.245343
C17   C     C_3   0.305971 0.765322 0.647118 0.260198
C18   C     C_3   0.336758 0.733531 0.391529 0.247162
C19   C     C_3   0.310617 0.239279 0.354259 0.323078
C20   C     C_3   0.336110 0.265418 0.612302 0.245338
C21   C     C_3   0.229417 0.698618 0.649399 -0.535134
C22   C     C_3   0.269388 0.657388 0.404453 -0.418867
C23   C     C_3   0.233243 0.305516 0.352203 -0.499443
C24   C     C_3   0.268367 0.341480 0.600989 -0.431210
C25   C     C_3   0.729439 0.198596 0.649389 -0.535119
C26   C     C_3   0.769379 0.157394 0.404419 -0.418772
C27   C     C_3   0.733240 0.805514 0.352202 -0.499450
C28   C     C_3   0.768369 0.841482 0.600984 -0.431230
C29   C     C_3   0.721038 0.348627 0.457308 0.659460
C30   C     C_3   0.720741 0.650859 0.528617 0.697468
C31   C     C_3   0.221036 0.848628 0.457282 0.659393
C32   C     C_3   0.220741 0.150857 0.528609 0.697489
C33   C     C_3   0.813222 0.307380 0.499558 -0.078286
C34   C     C_3   0.814663 0.693648 0.499420 -0.174011
C35   C     C_3   0.313216 0.807385 0.499561 -0.078174
C36   C     C_3   0.314663 0.193649 0.499420 -0.174019
C37   C     C_3   0.192223 0.685710 0.501261 -0.041939
C38   C     C_3   0.193175 0.314996 0.499378 -0.077991
C39   C     C_3   0.692227 0.185706 0.501259 -0.041969
C40   C     C_3   0.693175 0.814996 0.499378 -0.078007
C41   C     C_3   0.151048 0.773445 0.450112 -0.490467
C42   C     C_3   0.152041 0.226150 0.545609 -0.382245
C43   C     C_3   0.651047 0.273447 0.450148 -0.490470
C44   C     C_3   0.652041 0.726152 0.545612 -0.382221
C45   C     C_3   0.045218 0.420640 0.081549 0.257108
C46   C     C_3   0.046128 0.421191 0.917716 0.269365
C47   C     C_3   0.044247 0.579809 0.918698 0.256350
C48   C     C_3   0.045122 0.579290 0.082538 0.270520
C49   C     C_3   0.545218 0.920639 0.081549 0.257123
C50   C     C_3   0.546127 0.921190 0.917716 0.269365
C51   C     C_3   0.544247 0.079808 0.918698 0.256352
C52   C     C_3   0.545123 0.079290 0.082538 0.270522
H1    H     H_    0.789932 0.317674 0.724028 0.153549
H2    H     H_    0.830341 0.260823 0.285027 0.173113
H3    H     H_    0.796132 0.688811 0.273392 0.169833
H4    H     H_    0.829551 0.736376 0.717188 0.118544
H5    H     H_    0.289906 0.817702 0.724023 0.153533
H6    H     H_    0.330349 0.760809 0.285046 0.173046
H7    H     H_    0.296139 0.188817 0.273391 0.169837
H8    H     H_    0.329547 0.236372 0.717191 0.118545
H9    H     H_    0.251541 0.634177 0.693118 0.200122
H10   H     H_    0.302063 0.596895 0.446046 0.202555
H11   H     H_    0.255205 0.371047 0.312705 0.184347
H12   H     H_    0.301086 0.403160 0.564370 0.209516
H13   H     H_    0.751570 0.134149 0.693081 0.200117
H14   H     H_    0.802056 0.096894 0.445982 0.202554
H15   H     H_    0.755203 0.871043 0.312700 0.184350
H16   H     H_    0.801087 0.903161 0.564361 0.209519
H17   H     H_    0.176044 0.724224 0.718318 0.166320
H18   H     H_    0.244003 0.640290 0.299827 0.157616
H19   H     H_    0.181306 0.280770 0.279788 0.182479
H20   H     H_    0.241205 0.355868 0.705398 0.154549
H21   H     H_    0.676075 0.224192 0.718333 0.166323
H22   H     H_    0.743981 0.140312 0.299795 0.157616
H23   H     H_    0.681302 0.780767 0.279790 0.182472
H24   H     H_    0.741209 0.855871 0.705393 0.154550
H25   H     H_    0.091391 0.790764 0.511916 0.208387
H26   H     H_    0.127264 0.764508 0.342190 0.210107
H27   H     H_    0.091698 0.211266 0.483708 0.236452
H28   H     H_    0.129394 0.231866 0.654439 0.165959
H29   H     H_    0.591401 0.290761 0.511980 0.208371
H30   H     H_    0.627244 0.264522 0.342233 0.210116
H31   H     H_    0.591698 0.711268 0.483711 0.236481
H32   H     H_    0.629395 0.731870 0.654442 0.165957
H33   H     H_    0.115670 0.421929 0.118073 0.026424
H34   H     H_    0.116955 0.424158 0.883530 0.006800
H35   H     H_    0.114714 0.579217 0.882559 0.029794
H36   H     H_    0.115974 0.577092 0.117119 0.011494
H37   H     H_    0.615670 0.921929 0.118073 0.026423
H38   H     H_    0.616954 0.924157 0.883529 0.006800
H39   H     H_    0.614715 0.079216 0.882559 0.029793
H40   H     H_    0.615975 0.077091 0.117119 0.011490
H41   H     H_    0.869313 0.441885 0.119483 0.220976
H42   H     H_    0.870459 0.439685 0.881019 0.202533
H43   H     H_    0.868595 0.556816 0.879850 0.199006
H44   H     H_    0.869706 0.559019 0.118417 0.195111
H45   H     H_    0.369313 0.941885 0.119482 0.220985
H46   H     H_    0.370459 0.939687 0.881019 0.202538
H47   H     H_    0.368595 0.056818 0.879851 0.199000
H48   H     H_    0.369706 0.059019 0.118418 0.195109
N1    N     N_3   0.998760 0.500000 0.138610 -0.088825
N2    N     N_3   0.998760 0.500000 0.861390 -0.088259
N3    N     N_3   0.498760 1.000000 0.138610 -0.088827
N4    N     N_3   0.498760 1.000000 0.861390 -0.088260
O1    O     O_R   0.092530 0.407440 0.616040 -0.612770
O2    O     O_R   0.092530 0.407440 0.383960 -0.626160
O3    O     O_R   0.092530 0.592560 0.383960 -0.612284
O4    O     O_R   0.092530 0.592560 0.616040 -0.627122
O5    O     O_R   0.592530 0.907440 0.616040 -0.612774
O6    O     O_R   0.592530 0.907440 0.383960 -0.626141
O7    O     O_R   0.592530 0.092560 0.383960 -0.612289
O8    O     O_R   0.592530 0.092560 0.616040 -0.627120
O9    O     O_R   0.907330 0.407420 0.616040 -0.568330
O10   O     O_R   0.907330 0.407420 0.383960 -0.596136
O11   O     O_R   0.907330 0.592580 0.383960 -0.584813
O12   O     O_R   0.907330 0.592580 0.616040 -0.596558
O13   O     O_R   0.407330 0.907420 0.616040 -0.568349
O14   O     O_R   0.407330 0.907420 0.383960 -0.596099
O15   O     O_R   0.407330 0.092580 0.383960 -0.584825
O16   O     O_R   0.407330 0.092580 0.616040 -0.596570
Zn1   Zn    Zn3+2 0.999890 0.500000 0.654960 1.006648
Zn2   Zn    Zn3+2 0.999890 0.500000 0.345040 1.003056
Zn3   Zn    Zn3+2 0.499890 1.000000 0.654960 1.006650
Zn4   Zn    Zn3+2 0.499890 1.000000 0.345040 1.003070
O17   O     O_3   0.887094 0.227479 0.690837 -0.678969
H49   H     H_    0.893213 0.167555 0.649915 0.384136
O18   O     O_3   0.923520 0.200813 0.409394 -0.759010
H50   H     H_    0.963380 0.237573 0.351829 0.355698
O19   O     O_3   0.892387 0.778260 0.317302 -0.693765
H51   H     H_    0.896319 0.838175 0.358892 0.379765
O20   O     O_3   0.922673 0.799358 0.598523 -0.750663
H52   H     H_    0.963159 0.759718 0.650419 0.356983
O21   O     O_3   0.387068 0.727501 0.690877 -0.678925
H53   H     H_    0.393189 0.667572 0.649972 0.384137
O22   O     O_3   0.423527 0.700818 0.409456 -0.759040
H54   H     H_    0.463374 0.737479 0.351706 0.355695
O23   O     O_3   0.392391 0.278265 0.317312 -0.693773
H55   H     H_    0.396322 0.338180 0.358905 0.379762
O24   O     O_3   0.422670 0.299357 0.598536 -0.750662
H56   H     H_    0.463157 0.259713 0.650420 0.356993
O25   O     O_3   0.695337 0.415218 0.552054 -0.713459
H57   H     H_    0.671519 0.387343 0.636607 0.319678
O26   O     O_3   0.728100 0.387433 0.325914 -0.798730
H58   H     H_    0.670242 0.416332 0.305331 0.373792
O27   O     O_3   0.693408 0.598938 0.415317 -0.737615
H59   H     H_    0.736884 0.550197 0.404578 0.377253
O28   O     O_3   0.721622 0.596052 0.646404 -0.709130
H60   H     H_    0.729149 0.633129 0.730004 0.291455
O29   O     O_3   0.195324 0.915223 0.552014 -0.713469
H61   H     H_    0.171491 0.887352 0.636560 0.319694
O30   O     O_3   0.228111 0.887428 0.325885 -0.798728
H62   H     H_    0.170255 0.916327 0.305285 0.373794
O31   O     O_3   0.193410 0.098941 0.415304 -0.737586
H63   H     H_    0.236887 0.050200 0.404561 0.377246
O32   O     O_3   0.221620 0.096047 0.646392 -0.709140
H64   H     H_    0.229148 0.133120 0.729996 0.291455
O33   O     O_3   0.004932 0.343357 0.132293 -0.714020
H65   H     H_    0.049210 0.294887 0.123616 0.319058
O34   O     O_3   0.008060 0.343463 0.863464 -0.645348
H66   H     H_    0.053698 0.296155 0.870494 0.325840
O35   O     O_3   0.003044 0.656682 0.867745 -0.720974
H67   H     H_    0.046705 0.705592 0.876810 0.316077
O36   O     O_3   0.006031 0.656609 0.136573 -0.651308
H68   H     H_    0.050864 0.704514 0.129005 0.328771
O37   O     O_3   0.504932 0.843357 0.132294 -0.714039
H69   H     H_    0.549210 0.794887 0.123614 0.319028
O38   O     O_3   0.508059 0.843463 0.863465 -0.645336
H70   H     H_    0.553696 0.796154 0.870496 0.325834
O39   O     O_3   0.503047 0.156682 0.867745 -0.720972
H71   H     H_    0.546709 0.205590 0.876807 0.316080
O40   O     O_3   0.506032 0.156609 0.136573 -0.651312
H72   H     H_    0.550866 0.204513 0.129010 0.328774

loop_
_geom_bond_atom_site_label_1
_geom_bond_atom_site_label_2
_ccdc_geom_bond_type
C16   C28   S    
O40   H72   S    
C52   N3    S    
C42   H28   S    
O33   H65   S    
O39   H71   S    
C19   C23   S    
O36   H68   S    
O4    Zn1   S    
C44   H31   S    
C30   C44   S    
C14   C33   S    
O35   H67   S    
O22   H54   S    
C48   O36   S    
O15   Zn4   S    
C13   C33   S    
C46   N2    S    
O37   H69   S    
C9    O10   A    
C32   C36   S    
C20   O24   S    
C28   H16   S    
C8    H47   S    
C38   C42   S    
C19   C36   S    
C41   H25   S    
C5    C6    S    
C31   O29   S    
C26   C39   S    
C28   C40   S    
C3    O6    A    
O26   H58   S    
C12   O15   A    
C29   C33   S    
C2    O3    A    
C21   C37   S    
C16   O20   S    
C8    H46   S    
O6    Zn4   S    
C12   O16   A    
C18   H6    S    
C46   O34   S    
O28   H60   S    
C6    H42   S    
C24   C38   S    
O30   H62   S    
C48   H36   S    
C12   C36   S    
N2    Zn1   S    
C7    H45   S    
C18   C35   S    
C15   C34   S    
C21   H9    S    
O16   Zn3   S    
C1    O2    A    
C51   H39   S    
C23   H11   S    
C4    O8    A    
C42   H27   S    
C24   H12   S    
C47   N2    S    
C7    N3    S    
C29   C43   S    
C9    C33   S    
C13   C25   S    
C27   H23   S    
N3    Zn4   S    
C52   O40   S    
C50   H38   S    
O27   H59   S    
C13   H1    S    
C5    N1    S    
C7    H48   S    
C30   C34   S    
O1    Zn1   S    
C51   C52   S    
C26   H14   S    
C47   C48   S    
C23   H19   S    
C51   O39   S    
C45   O33   S    
O8    Zn3   S    
C7    C8    S    
O12   Zn1   S    
O38   H70   S    
N4    Zn3   S    
O5    Zn3   S    
C39   C43   S    
C19   H7    S    
C51   N4    S    
C45   C46   S    
C22   C37   S    
C17   C21   S    
C14   O18   S    
C21   H17   S    
C15   H3    S    
C45   H33   S    
C16   H4    S    
C49   O37   S    
C16   C34   S    
C22   H10   S    
C32   O32   S    
C31   O30   S    
C15   C27   S    
O34   H66   S    
C15   O19   S    
C4    C39   S    
C27   C40   S    
C19   O23   S    
C29   O25   S    
O2    Zn2   S    
C25   H13   S    
C18   O22   S    
C10   C34   S    
O14   Zn4   S    
C14   C26   S    
C8    N4    S    
C50   O38   S    
C45   N1    S    
C1    C38   S    
C14   H2    S    
C4    O7    A    
C3    C40   S    
C49   C50   S    
C17   O21   S    
O21   H53   S    
C43   H29   S    
C31   C35   S    
C52   H40   S    
C20   H8    S    
O20   H52   S    
C11   O13   A    
C41   H26   S    
C5    H44   S    
C10   O12   A    
C47   H35   S    
C24   H20   S    
C30   O27   S    
O19   H51   S    
C47   O35   S    
C31   C41   S    
O7    Zn4   S    
C18   C22   S    
C49   H37   S    
C44   H32   S    
C49   N3    S    
C5    H41   S    
O24   H56   S    
C23   C38   S    
O23   H55   S    
N1    Zn2   S    
C9    O9    A    
C11   C35   S    
O13   Zn3   S    
C30   O28   S    
C13   O17   S    
O25   H57   S    
C25   C39   S    
C2    C37   S    
O17   H49   S    
C3    O5    A    
C48   N1    S    
O10   Zn2   S    
C2    O4    A    
C26   H22   S    
C22   H18   S    
C25   H21   S    
C6    N2    S    
C37   C41   S    
C27   H15   S    
C10   O11   A    
C32   O31   S    
C20   C36   S    
C40   C44   S    
O9    Zn1   S    
C29   O26   S    
C6    H43   S    
C17   H5    S    
O32   H64   S    
O11   Zn2   S    
C43   H30   S    
C32   C42   S    
C17   C35   S    
O3    Zn2   S    
O31   H63   S    
O29   H61   S    
C11   O14   A    
C20   C24   S    
C50   N4    S    
O18   H50   S    
C1    O1    A    
C46   H34   S    
C28   H24   S    
