data_str_m2_o16_o24_f0_pcu.sym.74
_audit_creation_date              2012-12-10T17:36:49-0500
_audit_creation_method            fapswitch 2.2
_symmetry_space_group_name_H-M    P1
_symmetry_Int_Tables_number       1
_space_group_crystal_system       triclinic
_cell_length_a                    10.64146
_cell_length_b                    12.394362
_cell_length_c                    13.252246
_cell_angle_alpha                 117.266133
_cell_angle_beta                  75.930809
_cell_angle_gamma                 100.758657
_cell_volume                      1501.31656586

loop_
_atom_site_label
_atom_site_type_symbol
_atom_type_description
_atom_site_fract_x
_atom_site_fract_y
_atom_site_fract_z
_atom_type_partial_charge
C1    C     C_R   0.522727 0.854918 0.286544 0.985154
C2    C     C_3   0.016973 0.909145 0.522791 -0.302711
C3    C     C_3   0.962094 0.898236 0.420579 -0.035461
C4    C     C_3   0.876505 0.001899 0.503148 -0.020579
C5    C     C_R   0.318362 0.292666 0.017569 0.493924
C6    C     C_R   0.470736 0.227602 0.836741 -0.126374
C7    C     C_R   0.692462 0.794137 0.112893 0.290493
C8    C     C_R   0.762186 0.694302 0.029086 0.422988
C9    C     C_R   0.703773 0.576532 0.002130 -0.109828
C10   C     C_R   0.568585 0.553813 0.033975 -0.047208
C11   C     C_R   0.499086 0.652853 0.120274 -0.092327
C12   C     C_R   0.739934 0.000256 0.500760 0.843148
C13   C     C_R   0.501197 0.435462 0.986581 -0.041075
C14   C     C_R   0.377429 0.413280 0.049922 -0.009764
C15   C     C_R   0.312259 0.512260 0.140862 0.331249
C16   C     C_R   0.366678 0.632083 0.164106 0.314713
C17   C     C_R   0.546927 0.339896 0.876472 -0.019204
C18   C     C_R   0.365874 0.201264 0.910510 -0.326203
C19   C     C_R   0.564794 0.770997 0.165263 -0.109313
C20   C     C_R   0.715572 0.344698 0.330796 -0.217448
C21   C     C_R   0.325482 0.765718 0.649695 -0.014370
C22   C     C_R   0.301273 0.683929 0.699089 0.262200
C23   C     C_R   0.485781 0.144797 0.713284 0.804656
C24   C     C_R   0.381326 0.587922 0.654037 0.034343
C25   C     C_R   0.469099 0.560967 0.546231 -0.065296
C26   C     C_R   0.496218 0.653528 0.506641 0.201808
C27   C     C_R   0.535947 0.450903 0.479433 -0.062805
C28   C     C_R   0.640821 0.445523 0.388164 0.051814
C29   C     C_R   0.666755 0.537896 0.351596 0.342739
C30   C     C_R   0.597354 0.641321 0.412477 -0.261682
C31   C     C_R   0.496997 0.341802 0.493046 0.632643
C32   C     C_R   0.683558 0.247894 0.360366 0.005591
C33   C     C_R   0.260032 0.001548 0.501623 0.852466
C34   C     C_3   0.983897 0.096529 0.483457 -0.206491
C35   C     C_3   0.069512 0.991324 0.400653 0.015838
C36   C     C_3   0.123838 0.003269 0.502448 -0.004292
C37   C     C_3   0.040177 0.109100 0.586579 -0.237170
C38   C     C_3   0.931658 0.014751 0.605186 0.023625
Cu1   Cu    Cu3+1 0.529830 0.098270 0.475420 1.023674
Cu2   Cu    Cu3+1 0.470170 0.901730 0.524580 0.971712
H1    H     H_    0.766862 0.503650 0.955344 0.178524
H2    H     H_    0.742524 0.171442 0.317939 0.178952
H3    H     H_    0.798932 0.340460 0.263582 0.221252
H4    H     H_    0.270653 0.844690 0.687796 0.121572
H5    H     H_    0.969386 0.173186 0.467111 0.172370
H6    H     H_    0.627627 0.712053 0.385038 0.198924
H7    H     H_    0.074674 0.195684 0.655087 0.155121
H8    H     H_    0.031129 0.832152 0.538834 0.161362
H9    H     H_    0.312905 0.111880 0.880240 0.149303
N1    N     N_R   0.575030 0.246270 0.438190 -0.222697
N2    N     N_R   0.425760 0.754330 0.561190 -0.206829
O1    O     O_R   0.537510 0.972500 0.318130 -0.508385
O2    O     O_R   0.487140 0.806530 0.359650 -0.610845
O3    O     O_R   0.708330 0.082950 0.479220 -0.602580
O4    O     O_R   0.657960 0.916980 0.520740 -0.570969
O5    O     O_R   0.512860 0.193470 0.640350 -0.605172
O6    O     O_R   0.462490 0.027500 0.681870 -0.557514
O7    O     O_R   0.342040 0.083020 0.479260 -0.548170
O8    O     O_R   0.291670 0.917050 0.520780 -0.599329
C39   C     C_2   0.141506 0.979346 0.284148 0.440222
H10   H     H_    0.087606 0.970552 0.220652 0.078802
O9    O     O_2   0.259658 0.979614 0.259976 -0.487613
C40   C     C_2   0.666840 0.352425 0.795112 0.425072
H11   H     H_    0.731329 0.279636 0.751288 0.064068
O10   O     O_2   0.690263 0.438468 0.770401 -0.468881
O11   O     O_3   0.750754 0.911998 0.156471 -0.730601
H12   H     H_    0.846156 0.910548 0.142737 0.339224
O12   O     O_3   0.889163 0.707191 0.976365 -0.677395
H13   H     H_    0.902897 0.784470 0.968565 0.323353
O13   O     O_3   0.292051 0.730077 0.228189 -0.717076
H14   H     H_    0.199684 0.701876 0.221601 0.335210
O14   O     O_3   0.756165 0.522476 0.252030 -0.727463
H15   H     H_    0.742036 0.579943 0.223801 0.344331
O15   O     O_3   0.372419 0.326209 0.547535 -0.747887
H16   H     H_    0.376840 0.288138 0.597258 0.350765
C41   C     C_2   0.388055 0.537423 0.734382 0.465525
H17   H     H_    0.302419 0.528529 0.795155 0.122261
O16   O     O_2   0.491183 0.510885 0.737389 -0.512915
O17   O     O_3   0.208047 0.702350 0.797231 -0.714394
H18   H     H_    0.161673 0.774034 0.817748 0.327908
C42   C     C_2   0.858753 0.029181 0.721947 0.347693
H19   H     H_    0.911215 0.034775 0.785083 0.073966
O18   O     O_2   0.741314 0.035094 0.746945 -0.535650
C43   C     C_2   0.924087 0.779508 0.327175 0.295955
H20   H     H_    0.935562 0.695306 0.328778 0.138979
O19   O     O_2   0.883677 0.777123 0.247675 -0.581342
O20   O     O_3   0.192158 0.491262 0.201282 -0.656756
H21   H     H_    0.179115 0.559939 0.279446 0.325822
O21   O     O_3   0.210317 0.266665 0.088073 -0.653856
H22   H     H_    0.182676 0.178221 0.052525 0.312605

loop_
_geom_bond_atom_site_label_1
_geom_bond_atom_site_label_2
_ccdc_geom_bond_type
O20   H21   S    
C40   O10   D    
C33   O7    A    
C34   C37   S    
C35   C36   S    
C42   H19   S    
C7    C8    A    
C11   C19   A    
C37   C38   S    
C36   C37   S    
C41   O16   D    
C22   O17   S    
Cu1   O3    S    
C15   C16   A    
C33   C36   S    
C39   O9    D    
C34   C35   S    
C1    O2    A    
O12   H13   S    
C43   H20   S    
C8    C9    A    
O13   H14   S    
C4    C12   S    
C9    C10   A    
C29   O14   S    
Cu1   O1    S    
C33   O8    A    
Cu2   O8    S    
C21   C22   A    
C42   O18   D    
C6    C18   A    
C4    C34   S    
C1    C19   S    
O15   H16   S    
C27   C31   A    
C23   O5    A    
C16   O13   S    
C24   C25   A    
Cu1   Cu2   S    
C24   C41   S    
C31   O15   S    
C5    C18   A    
C20   C28   A    
C2    H8    S    
C25   C26   A    
Cu1   O7    S    
C40   H11   S    
C39   H10   S    
C29   C30   A    
C21   H4    S    
C11   C16   A    
C2    C38   S    
Cu1   O5    S    
C3    C35   S    
Cu2   O4    S    
C34   H5    S    
C41   H17   S    
C32   N1    A    
C5    C14   A    
C4    C38   S    
C8    O12   S    
C7    C19   A    
C38   C42   S    
C22   C24   A    
C37   H7    S    
C31   N1    A    
C3    C4    S    
C21   N2    A    
C20   H3    S    
C15   O20   S    
C20   C32   A    
C2    C36   S    
C23   O6    A    
C6    C17   A    
C28   C29   A    
Cu2   O6    S    
C30   H6    S    
C43   O19   D    
O14   H15   S    
C10   C13   A    
C26   C30   A    
C25   C27   A    
Cu2   N2    S    
C9    H1    S    
C13   C17   A    
C2    C3    S    
C26   N2    A    
C17   C40   S    
C7    O11   S    
C6    C23   S    
O11   H12   S    
C1    O1    A    
C5    O21   S    
C12   O4    A    
C10   C11   A    
O17   H18   S    
Cu1   N1    S    
Cu2   O2    S    
C3    C43   S    
C32   H2    S    
C14   C15   A    
C35   C39   S    
O21   H22   S    
C13   C14   A    
C12   O3    A    
C18   H9    S    
C27   C28   A    
