data_str_m9_o11_o2_f0_sra.sym.148
_audit_creation_date              2012-12-11T14:29:28-0500
_audit_creation_method            fapswitch 2.2
_symmetry_space_group_name_H-M    P1
_symmetry_Int_Tables_number       1
_space_group_crystal_system       triclinic
_cell_length_a                    6.940269
_cell_length_b                    14.702903
_cell_length_c                    16.261207
_cell_angle_alpha                 90.564237
_cell_angle_beta                  90.15821
_cell_angle_gamma                 89.902381
_cell_volume                      1659.23862451

loop_
_atom_site_label
_atom_site_type_symbol
_atom_type_description
_atom_site_fract_x
_atom_site_fract_y
_atom_site_fract_z
_atom_type_partial_charge
O1    O     O_R   0.494400 0.416610 0.413880 -0.544171
O2    O     O_R   0.823920 0.406790 0.585520 -0.544890
O3    O     O_R   0.994250 0.583390 0.586120 -0.534849
C1    C     C_R   0.654904 0.383522 0.611886 0.746380
O4    O     O_R   0.824110 0.405730 0.414490 -0.542086
O5    O     O_R   0.994440 0.582310 0.413870 -0.537581
C2    C     C_R   0.654795 0.383417 0.386552 0.739641
O6    O     O_R   0.494210 0.417690 0.586130 -0.540330
O7    O     O_3   0.660810 0.557940 0.500000 -0.367924
V1    V     V_3+5 0.935650 0.489250 0.500000 1.406365
O8    O     O_R   0.324160 0.593210 0.414480 -0.546146
C3    C     C_R   0.155258 0.614965 0.386345 0.736767
O9    O     O_R   0.323970 0.594270 0.585510 -0.536071
C4    C     C_R   0.155102 0.616616 0.613531 0.701460
V2    V     V_3+5 0.435660 0.510750 0.500000 1.414851
O10   O     O_3   0.160630 0.442060 0.500000 -0.374358
H1    H     H_    0.209556 0.924208 0.506141 0.108184
C5    C     C_R   0.099059 0.560805 0.781776 -0.129895
C6    C     C_R   0.070764 0.531504 0.862072 -0.099402
C7    C     C_R   0.059241 0.594374 0.926287 -0.123268
C8    C     C_R   0.075493 0.687080 0.910721 -0.134209
C9    C     C_R   0.103051 0.718969 0.829803 0.067493
C10   C     C_R   0.115390 0.654512 0.763949 0.059634
C11   C     C_R   0.119310 0.813294 0.814002 -0.169794
C12   C     C_R   0.145800 0.843200 0.732089 0.051705
C13   C     C_R   0.158973 0.778814 0.666385 0.068532
C14   C     C_R   0.144703 0.684300 0.682220 -0.172615
C15   C     C_R   0.155964 0.937058 0.714114 -0.189927
C16   C     C_R   0.176898 0.968084 0.633405 0.139373
C17   C     C_R   0.191862 0.903775 0.569326 -0.121379
C18   C     C_R   0.183205 0.810904 0.585523 -0.173312
H2    H     H_    0.108188 0.509177 0.734039 0.110468
H3    H     H_    0.058050 0.459577 0.874538 0.144264
H4    H     H_    0.037786 0.571202 0.988575 0.119423
H5    H     H_    0.066205 0.733296 0.962769 0.097434
H6    H     H_    0.144737 0.987703 0.762696 0.099177
H7    H     H_    0.194004 0.764532 0.533629 0.103538
C19   C     C_2   0.985354 0.709511 0.282520 -0.130195
C20   C     C_2   0.150021 0.682730 0.319530 -0.314567
H8    H     H_    0.849408 0.681244 0.302999 0.137657
H9    H     H_    0.287539 0.710404 0.301079 0.128261
C21   C     C_2   0.973372 0.776977 0.214536 -0.137886
C22   C     C_2   0.126630 0.814557 0.177164 -0.311810
H10   H     H_    0.829449 0.795679 0.194399 0.135632
H11   H     H_    0.271721 0.796473 0.195430 0.130383
C23   C     C_2   0.769626 0.204843 0.777898 -0.172357
C24   C     C_2   0.614097 0.190182 0.826254 -0.190050
H12   H     H_    0.894877 0.161073 0.784442 0.137163
C25   C     C_2   0.788273 0.279650 0.717257 -0.141529
C26   C     C_2   0.639191 0.310033 0.672190 -0.303651
H13   H     H_    0.931575 0.306731 0.706847 0.153100
H14   H     H_    0.498658 0.278785 0.677777 0.141456
C27   C     C_2   0.779245 0.207789 0.214976 -0.130537
C28   C     C_2   0.614266 0.181711 0.177576 -0.308244
H15   H     H_    0.914855 0.178297 0.194729 0.136718
H16   H     H_    0.476993 0.210504 0.195678 0.127339
C29   C     C_2   0.791711 0.276314 0.282952 -0.135439
C30   C     C_2   0.638223 0.314777 0.320057 -0.305951
H17   H     H_    0.935640 0.295077 0.303223 0.133181
H18   H     H_    0.493118 0.296422 0.301944 0.127289
O11   O     O_R   0.770210 0.079270 0.910680 -0.538174
O12   O     O_R   0.440150 0.091160 0.082270 -0.545592
O13   O     O_R   0.269970 0.914530 0.082860 -0.543289
C31   C     C_R   0.608860 0.113181 0.110563 0.742245
O14   O     O_R   0.440480 0.090100 0.911240 -0.542093
O15   O     O_R   0.270310 0.913460 0.910610 -0.535354
C32   C     C_R   0.609003 0.113919 0.884963 0.702228
O16   O     O_R   0.769870 0.080340 0.082930 -0.538996
O17   O     O_3   0.603660 0.938980 0.996790 -0.369418
V3    V     V_3+5 0.328750 0.007610 0.996740 1.421893
O18   O     O_R   0.940600 0.902510 0.911180 -0.539023
C33   C     C_R   0.109366 0.880685 0.882845 0.697461
O19   O     O_R   0.940270 0.903570 0.082200 -0.542684
C34   C     C_R   0.109730 0.881893 0.110363 0.732079
V4    V     V_3+5 0.828770 0.986010 0.996670 1.423341
O20   O     O_3   0.103730 0.054750 0.996710 -0.370971
C35   C     C_1   0.452119 0.252703 0.828661 0.325025
N1    N     N_1   0.322574 0.302359 0.830915 -0.394874
C36   C     C_3   0.180656 0.070252 0.620020 -0.371064
C37   C     C_3   0.186795 0.100344 0.529789 -0.347177
C38   C     C_3   0.179007 0.203837 0.523155 -0.692785
H19   H     H_    0.044328 0.230685 0.551157 0.225120
H20   H     H_    0.305069 0.234971 0.554654 0.216545
H21   H     H_    0.181976 0.223462 0.457390 0.204535
H22   H     H_    0.322194 0.075829 0.500624 0.194745
H23   H     H_    0.061446 0.071432 0.495844 0.197567
H24   H     H_    0.049302 0.099908 0.648791 0.176034
H25   H     H_    0.307928 0.098832 0.652935 0.174227

loop_
_geom_bond_atom_site_label_1
_geom_bond_atom_site_label_2
_ccdc_geom_bond_type
O18   V4    S    
O19   C34   A    
C6    C7    A    
C1    O6    A    
C36   H24   S    
C38   H19   S    
C20   H9    S    
C27   C28   D    
O11   V4    S    
O16   V4    S    
C23   C25   S    
C13   C14   A    
C16   C17   A    
C31   O16   A    
C15   C16   A    
C19   C21   S    
O5    C3    A    
C17   C18   A    
C29   H17   S    
C30   H18   S    
O14   V3    S    
O12   V3    S    
C5    C6    A    
C37   H23   S    
O8    V2    S    
O15   C33   A    
O14   C32   A    
C26   H14   S    
O1    V2    S    
C10   C14   A    
C4    C14   S    
O7    V1    S    
C2    C30   S    
O12   C31   A    
C7    H4    S    
C22   C34   S    
C13   C18   A    
O9    C4    A    
H1    C17   S    
O19   V4    S    
C21   H10   S    
C24   C32   S    
C36   H25   S    
C38   H20   S    
C23   H12   S    
C27   H15   S    
C19   C20   D    
C28   H16   S    
C5    C10   A    
C11   C12   A    
C6    H3    S    
O4    C2    A    
C27   C29   S    
C25   H13   S    
C12   C13   A    
C35   N1    T    
C18   H7    S    
C1    C26   S    
C12   C15   A    
O2    C1    A    
V4    O20   S    
C37   H22   S    
O11   C32   A    
C16   C36   S    
O13   V3    S    
C22   H11   S    
O3    C4    A    
O6    V2    S    
O9    V2    S    
V3    O20   S    
C9    C11   A    
C5    H2    S    
C21   C22   D    
C24   C35   S    
O2    V1    S    
C38   H21   S    
C11   C33   S    
C23   C24   D    
O1    C2    A    
C37   C38   S    
O5    V1    S    
O8    C3    A    
C8    H5    S    
O13   C34   A    
C3    C20   S    
O7    V2    S    
O18   C33   A    
O3    V1    S    
V1    O10   S    
C19   H8    S    
C29   C30   D    
O15   V3    S    
C28   C31   S    
O17   V4    S    
O17   V3    S    
C36   C37   S    
O4    V1    S    
C7    C8    A    
C15   H6    S    
C25   C26   D    
C9    C10   A    
C8    C9    A    
V2    O10   S    
