data_str_m9_o2_o18_f0_sra.sym.9
_audit_creation_date              2012-12-11T16:27:35-0500
_audit_creation_method            fapswitch 2.2
_symmetry_space_group_name_H-M    P1
_symmetry_Int_Tables_number       1
_space_group_crystal_system       triclinic
_cell_length_a                    21.658313
_cell_length_b                    6.964194
_cell_length_c                    14.879382
_cell_angle_alpha                 90.026088
_cell_angle_beta                  106.328587
_cell_angle_gamma                 90.133783
_cell_volume                      2153.76652561

loop_
_atom_site_label
_atom_site_type_symbol
_atom_type_description
_atom_site_fract_x
_atom_site_fract_y
_atom_site_fract_z
_atom_type_partial_charge
O1    O     O_R   0.835850 0.638310 0.002120 -0.536259
O2    O     O_R   0.164150 0.361690 0.997880 -0.537770
O3    O     O_R   0.664150 0.138310 0.997880 -0.538057
O4    O     O_R   0.335850 0.861690 0.002120 -0.537445
O5    O     O_R   0.717530 0.306070 0.861970 -0.539872
O6    O     O_R   0.282470 0.693930 0.138030 -0.543501
O7    O     O_R   0.782470 0.806070 0.138030 -0.537275
O8    O     O_R   0.217530 0.193930 0.861970 -0.537918
C1    C     C_R   0.705394 0.477613 0.824655 0.678916
C2    C     C_R   0.294897 0.523407 0.175310 0.679857
C3    C     C_R   0.794697 0.977689 0.175014 0.685452
C4    C     C_R   0.205644 0.022045 0.824743 0.682302
O9    O     O_R   0.838690 0.308440 0.993250 -0.540788
O10   O     O_R   0.161310 0.691560 0.006750 -0.538926
O11   O     O_R   0.661310 0.808440 0.006750 -0.539506
O12   O     O_R   0.338690 0.191560 0.993250 -0.540675
O13   O     O_R   0.786170 0.140510 0.130090 -0.542419
O14   O     O_R   0.213830 0.859490 0.869910 -0.540415
O15   O     O_R   0.713830 0.640510 0.869910 -0.544704
O16   O     O_R   0.286170 0.359490 0.130090 -0.540679
C5    C     C_R   0.865395 0.477425 0.999156 0.693396
C6    C     C_R   0.134899 0.522583 0.002431 0.693606
C7    C     C_R   0.634517 0.976487 0.000470 0.694866
C8    C     C_R   0.365422 0.022287 0.999296 0.694652
O17   O     O_3   0.732630 0.472520 0.044740 -0.368445
O18   O     O_3   0.267370 0.527480 0.955260 -0.368170
O19   O     O_3   0.767370 0.972520 0.955260 -0.370079
O20   O     O_3   0.232630 0.027480 0.044740 -0.369910
V1    V     V_3+5 0.753220 0.196740 0.991700 1.418753
V2    V     V_3+5 0.246780 0.803260 0.008300 1.424037
V3    V     V_3+5 0.746780 0.696740 0.008300 1.426267
V4    V     V_3+5 0.253220 0.303260 0.991700 1.424301
H1    H     H_    0.618560 0.982286 0.322578 0.124791
H2    H     H_    0.380555 0.979220 0.677290 0.122820
H3    H     H_    0.884590 0.796847 0.714352 0.123661
H4    H     H_    0.115618 0.187369 0.283766 0.115598
C9    C     C_R   0.530558 0.951664 0.828321 -0.147559
C10   C     C_R   0.468215 0.978126 0.171513 -0.153896
C11   C     C_R   0.966910 0.312928 0.150305 -0.144859
C12   C     C_R   0.033439 0.680293 0.850396 -0.133949
C13   C     C_R   0.481882 0.954043 0.743762 -0.126244
C14   C     C_R   0.516815 0.976005 0.256160 -0.118343
C15   C     C_R   0.014527 0.233402 0.224084 -0.132003
C16   C     C_R   0.985649 0.749918 0.774212 -0.139522
C17   C     C_R   0.417994 0.977165 0.743174 -0.157977
C18   C     C_R   0.581118 0.983244 0.256679 -0.160866
C19   C     C_R   0.078771 0.247336 0.225676 -0.127850
C20   C     C_R   0.921509 0.742368 0.773931 -0.158775
C21   C     C_R   0.402257 0.997467 0.827241 -0.149373
C22   C     C_R   0.597301 0.985668 0.172481 -0.148982
C23   C     C_R   0.095898 0.339689 0.153153 -0.139619
C24   C     C_R   0.904522 0.659713 0.848816 -0.144693
C25   C     C_R   0.450486 0.995815 0.914004 0.069882
C26   C     C_R   0.549148 0.987759 0.085684 0.072726
C27   C     C_R   0.048614 0.418852 0.076286 0.071367
C28   C     C_R   0.951855 0.582809 0.926402 0.071306
C29   C     C_R   0.516119 0.976861 0.914462 0.059451
C30   C     C_R   0.483275 0.991564 0.085269 0.061822
C31   C     C_R   0.982672 0.405801 0.074924 0.070722
C32   C     C_R   0.017782 0.594873 0.927590 0.059482
C33   C     C_R   0.434095 0.008047 0.999525 -0.180160
C34   C     C_R   0.565706 0.983064 0.000166 -0.180154
C35   C     C_R   0.066216 0.513067 0.002531 -0.194345
C36   C     C_R   0.934229 0.488267 0.000041 -0.186770
H5    H     H_    0.579540 0.934322 0.825163 0.103946
H6    H     H_    0.418927 0.974986 0.174740 0.104676
H7    H     H_    0.917857 0.301938 0.153838 0.116735
H8    H     H_    0.082361 0.687892 0.846015 0.119923
H9    H     H_    0.493910 0.939140 0.678217 0.137587
H10   H     H_    0.504462 0.970406 0.321762 0.135352
H11   H     H_    0.001597 0.162760 0.281007 0.120200
H12   H     H_    0.998409 0.808303 0.714536 0.131208
H13   H     H_    0.352006 0.014147 0.823618 0.091652
H14   H     H_    0.647823 0.984654 0.176013 0.092062
H15   H     H_    0.146631 0.349328 0.158634 0.102792
H16   H     H_    0.853746 0.651550 0.843307 0.111752
C37   C     C_R   0.176960 0.007064 0.723455 -0.055898
C38   C     C_R   0.820931 0.991793 0.276388 -0.057868
C39   C     C_R   0.322727 0.515924 0.277090 -0.058056
C40   C     C_R   0.678256 0.487381 0.722771 -0.060691
C41   C     C_R   0.182027 0.878827 0.575142 -0.148873
C42   C     C_R   0.812493 0.121890 0.422351 -0.148297
C43   C     C_R   0.315067 0.431059 0.430409 -0.151901
C44   C     C_R   0.685651 0.422406 0.567331 -0.144611
C45   C     C_R   0.212736 0.932584 0.666903 -0.170410
C46   C     C_R   0.784184 0.075683 0.329123 -0.168740
C47   C     C_R   0.287718 0.437899 0.333921 -0.167770
C48   C     C_R   0.712747 0.415967 0.663845 -0.170807
C49   C     C_R   0.110804 0.035462 0.686517 -0.185853
C50   C     C_R   0.885555 0.947276 0.318191 -0.184228
C51   C     C_R   0.385683 0.581408 0.317331 -0.197357
C52   C     C_R   0.616225 0.560731 0.684216 -0.194998
C53   C     C_R   0.078809 0.994628 0.591475 0.087234
C54   C     C_R   0.914824 0.984664 0.414367 0.079138
C55   C     C_R   0.418517 0.539057 0.411576 0.087813
C56   C     C_R   0.583087 0.529406 0.588971 0.086534
C57   C     C_R   0.115229 0.901561 0.538562 0.093692
C58   C     C_R   0.877900 0.084685 0.463854 0.078470
C59   C     C_R   0.379991 0.481633 0.469407 0.089073
C60   C     C_R   0.621198 0.477898 0.529721 0.091660
C61   C     C_R   0.011459 0.029022 0.549225 -0.064975
C62   C     C_R   0.980824 0.941920 0.460148 -0.040307
C63   C     C_R   0.487425 0.541593 0.449931 -0.044578
C64   C     C_R   0.514211 0.536478 0.550774 -0.046010
C65   C     C_R   0.017364 0.814983 0.420057 0.278263
C66   C     C_R   0.973552 0.148136 0.591235 0.271233
C67   C     C_R   0.470639 0.517889 0.607648 0.288975
C68   C     C_R   0.530873 0.528442 0.392650 0.290025
C69   C     C_R   0.084216 0.813294 0.454043 -0.268953
C70   C     C_R   0.907323 0.163079 0.550955 -0.255856
C71   C     C_R   0.405859 0.477467 0.565656 -0.267440
C72   C     C_R   0.595371 0.483840 0.433525 -0.267226
H17   H     H_    0.111701 0.725402 0.418984 0.126409
H18   H     H_    0.879242 0.251855 0.584647 0.137963
H19   H     H_    0.374714 0.447395 0.609769 0.130140
H20   H     H_    0.626308 0.457884 0.388697 0.129062
H21   H     H_    0.913149 0.900574 0.272144 0.147968
H22   H     H_    0.085074 0.069661 0.736494 0.157865
H23   H     H_    0.595041 0.640204 0.729877 0.164439
H24   H     H_    0.407662 0.664380 0.273660 0.164839
H25   H     H_    0.734590 0.115114 0.296921 0.102443
H26   H     H_    0.263595 0.904359 0.695455 0.100856
H27   H     H_    0.761287 0.362610 0.692338 0.104176
H28   H     H_    0.238654 0.389554 0.304140 0.100404
H29   H     H_    0.210034 0.809905 0.534320 0.115051
H30   H     H_    0.784035 0.195896 0.460699 0.104621
H31   H     H_    0.286031 0.381124 0.474390 0.114696
H32   H     H_    0.714337 0.378378 0.522047 0.103532
N1    N     N_2   0.987526 0.673893 0.352158 -0.536064
H33   H     H_    0.015295 0.627728 0.310284 0.264859
C73   C     C_3   0.958288 0.516258 0.388912 -0.515568
H34   H     H_    0.931197 0.423269 0.330436 0.196095
H35   H     H_    0.923900 0.570059 0.426093 0.210046
H36   H     H_    0.996017 0.429002 0.437845 0.192764
N2    N     N_2   0.001898 0.271251 0.667975 -0.535806
H37   H     H_    0.009950 0.409431 0.648990 0.266654
C74   C     C_3   0.975897 0.259398 0.747467 -0.560804
H38   H     H_    0.015013 0.284014 0.812704 0.214255
H39   H     H_    0.954864 0.116689 0.752554 0.208334
H40   H     H_    0.937283 0.366643 0.740529 0.208931
N3    N     N_2   0.488860 0.543795 0.706675 -0.541017
H41   H     H_    0.452774 0.601406 0.730948 0.274904
C75   C     C_3   0.517394 0.383268 0.764304 -0.543511
H42   H     H_    0.555840 0.435695 0.825708 0.195844
H43   H     H_    0.538897 0.280141 0.724854 0.211404
H44   H     H_    0.480527 0.314649 0.792188 0.218480
N4    N     N_2   0.512755 0.563390 0.294361 -0.538901
H45   H     H_    0.549261 0.622597 0.271529 0.276323
C76   C     C_3   0.483732 0.407593 0.233321 -0.548569
H46   H     H_    0.447658 0.465996 0.170897 0.199139
H47   H     H_    0.458990 0.305936 0.269125 0.210970
H48   H     H_    0.521166 0.335409 0.207946 0.217194

loop_
_geom_bond_atom_site_label_1
_geom_bond_atom_site_label_2
_ccdc_geom_bond_type
O17   V3    S    
C75   H44   S    
C43   C47   A    
O1    C5    A    
C61   C62   A    
C12   C32   A    
C27   C31   A    
O19   V1    S    
O13   V1    S    
O3    C7    A    
N4    H45   S    
C52   C56   A    
C73   H36   S    
O15   V3    S    
C39   C47   A    
N2    H37   S    
C38   C50   A    
O7    C3    A    
C74   H39   S    
C37   C49   A    
C31   C36   A    
C8    C33   S    
C62   C65   A    
C32   C35   A    
C58   C70   A    
O9    V1    S    
N4    C76   S    
C52   H23   S    
C23   H15   S    
C10   C14   A    
C76   H47   S    
C26   C30   A    
C47   H28   S    
O4    C8    A    
C55   C59   A    
C54   C58   A    
C75   H42   S    
C75   H43   S    
O1    V3    S    
H4    C19   S    
O2    V4    S    
C14   C18   A    
O3    V1    S    
C42   H30   S    
C5    C36   S    
C6    C35   S    
C10   C30   A    
C25   C33   A    
C1    O15   A    
C7    C34   S    
C10   H6    S    
C2    O16   A    
C27   C35   A    
O2    C6    A    
C28   C36   A    
C63   C68   A    
O14   V2    S    
C67   N3    S    
C70   H18   S    
C12   C16   A    
C39   C51   A    
C69   H17   S    
C68   N4    S    
C38   C46   A    
C30   C33   A    
O11   C7    A    
C11   C31   A    
O12   C8    A    
C43   C59   A    
C9    C13   A    
H1    C18   S    
C42   C58   A    
C67   C71   A    
C44   H32   S    
O10   V2    S    
C48   H27   S    
H3    C20   S    
C55   C63   A    
C50   C54   A    
O5    V1    S    
O17   V1    S    
C74   H40   S    
O7    V3    S    
O19   V3    S    
O8    V4    S    
C50   H21   S    
O20   V4    S    
C76   H48   S    
C53   C61   A    
C25   C29   A    
O18   V4    S    
C19   C23   A    
C26   C34   A    
C29   C34   A    
C42   C46   A    
C51   C55   A    
O4    V2    S    
C68   C72   A    
C9    H5    S    
C1    C40   S    
C44   C60   A    
C40   C52   A    
C14   H10   S    
O5    C1    A    
C3    C38   S    
C57   C69   A    
C17   C21   A    
O8    C4    A    
C59   C71   A    
C4    C37   S    
C46   H25   S    
O9    C5    A    
C45   H26   S    
H2    C17   S    
C22   C26   A    
C22   H14   S    
C54   C62   A    
C66   N2    S    
O6    V2    S    
C60   C72   A    
C56   C64   A    
C24   H16   S    
C21   H13   S    
C73   H34   S    
C53   C57   A    
C72   H20   S    
C13   H9    S    
N1    H33   S    
O16   V4    S    
C61   C66   A    
N2    C74   S    
C65   C69   A    
C3    O13   A    
C15   H11   S    
C41   H29   S    
C11   H7    S    
C44   C48   A    
C43   H31   S    
C73   H35   S    
O6    C2    A    
C65   N1    S    
C2    C39   S    
O11   V3    S    
O12   V4    S    
C74   H38   S    
C18   C22   A    
O10   C6    A    
N3    C75   S    
C40   C48   A    
C16   C20   A    
N3    H41   S    
C41   C57   A    
C21   C25   A    
C56   C60   A    
O20   V2    S    
C16   H12   S    
C23   C27   A    
C49   C53   A    
C9    C29   A    
C37   C45   A    
C28   C32   A    
C20   C24   A    
C49   H22   S    
C11   C15   A    
C66   C70   A    
C12   H8    S    
C4    O14   A    
C63   C64   A    
C13   C17   A    
C51   H24   S    
C71   H19   S    
C76   H46   S    
C15   C19   A    
C64   C67   A    
C41   C45   A    
C24   C28   A    
N1    C73   S    
O18   V2    S    
