data_str_m4_o1_o4_f0_acs.sym.74
_audit_creation_date              2013-03-05T15:45:59-0500
_audit_creation_method            fapswitch 2.2
_symmetry_space_group_name_H-M    P1
_symmetry_Int_Tables_number       1
_space_group_crystal_system       triclinic
_cell_length_a                    18.957705
_cell_length_b                    10.963342
_cell_length_c                    18.831739
_cell_angle_alpha                 90.033947
_cell_angle_beta                  90.001027
_cell_angle_gamma                 90.051882
_cell_volume                      3913.98264009

loop_
_atom_site_label
_atom_site_type_symbol
_atom_site_description
_atom_site_fract_x
_atom_site_fract_y
_atom_site_fract_z
_atom_type_partial_charge
O1    O     O_R   0.787510 0.042610 0.670410 -0.480876
O2    O     O_R   0.212490 0.042610 0.329590 -0.470141
O3    O     O_R   0.287510 0.542610 0.670410 -0.507009
O4    O     O_R   0.712490 0.542610 0.329590 -0.470252
O5    O     O_R   0.765670 0.292090 0.675090 -0.481987
O6    O     O_R   0.234330 0.292090 0.324910 -0.447545
O7    O     O_R   0.265670 0.792090 0.675090 -0.465507
O8    O     O_R   0.734330 0.792090 0.324910 -0.446778
C1    C     C_R   0.728381 0.372744 0.643953 0.589712
C2    C     C_R   0.268474 0.377774 0.353620 0.556861
C3    C     C_R   0.227974 0.871639 0.643500 0.603221
C4    C     C_R   0.768179 0.879476 0.352766 0.546442
O9    O     O_R   0.670220 0.409020 0.668560 -0.489800
O10   O     O_R   0.329780 0.409020 0.331440 -0.513377
O11   O     O_R   0.170220 0.909020 0.668560 -0.479596
O12   O     O_R   0.829780 0.909020 0.331440 -0.517850
O13   O     O_R   0.556580 0.251590 0.674980 -0.521126
O14   O     O_R   0.443420 0.251590 0.325020 -0.503744
O15   O     O_R   0.056580 0.751590 0.674980 -0.508557
O16   O     O_R   0.943420 0.751590 0.325020 -0.501944
C5    C     C_R   0.533266 0.154473 0.645851 0.555573
C6    C     C_R   0.468118 0.156374 0.353182 0.551833
C7    C     C_R   0.036515 0.654488 0.643984 0.565182
C8    C     C_R   0.968094 0.656296 0.353319 0.551324
O17   O     O_R   0.545890 0.049670 0.670030 -0.463026
O18   O     O_R   0.454110 0.049670 0.329970 -0.449641
O19   O     O_R   0.045890 0.549670 0.670030 -0.454411
O20   O     O_R   0.954110 0.549670 0.329970 -0.449963
O21   O     O_R   0.681340 0.957860 0.676500 -0.446188
O22   O     O_R   0.318660 0.957860 0.323500 -0.452560
O23   O     O_R   0.181340 0.457860 0.676500 -0.461523
O24   O     O_R   0.818660 0.457860 0.323500 -0.455241
C9    C     C_R   0.729513 0.011413 0.639533 0.540131
C10   C     C_R   0.258471 0.965403 0.351566 0.559672
C11   C     C_R   0.240594 0.472373 0.645884 0.574902
C12   C     C_R   0.758830 0.466197 0.351894 0.557924
O25   O     O_R   0.787380 0.044010 0.830940 -0.440963
O26   O     O_R   0.212620 0.044010 0.169060 -0.449800
O27   O     O_R   0.287380 0.544010 0.830940 -0.456074
O28   O     O_R   0.712620 0.544010 0.169060 -0.450116
O29   O     O_R   0.765540 0.293390 0.823910 -0.489302
O30   O     O_R   0.234460 0.293390 0.176090 -0.495852
O31   O     O_R   0.265540 0.793390 0.823910 -0.483077
O32   O     O_R   0.734460 0.793390 0.176090 -0.497612
C13   C     C_R   0.727775 0.374097 0.854449 0.558829
C14   C     C_R   0.271873 0.374968 0.145809 0.544183
C15   C     C_R   0.211590 0.832531 0.859919 0.545836
C16   C     C_R   0.771852 0.874981 0.145812 0.543793
O33   O     O_R   0.670090 0.410410 0.829090 -0.508691
O34   O     O_R   0.329910 0.410410 0.170910 -0.518078
O35   O     O_R   0.170090 0.910410 0.829090 -0.484837
O36   O     O_R   0.829910 0.910410 0.170910 -0.516798
O37   O     O_R   0.556450 0.252890 0.823790 -0.486967
O38   O     O_R   0.443550 0.252890 0.176210 -0.490577
O39   O     O_R   0.056450 0.752890 0.823790 -0.503280
O40   O     O_R   0.943550 0.752890 0.176210 -0.486779
C17   C     C_R   0.535878 0.156201 0.855464 0.571839
C18   C     C_R   0.468221 0.157013 0.147012 0.557503
C19   C     C_R   0.035183 0.656141 0.855149 0.560016
C20   C     C_R   0.968133 0.657010 0.146958 0.557174
O41   O     O_R   0.545750 0.051070 0.830560 -0.513120
O42   O     O_R   0.454250 0.051070 0.169440 -0.523721
O43   O     O_R   0.045750 0.551070 0.830560 -0.513501
O44   O     O_R   0.954250 0.551070 0.169440 -0.525116
O45   O     O_R   0.681210 0.959150 0.825320 -0.515226
O46   O     O_R   0.318790 0.959150 0.174680 -0.517200
O47   O     O_R   0.181210 0.459150 0.825320 -0.517507
O48   O     O_R   0.818790 0.459150 0.174680 -0.520545
C21   C     C_R   0.742045 0.968483 0.853382 0.579744
C22   C     C_R   0.257213 0.967158 0.147016 0.556305
C23   C     C_R   0.242030 0.468493 0.853391 0.567345
C24   C     C_R   0.758051 0.468506 0.146624 0.563555
Cr1   Cr    Cr6+3 0.771950 0.169480 0.750100 1.131236
Cr2   Cr    Cr6+3 0.228050 0.169480 0.249900 1.146535
Cr3   Cr    Cr6+3 0.271950 0.669480 0.750100 1.127073
Cr4   Cr    Cr6+3 0.728050 0.669480 0.249900 1.139956
Cr5   Cr    Cr6+3 0.614930 0.323340 0.749170 1.083388
Cr6   Cr    Cr6+3 0.385070 0.323340 0.250830 1.081109
Cr7   Cr    Cr6+3 0.114930 0.823340 0.749170 1.096368
Cr8   Cr    Cr6+3 0.885070 0.823340 0.250830 1.083778
Cr9   Cr    Cr6+3 0.616590 0.010620 0.750610 1.115264
Cr10  Cr    Cr6+3 0.383410 0.010620 0.249390 1.116751
Cr11  Cr    Cr6+3 0.116590 0.510620 0.750610 1.111427
Cr12  Cr    Cr6+3 0.883410 0.510620 0.249390 1.113315
O49   O     O_3   0.667820 0.167810 0.749960 -0.325940
O50   O     O_3   0.332180 0.167810 0.250040 -0.295364
O51   O     O_3   0.167820 0.667810 0.749960 -0.332881
O52   O     O_3   0.832180 0.667810 0.250040 -0.296830
C25   C     C_R   0.494864 0.170041 0.424552 0.006501
C26   C     C_R   0.512569 0.156656 0.572095 0.042208
C27   C     C_R   0.002628 0.672122 0.421529 0.015893
C28   C     C_R   0.023558 0.661419 0.568380 0.035301
C29   C     C_R   0.459551 0.250601 0.470321 0.015568
C30   C     C_R   0.467443 0.243472 0.543279 0.013506
C31   C     C_R   0.983856 0.770347 0.465495 0.011640
C32   C     C_R   0.995124 0.765824 0.537892 -0.009453
C33   C     C_R   0.545502 0.072245 0.526483 -0.088174
C34   C     C_R   0.537211 0.079286 0.453470 -0.104488
C35   C     C_R   0.054686 0.574009 0.523336 -0.095024
C36   C     C_R   0.044895 0.580128 0.449976 -0.104972
C37   C     C_3   0.461770 0.386919 0.472440 -0.238863
C38   C     C_3   0.465871 0.378292 0.552734 -0.249129
C39   C     C_3   0.914695 0.833560 0.474882 -0.229311
C40   C     C_3   0.927370 0.828691 0.554324 -0.248113
H1    H     H_    0.580174 0.003502 0.547273 0.169341
H2    H     H_    0.562561 0.012795 0.419700 0.191621
H3    H     H_    0.084256 0.498791 0.544999 0.177735
H4    H     H_    0.064171 0.507415 0.416706 0.202173
H5    H     H_    0.869195 0.776700 0.457660 0.148876
H6    H     H_    0.935845 0.920140 0.578405 0.190156
H7    H     H_    0.412275 0.428046 0.453051 0.184403
H8    H     H_    0.514804 0.416729 0.575710 0.172535
H9    H     H_    0.510386 0.424729 0.447846 0.163149
H10   H     H_    0.416734 0.408636 0.579616 0.177935
H11   H     H_    0.916076 0.927785 0.453266 0.190149
H12   H     H_    0.889273 0.769213 0.582980 0.179779
C41   C     C_R   0.696703 0.875628 0.536736 0.166209
C42   C     C_R   0.310206 0.871049 0.461394 0.164582
C43   C     C_R   0.201507 0.352895 0.539508 0.168502
C44   C     C_R   0.812204 0.378305 0.462896 0.158736
C45   C     C_R   0.695446 0.859092 0.462890 0.164473
C46   C     C_R   0.305523 0.871974 0.536004 0.160688
C47   C     C_R   0.197260 0.346429 0.464828 0.167634
C48   C     C_R   0.806971 0.379107 0.537459 0.155570
C49   C     C_R   0.742460 0.928049 0.420268 -0.043148
C50   C     C_R   0.239403 0.891965 0.567912 -0.009949
C51   C     C_R   0.244248 0.418799 0.423432 -0.034033
C52   C     C_R   0.740354 0.394989 0.568742 -0.006279
C53   C     C_R   0.777961 0.027817 0.449238 -0.191928
C54   C     C_R   0.178922 0.906019 0.525472 -0.130669
C55   C     C_R   0.282387 0.512067 0.455305 -0.203110
C56   C     C_R   0.680135 0.406339 0.525851 -0.133064
H13   H     H_    0.812508 0.083108 0.416985 0.209218
H14   H     H_    0.126765 0.913521 0.548540 0.185044
H15   H     H_    0.315836 0.571393 0.424282 0.207437
H16   H     H_    0.628047 0.410904 0.548513 0.160728
C57   C     C_R   0.773599 0.051676 0.520933 -0.198770
C58   C     C_R   0.184172 0.911507 0.452640 -0.139846
C59   C     C_R   0.283643 0.522498 0.527890 -0.205426
C60   C     C_R   0.685554 0.412102 0.453176 -0.141013
H17   H     H_    0.801822 0.128980 0.542186 0.185312
H18   H     H_    0.137122 0.929390 0.421666 0.190601
H19   H     H_    0.314563 0.595704 0.550346 0.203624
H20   H     H_    0.638458 0.428102 0.421968 0.172906
C61   C     C_R   0.735271 0.974639 0.565469 -0.044353
C62   C     C_R   0.250036 0.905439 0.420589 -0.028656
C63   C     C_R   0.245720 0.441200 0.570838 -0.033941
C64   C     C_R   0.751518 0.408459 0.421523 -0.025973
C65   C     C_R   0.521937 0.052898 0.969538 -0.133748
C66   C     C_R   0.515128 0.055357 0.042021 -0.136968
C67   C     C_R   0.021536 0.552710 0.969331 -0.137719
C68   C     C_R   0.015023 0.555530 0.041867 -0.140612
H21   H     H_    0.532593 0.965568 0.944919 0.151414
H22   H     H_    0.518776 0.969694 0.070474 0.150784
H23   H     H_    0.033193 0.465606 0.944930 0.150450
H24   H     H_    0.019731 0.470283 0.070583 0.150082
C69   C     C_R   0.497872 0.164532 0.076264 0.037194
C70   C     C_R   0.517078 0.161123 0.930044 0.022502
C71   C     C_R   0.997109 0.664532 0.075948 0.035396
C72   C     C_R   0.015342 0.660447 0.929530 0.019079
C73   C     C_R   0.494530 0.273521 0.037574 -0.083836
C74   C     C_R   0.506740 0.272271 0.964867 -0.107291
C75   C     C_R   0.991998 0.772891 0.036897 -0.094040
C76   C     C_R   0.002880 0.771043 0.964008 -0.120644
H25   H     H_    0.480589 0.358474 0.063068 0.200166
H26   H     H_    0.508042 0.357236 0.936009 0.210826
H27   H     H_    0.977697 0.857793 0.062245 0.198388
H28   H     H_    0.002516 0.855462 0.934801 0.211830
C77   C     C_R   0.817986 0.941490 0.958472 0.196887
C78   C     C_R   0.173727 0.919523 0.048054 0.208487
C79   C     C_R   0.318143 0.439875 0.958272 0.194786
C80   C     C_R   0.681227 0.432718 0.042881 0.199923
C81   C     C_R   0.819398 0.940217 0.031658 -0.117627
C82   C     C_R   0.166548 0.898343 0.975776 -0.116452
C83   C     C_R   0.319789 0.438391 0.031456 -0.120320
C84   C     C_R   0.678434 0.428832 0.969724 -0.115452
H29   H     H_    0.868562 0.963819 0.057425 0.175065
H30   H     H_    0.116957 0.919049 0.950356 0.161673
H31   H     H_    0.369289 0.460396 0.057062 0.173758
H32   H     H_    0.627892 0.444822 0.944678 0.173111
C85   C     C_R   0.760697 0.901124 0.071028 -0.015031
C86   C     C_R   0.222437 0.851982 0.935931 -0.026998
C87   C     C_R   0.260825 0.400972 0.071005 -0.015454
C88   C     C_R   0.738207 0.398112 0.929470 -0.016807
C89   C     C_R   0.699223 0.864456 0.036020 -0.141355
C90   C     C_R   0.286025 0.821647 0.969703 -0.133520
C91   C     C_R   0.198972 0.365814 0.036194 -0.140873
C92   C     C_R   0.801490 0.369212 0.963391 -0.135160
H33   H     H_    0.654288 0.829888 0.065327 0.163687
H34   H     H_    0.329479 0.782215 0.940288 0.185932
H35   H     H_    0.153825 0.332457 0.065647 0.163604
H36   H     H_    0.847340 0.340919 0.933273 0.171448
C93   C     C_R   0.695452 0.873776 0.962521 -0.166606
C94   C     C_R   0.295534 0.849533 0.041236 -0.166259
C95   C     C_R   0.195115 0.375067 0.962707 -0.162728
C96   C     C_R   0.806031 0.379378 0.036746 -0.162565
H37   H     H_    0.645945 0.852742 0.936594 0.152919
H38   H     H_    0.346972 0.835000 0.064787 0.160480
H39   H     H_    0.145409 0.355034 0.936920 0.154438
H40   H     H_    0.856902 0.365400 0.061636 0.162547
C97   C     C_R   0.753750 0.916987 0.923614 0.017009
C98   C     C_R   0.240750 0.904079 0.080178 0.010369
C99   C     C_R   0.253627 0.416921 0.923617 0.020693
C100  C     C_R   0.746807 0.416076 0.076587 0.013619
N1    N     N_R   0.881518 0.971041 0.920423 0.068783
O53   O     O_R   0.924969 0.052690 0.945151 -0.346436
O54   O     O_R   0.897867 0.911963 0.862703 -0.330733
N2    N     N_R   0.113226 0.960479 0.087282 0.077139
O55   O     O_R   0.070780 0.041146 0.060067 -0.341558
O56   O     O_R   0.096689 0.908659 0.147199 -0.337111
N3    N     N_R   0.381815 0.467635 0.920041 0.068902
O57   O     O_R   0.425758 0.548880 0.944324 -0.354276
O58   O     O_R   0.397962 0.406848 0.862885 -0.328126
N4    N     N_R   0.617723 0.457791 0.081925 0.074680
O59   O     O_R   0.572739 0.537820 0.058446 -0.347059
O60   O     O_R   0.603168 0.396824 0.139405 -0.343198
N5    N     N_R   0.660782 0.790310 0.581950 0.116011
O61   O     O_R   0.696973 0.720315 0.624152 -0.297243
O62   O     O_R   0.592500 0.778943 0.579294 -0.240271
N6    N     N_R   0.375553 0.837770 0.427659 0.113673
O63   O     O_R   0.375951 0.758033 0.376433 -0.334796
O64   O     O_R   0.435193 0.881760 0.450050 -0.241519
N7    N     N_R   0.160907 0.271667 0.583299 0.107893
O65   O     O_R   0.192267 0.205218 0.631014 -0.304858
O66   O     O_R   0.092373 0.270487 0.579392 -0.235522
N8    N     N_R   0.878545 0.348882 0.429964 0.116265
O67   O     O_R   0.881386 0.266968 0.379990 -0.327362
O68   O     O_R   0.937060 0.394616 0.454063 -0.251224
N9    N     N_R   0.647704 0.771933 0.431930 0.117562
O69   O     O_R   0.606019 0.804472 0.380430 -0.305193
O70   O     O_R   0.641174 0.663411 0.458697 -0.287272
N10   N     N_R   0.367441 0.855744 0.579087 0.111108
O71   O     O_R   0.383569 0.936421 0.627140 -0.294336
O72   O     O_R   0.406698 0.759206 0.572063 -0.270016
N11   N     N_R   0.146357 0.267011 0.431710 0.117031
O73   O     O_R   0.107817 0.306089 0.379294 -0.309684
O74   O     O_R   0.133963 0.159103 0.457167 -0.281594
N12   N     N_R   0.868521 0.363594 0.581121 0.110701
O75   O     O_R   0.883488 0.443753 0.629841 -0.303431
O76   O     O_R   0.907647 0.266692 0.574950 -0.260164

loop_
_geom_bond_atom_site_label_1
_geom_bond_atom_site_label_2
_geom_bond_distance
_ccdc_geom_bond_type
C18   O42   1.263973 A    
Cr11  O51   1.977432 S    
C17   C70   1.449998 S    
O4    C12   1.285203 A    
O47   Cr11  1.949542 S    
C29   C30   1.384299 A    
C66   C69   1.398319 A    
O39   C19   1.279190 A    
O20   Cr12  2.068943 S    
C37   H9    1.111456 S    
C38   H8    1.106529 S    
C31   C32   1.380919 A    
C20   C71   1.448036 S    
C28   C32   1.390059 A    
C96   H40   1.083323 S    
C60   C64   1.385932 A    
O26   C22   1.264037 A    
C33   C34   1.386109 A    
O1    C9    1.289579 A    
O11   Cr7   2.070120 S    
O46   C22   1.281426 A    
N1    O53   1.301857 A    
O5    C1    1.275595 A    
C59   C63   1.401830 A    
O39   Cr7   1.949382 S    
C37   C38   1.517069 S    
C4    O12   1.276505 A    
C93   H37   1.082541 S    
C73   H25   1.080610 S    
C72   C76   1.395395 A    
C57   C61   1.394423 A    
C81   C85   1.404034 A    
C23   C99   1.455359 S    
O25   C21   1.265713 A    
O40   Cr8   1.949522 S    
C86   C90   1.403285 A    
C16   C85   1.452861 S    
C5    C26   1.443524 S    
N4    O60   1.301978 A    
O47   C23   1.272424 A    
C95   C99   1.407968 A    
C50   C54   1.406264 A    
C43   C63   1.409153 A    
C94   C98   1.405217 A    
O21   C9    1.289539 A    
O8    Cr4   1.952918 S    
O23   Cr11  1.946666 S    
C41   C61   1.415454 A    
O30   C14   1.275768 A    
C80   C100  1.407972 A    
C65   H21   1.082704 S    
O44   Cr12  2.065628 S    
C92   C96   1.388482 A    
C1    O9    1.260644 A    
C45   C49   1.417625 A    
C74   H26   1.078973 S    
C3    O11   1.260962 A    
C12   C64   1.462906 S    
C15   O35   1.298768 A    
C48   N12   1.437721 S    
C68   H24   1.083796 S    
O28   Cr4   2.071740 S    
N2    O55   1.301581 A    
N11   O73   1.301057 A    
C41   N5    1.436469 S    
O6    Cr2   1.952918 S    
O27   Cr3   2.073291 S    
C27   C36   1.395830 A    
C96   C100  1.409193 A    
O3    Cr3   2.066895 S    
C65   C70   1.403800 A    
Cr4   O52   1.974171 S    
C26   C33   1.408602 A    
C91   H35   1.083325 S    
O2    Cr2   2.067733 S    
O8    C4    1.266135 A    
C24   C100  1.454054 S    
C33   H1    1.074509 S    
C46   C50   1.407365 A    
O2    C10   1.284270 A    
O24   C12   1.257340 A    
O42   Cr10  2.065628 S    
C67   C68   1.371873 A    
Cr5   O49   1.978929 S    
O18   Cr10  2.068943 S    
C66   H22   1.083790 S    
C40   H12   1.112477 S    
C82   H30   1.079373 S    
C25   C29   1.404030 A    
N11   O74   1.297982 A    
C82   C86   1.394453 A    
C54   H14   1.083182 S    
C59   H19   1.079502 S    
C15   C86   1.461619 S    
C80   N4    1.437326 S    
O34   Cr6   2.067196 S    
N6    O64   1.299037 A    
N6    O63   1.301493 A    
N9    O69   1.301242 A    
C31   C39   1.494019 S    
C20   O44   1.263935 A    
O7    C3    1.275513 A    
C95   H39   1.082364 S    
C7    O19   1.262444 A    
N1    O54   1.302552 A    
O31   Cr3   1.946865 S    
C21   C97   1.455451 S    
O24   Cr12  1.946498 S    
N12   O76   1.301385 A    
C36   H4    1.077732 S    
C1    C52   1.455121 S    
C45   N9    1.438721 S    
O22   C10   1.260277 A    
O48   Cr12  1.948415 S    
C68   C71   1.398279 A    
C42   C62   1.426493 A    
C3    C50   1.457092 S    
N7    O65   1.301193 A    
C2    O10   1.281422 A    
C29   C37   1.495563 S    
O16   Cr8   1.948639 S    
N4    O59   1.301670 A    
O7    Cr3   1.954219 S    
C4    C49   1.461815 S    
C49   C53   1.394600 A    
N5    O61   1.301098 A    
Cr10  O50   1.978952 S    
C77   C97   1.408977 A    
C22   C98   1.469178 S    
O13   C5    1.276057 A    
O40   C20   1.275078 A    
C44   C48   1.407677 A    
O48   C24   1.271140 A    
O12   Cr8   2.070162 S    
Cr9   O49   1.977432 S    
Cr12  O52   1.978952 S    
C14   C87   1.452618 S    
O22   Cr10  1.946498 S    
O15   C7    1.271699 A    
C42   C46   1.407880 A    
C78   N2    1.436450 S    
C39   H11   1.110847 S    
C38   H10   1.111337 S    
C87   C91   1.397191 A    
O46   Cr10  1.948415 S    
C79   N3    1.437933 S    
C19   C72   1.451120 S    
C84   H32   1.082437 S    
O45   Cr9   1.949542 S    
N3    O57   1.301777 A    
O3    C11   1.263192 A    
C75   H27   1.080609 S    
C56   H16   1.076941 S    
C84   C88   1.404461 A    
O13   Cr5   1.947163 S    
C13   O33   1.258358 A    
C57   H17   1.078662 S    
C11   C63   1.457048 S    
O29   C13   1.275455 A    
Cr2   O50   1.974171 S    
O15   Cr7   1.947163 S    
Cr1   O49   1.974136 S    
Cr7   O51   1.978929 S    
O30   Cr2   1.947861 S    
C9    C61   1.455749 S    
C89   H33   1.083317 S    
C47   N11   1.440877 S    
C76   H28   1.076918 S    
Cr3   O51   1.974136 S    
O14   Cr6   1.948639 S    
N3    O58   1.302256 A    
O21   Cr9   1.946666 S    
C44   C64   1.428589 A    
N8    O68   1.298721 A    
C32   C40   1.490642 S    
O9    Cr5   2.070120 S    
C42   N6    1.439430 S    
O37   Cr5   1.949382 S    
N9    O70   1.298229 A    
O4    Cr4   2.067733 S    
C71   C75   1.400981 A    
C79   C99   1.408675 A    
N5    O62   1.301313 A    
C41   C45   1.402519 A    
C2    C51   1.463322 S    
C54   C58   1.376506 A    
C8    C27   1.451966 S    
C69   C73   1.401343 A    
C47   C51   1.424847 A    
C35   H3    1.077924 S    
C40   H6    1.111666 S    
C8    O20   1.276298 A    
C83   C87   1.404313 A    
O38   C18   1.275211 A    
O25   Cr1   2.073291 S    
C43   N7    1.437072 S    
C5    O17   1.259320 A    
N12   O75   1.301221 A    
C52   C56   1.404111 A    
C85   C89   1.397569 A    
C53   H13   1.079373 S    
O28   C24   1.267443 A    
C91   C95   1.389596 A    
N10   O72   1.301066 A    
O14   C6    1.261635 A    
C19   O43   1.257491 A    
C90   C94   1.392851 A    
C60   H20   1.083356 S    
C89   C93   1.389778 A    
C18   C69   1.448415 S    
O37   C17   1.277320 A    
O6    C2    1.261752 A    
C83   H31   1.082007 S    
N7    O66   1.301386 A    
C28   C35   1.409328 A    
C17   O41   1.258244 A    
C78   C82   1.387333 A    
C43   C47   1.410403 A    
C56   C60   1.373947 A    
C46   N10   1.438151 S    
C92   H36   1.083384 S    
C14   O34   1.258558 A    
C44   N8    1.439067 S    
C55   H15   1.079889 S    
C67   H23   1.082492 S    
C34   H2    1.080219 S    
C35   C36   1.395573 A    
C48   C52   1.404488 A    
C25   C34   1.390364 A    
C39   H5    1.112026 S    
O1    Cr1   2.066895 S    
C67   C72   1.404276 A    
O33   Cr5   2.065496 S    
C51   C55   1.387983 A    
O19   Cr11  2.069816 S    
Cr8   O52   1.977349 S    
O32   C16   1.275621 A    
C73   C74   1.388704 A    
C65   C66   1.371321 A    
C77   N1    1.438262 S    
C10   C62   1.465641 S    
Cr6   O50   1.977349 S    
C94   H38   1.083217 S    
C93   C97   1.407909 A    
C79   C83   1.378645 A    
C58   C62   1.388500 A    
O45   C21   1.272602 A    
C37   H7    1.103625 S    
C58   H18   1.083839 S    
N10   O71   1.301248 A    
C6    C25   1.444137 S    
O26   Cr2   2.071740 S    
O23   C11   1.272563 A    
O10   Cr6   2.070162 S    
O5    Cr1   1.954219 S    
O35   Cr7   2.065496 S    
C78   C98   1.417584 A    
C75   C76   1.388174 A    
C55   C59   1.371810 A    
C70   C74   1.397432 A    
O29   Cr1   1.946865 S    
C88   C92   1.395943 A    
C16   O36   1.258842 A    
C53   C57   1.377591 A    
C30   C38   1.488980 S    
C27   C31   1.404096 A    
N2    O56   1.301799 A    
N8    O67   1.301580 A    
C6    O18   1.276296 A    
O43   Cr11  2.065768 S    
C39   C40   1.516168 S    
C77   C81   1.378549 A    
C7    C28   1.446832 S    
C26   C30   1.390799 A    
O41   Cr9   2.065768 S    
C90   H34   1.082936 S    
O32   Cr4   1.947861 S    
C81   H29   1.081912 S    
O36   Cr8   2.067196 S    
O31   C15   1.300196 A    
O16   C8    1.263261 A    
O17   Cr9   2.069816 S    
C80   C84   1.379319 A    
C13   C88   1.450451 S    
O38   Cr6   1.949522 S    
O27   C23   1.265888 A    
