data_str_m2_o14_o14_f0_pcu.sym.107
_audit_creation_date              2013-03-05T15:50:11-0500
_audit_creation_method            fapswitch 2.2
_symmetry_space_group_name_H-M    P1
_symmetry_Int_Tables_number       1
_space_group_crystal_system       triclinic
_cell_length_a                    15.163556
_cell_length_b                    15.663483
_cell_length_c                    9.598763
_cell_angle_alpha                 89.971037
_cell_angle_beta                  90.150637
_cell_angle_gamma                 90.075498
_cell_volume                      2279.83142473

loop_
_atom_site_label
_atom_site_type_symbol
_atom_site_description
_atom_site_fract_x
_atom_site_fract_y
_atom_site_fract_z
_atom_type_partial_charge
O1    O     O_R   0.409820 0.909830 0.618810 -0.594697
O2    O     O_R   0.409820 0.090170 0.618810 -0.594991
O3    O     O_R   0.909820 0.409830 0.618810 -0.586767
O4    O     O_R   0.909820 0.590170 0.618810 -0.585942
O5    O     O_R   0.409840 0.909830 0.381240 -0.570774
O6    O     O_R   0.409840 0.090170 0.381240 -0.569866
O7    O     O_R   0.909840 0.409830 0.381240 -0.572647
O8    O     O_R   0.909840 0.590170 0.381240 -0.575880
C1    C     C_R   0.384546 0.877168 0.500980 0.818173
C2    C     C_R   0.385390 0.123319 0.501121 0.820711
C3    C     C_R   0.887293 0.375657 0.499268 0.809556
C4    C     C_R   0.884328 0.622276 0.498901 0.810642
Cu1   Cu    Cu3+1 0.499990 1.000000 0.640660 0.909470
Cu2   Cu    Cu3+1 0.999990 0.500000 0.640660 0.917888
Cu3   Cu    Cu3+1 0.500010 1.000000 0.359340 0.921289
Cu4   Cu    Cu3+1 0.000010 0.500000 0.359340 0.916575
O9    O     O_R   0.590170 0.090170 0.618760 -0.615011
O10   O     O_R   0.590170 0.909830 0.618760 -0.615915
O11   O     O_R   0.090170 0.590170 0.618760 -0.609252
O12   O     O_R   0.090170 0.409830 0.618760 -0.609371
O13   O     O_R   0.590190 0.090180 0.381190 -0.590843
O14   O     O_R   0.590190 0.909820 0.381190 -0.588633
O15   O     O_R   0.090190 0.590180 0.381190 -0.590427
O16   O     O_R   0.090190 0.409820 0.381190 -0.591737
C5    C     C_R   0.613044 0.124283 0.501142 0.802519
C6    C     C_R   0.612322 0.875597 0.501600 0.803520
C7    C     C_R   0.110425 0.625591 0.499662 0.796634
C8    C     C_R   0.111369 0.374890 0.499588 0.790945
C9    C     C_R   0.307555 0.195459 0.767158 -0.135170
C10   C     C_R   0.305352 0.806072 0.766770 -0.135909
C11   C     C_R   0.856588 0.738914 0.736036 -0.126251
C12   C     C_R   0.857945 0.260821 0.739747 -0.125887
C13   C     C_R   0.252555 0.199457 0.882855 -0.163876
C14   C     C_R   0.250286 0.802404 0.882391 -0.165114
C15   C     C_R   0.828655 0.768220 0.865347 -0.155189
C16   C     C_R   0.828319 0.231644 0.867675 -0.159780
H1    H     H_    0.276368 0.178832 0.983088 0.129784
H2    H     H_    0.273881 0.823938 0.982084 0.131132
H3    H     H_    0.873548 0.768542 0.953234 0.130536
H4    H     H_    0.873137 0.230289 0.955302 0.131928
C17   C     C_R   0.741961 0.793967 0.882077 -0.152065
C18   C     C_R   0.740877 0.207146 0.882158 -0.147324
C19   C     C_R   0.166713 0.228309 0.868496 -0.144408
C20   C     C_R   0.164682 0.772716 0.868652 -0.145003
H5    H     H_    0.718280 0.812783 0.983498 0.141990
H6    H     H_    0.715565 0.188957 0.982538 0.142197
H7    H     H_    0.122003 0.228185 0.955865 0.131957
H8    H     H_    0.120103 0.772699 0.956148 0.132119
C21   C     C_R   0.686264 0.798607 0.766923 -0.133154
C22   C     C_R   0.686339 0.202580 0.765613 -0.134793
C23   C     C_R   0.138566 0.259964 0.741265 -0.121492
C24   C     C_R   0.136640 0.740461 0.741862 -0.120622
H9    H     H_    0.618333 0.814465 0.787562 0.163419
H10   H     H_    0.617917 0.187692 0.784399 0.162964
H11   H     H_    0.071391 0.281419 0.734600 0.135956
H12   H     H_    0.069685 0.718136 0.735685 0.136253
C25   C     C_R   0.717413 0.779252 0.631352 0.053504
C26   C     C_R   0.719760 0.219870 0.630814 0.051376
C27   C     C_R   0.194625 0.259738 0.623988 0.054203
C28   C     C_R   0.192385 0.741420 0.624243 0.055048
C29   C     C_R   0.275586 0.215694 0.631835 0.057428
C30   C     C_R   0.273314 0.785746 0.631504 0.057083
C31   C     C_R   0.798295 0.736141 0.620483 0.048904
C32   C     C_R   0.801584 0.262082 0.622444 0.054208
C33   C     C_R   0.320635 0.194573 0.505501 -0.191867
C34   C     C_R   0.317930 0.807253 0.504672 -0.192126
C35   C     C_R   0.818661 0.692359 0.495478 -0.190286
C36   C     C_R   0.826229 0.301843 0.496790 -0.191308
C37   C     C_R   0.291785 0.231376 0.378476 0.150654
C38   C     C_R   0.286773 0.772463 0.376994 0.151287
C39   C     C_R   0.766499 0.707046 0.373406 0.159084
C40   C     C_R   0.781491 0.280001 0.372283 0.165451
C41   C     C_R   0.688884 0.755571 0.383628 0.162803
C42   C     C_R   0.700826 0.236287 0.379011 0.157628
C43   C     C_R   0.210631 0.273948 0.373319 0.171614
C44   C     C_R   0.205662 0.729667 0.373332 0.173618
C45   C     C_R   0.670565 0.799980 0.507518 -0.183588
C46   C     C_R   0.674768 0.197827 0.505415 -0.184491
C47   C     C_R   0.169628 0.299163 0.498235 -0.186877
C48   C     C_R   0.166959 0.702442 0.498583 -0.189029
C49   C     C_R   0.662400 0.999813 0.144388 -0.184054
C50   C     C_R   0.162332 0.501853 0.144262 -0.181425
H13   H     H_    0.668859 0.999948 0.254075 0.220334
H14   H     H_    0.168774 0.500625 0.253941 0.223773
C51   C     C_R   0.742295 0.000601 0.072731 0.156292
C52   C     C_R   0.242249 0.503287 0.072637 0.159697
C53   C     C_R   0.741534 0.000664 0.928790 -0.200662
C54   C     C_R   0.241527 0.503053 0.928651 -0.203196
C55   C     C_R   0.662141 0.000213 0.856795 -0.204198
C56   C     C_R   0.162165 0.501521 0.856615 -0.173366
H15   H     H_    0.669818 0.000157 0.747136 0.224774
H16   H     H_    0.169845 0.500368 0.746971 0.217705
C57   C     C_R   0.579756 0.999968 0.925571 0.184650
C58   C     C_R   0.079763 0.501044 0.925485 0.196738
C59   C     C_R   0.579798 0.999831 0.074980 0.160047
C60   C     C_R   0.079777 0.501166 0.074917 0.161418
N1    N     N_R   0.501200 0.000000 0.147910 -0.186867
N2    N     N_R   0.001200 0.500000 0.147910 -0.193129
C61   C     C_R   0.424163 0.000241 0.073549 -0.076993
C62   C     C_R   0.924287 0.497750 0.073417 -0.069288
H17   H     H_    0.361991 0.000296 0.870249 0.150066
H18   H     H_    0.862080 0.496579 0.870176 0.149624
C63   C     C_R   0.424196 0.000161 0.925689 -0.096234
C64   C     C_R   0.924256 0.498144 0.925626 -0.059360
N3    N     N_R   0.501270 0.000000 0.852040 -0.200348
N4    N     N_R   0.001270 0.500000 0.852040 -0.203889
C65   C     C_3   0.348625 0.229749 0.248926 -0.826226
H19   H     H_    0.332095 0.282409 0.176094 0.227959
H20   H     H_    0.418703 0.239486 0.277515 0.224411
H21   H     H_    0.340452 0.168191 0.193706 0.238053
C66   C     C_3   0.340512 0.776683 0.244481 -0.827496
H22   H     H_    0.321584 0.726229 0.169053 0.228101
H23   H     H_    0.332290 0.839842 0.194294 0.237476
H24   H     H_    0.410706 0.764803 0.267968 0.226671
C67   C     C_3   0.793454 0.673962 0.230934 -0.811371
H25   H     H_    0.757077 0.703776 0.143857 0.219504
H26   H     H_    0.863472 0.690084 0.209647 0.236019
H27   H     H_    0.781313 0.604279 0.225200 0.232813
C68   C     C_3   0.824257 0.291303 0.231427 -0.824013
H28   H     H_    0.804669 0.237996 0.162773 0.218429
H29   H     H_    0.804109 0.352738 0.183554 0.234256
H30   H     H_    0.897165 0.286229 0.238165 0.232795
H31   H     H_    0.802993 0.001133 0.871366 0.169456
H32   H     H_    0.303011 0.503634 0.871304 0.156948
H33   H     H_    0.375367 0.179652 0.788412 0.164054
H34   H     H_    0.373126 0.821841 0.788376 0.165142
H35   H     H_    0.924465 0.720242 0.727278 0.135435
H36   H     H_    0.925943 0.279780 0.732744 0.134495
C69   C     C_3   0.619686 0.750949 0.269473 -0.826436
H37   H     H_    0.553257 0.761929 0.312932 0.222920
H38   H     H_    0.633468 0.798995 0.187439 0.237394
H39   H     H_    0.616421 0.686047 0.223106 0.223333
C70   C     C_3   0.639591 0.237518 0.253979 -0.828066
H40   H     H_    0.570246 0.242997 0.288741 0.223310
H41   H     H_    0.651756 0.293776 0.186291 0.224196
H42   H     H_    0.647894 0.178769 0.191511 0.243748
C71   C     C_3   0.161764 0.277169 0.235846 -0.827717
H43   H     H_    0.089242 0.280703 0.249917 0.233670
H44   H     H_    0.185271 0.331109 0.171292 0.248977
H45   H     H_    0.172876 0.216482 0.179206 0.213575
C72   C     C_3   0.154232 0.727664 0.238034 -0.828755
H46   H     H_    0.082093 0.722516 0.255598 0.234796
H47   H     H_    0.163398 0.789305 0.182985 0.213884
H48   H     H_    0.177019 0.674831 0.170592 0.248589
H49   H     H_    0.361942 0.000526 0.128393 0.130925
H50   H     H_    0.862245 0.495051 0.128009 0.130639
C73   C     C_3   0.828959 0.001712 0.148956 -0.875909
H51   H     H_    0.819896 0.001649 0.263758 0.227511
H52   H     H_    0.867926 0.944434 0.120050 0.234878
H53   H     H_    0.866477 0.059988 0.119917 0.232639
C74   C     C_3   0.328848 0.504500 0.149154 -0.877781
H54   H     H_    0.319644 0.504546 0.263930 0.229655
H55   H     H_    0.367899 0.447229 0.120597 0.235127
H56   H     H_    0.366444 0.562707 0.120127 0.236195

loop_
_geom_bond_atom_site_label_1
_geom_bond_atom_site_label_2
_geom_bond_distance
_ccdc_geom_bond_type
C61   C63   1.419272 A    
C10   H34   1.076311 S    
C9    H33   1.076919 S    
C16   C18   1.387162 A    
C73   H51   1.110848 S    
O10   C6    1.291554 A    
C11   H35   1.073891 S    
C54   H32   1.083950 S    
C19   C23   1.384448 A    
C64   N4    1.366650 A    
C37   C65   1.515105 S    
C66   H23   1.107169 S    
C34   C38   1.420936 A    
C4    C35   1.483338 S    
O7    C3    1.299173 A    
C71   H44   1.106655 S    
C22   H10   1.078714 S    
Cu1   O10   1.978842 S    
C32   C36   1.408287 A    
C73   H52   1.110651 S    
C72   H47   1.109158 S    
C49   C59   1.417162 A    
C52   C54   1.382115 A    
C2    C33   1.488197 S    
C67   H25   1.104013 S    
C42   C70   1.515614 S    
C9    C13   1.392074 A    
C62   C64   1.418617 A    
C21   C25   1.418601 A    
C28   C30   1.410751 A    
C18   H6    1.076215 S    
C74   H56   1.110442 S    
O2    Cu1   1.977772 S    
C8    C47   1.479986 S    
C1    C34   1.489341 S    
C24   C28   1.412219 A    
C57   N3    1.382089 A    
O6    Cu3   1.978736 S    
Cu3   O14   1.977990 S    
C28   C48   1.404966 A    
C66   H22   1.109068 S    
C62   H50   1.078851 S    
C67   H26   1.110467 S    
C60   N2    1.383916 A    
C70   H42   1.106101 S    
C65   H19   1.109485 S    
C25   C31   1.404983 A    
Cu2   Cu4   2.700324 S    
O15   C7    1.301281 A    
O4    C4    1.313266 A    
O11   C7    1.307592 A    
C23   H11   1.074778 S    
C36   C40   1.414601 A    
C69   H39   1.110952 S    
C44   C72   1.513410 S    
C20   C24   1.383675 A    
O8    Cu4   1.978736 S    
C51   C53   1.381671 A    
C61   H49   1.081638 S    
C74   H54   1.110876 S    
H17   C63   1.081801 S    
O4    Cu2   1.977772 S    
C65   H20   1.107183 S    
Cu3   N1    2.029595 S    
C17   C21   1.391220 A    
C49   H13   1.057152 S    
C56   C58   1.415151 A    
C9    C29   1.421046 A    
C68   H29   1.109085 S    
C26   C32   1.407607 A    
C71   H45   1.108593 S    
C31   C35   1.417303 A    
C27   C29   1.410822 A    
C6    C45   1.479366 S    
C50   C60   1.416283 A    
C10   C14   1.391732 A    
C24   H12   1.074870 S    
C5    C46   1.483810 S    
C13   C19   1.384961 A    
C11   C31   1.417134 A    
C16   H4    1.080184 S    
C73   H53   1.110746 S    
O1    C1    1.298312 A    
C12   C32   1.411926 A    
Cu1   N3    2.029029 S    
C7    C48   1.476940 S    
N1    C61   1.367373 A    
C72   H48   1.107153 S    
C27   C47   1.406956 A    
C39   C41   1.405532 A    
C30   C34   1.434106 A    
O12   C8    1.309353 A    
C50   C52   1.394987 A    
C13   H1    1.076371 S    
C22   C26   1.416721 A    
C53   H31   1.084000 S    
C15   H3    1.082631 S    
O5    C1    1.315698 A    
Cu2   O12   1.978842 S    
C56   H16   1.059338 S    
Cu2   N4    2.029029 S    
O8    C4    1.296717 A    
C67   H27   1.108028 S    
C39   C67   1.519871 S    
C63   N3    1.367485 A    
C58   C60   1.434365 A    
O3    Cu2   1.975350 S    
C18   C22   1.391247 A    
C40   C42   1.402601 A    
O7    Cu4   1.976011 S    
C54   C56   1.386526 A    
Cu4   O15   1.975566 S    
C50   H14   1.057217 S    
Cu1   Cu3   2.700324 S    
C43   C71   1.512545 S    
C70   H40   1.107480 S    
C65   H21   1.107193 S    
C11   C15   1.390900 A    
C23   C27   1.412407 A    
O2    C2    1.296414 A    
C12   C16   1.385766 A    
C3    C36   1.480473 S    
O16   C8    1.300761 A    
C69   H37   1.104994 S    
C68   H30   1.110219 S    
C33   C37   1.416854 A    
C14   C20   1.384255 A    
O13   C5    1.314986 A    
C58   N4    1.381840 A    
C17   H5    1.079790 S    
C14   H2    1.075032 S    
Cu2   O11   1.976115 S    
C44   C48   1.405073 A    
O6    C2    1.317024 A    
C68   H28   1.103880 S    
C59   N1    1.383795 A    
Cu1   O9    1.976115 S    
C71   H43   1.109765 S    
N2    C62   1.366840 A    
H18   C64   1.081714 S    
O9    C5    1.296682 A    
C12   H36   1.074896 S    
C25   C45   1.420820 A    
C10   C30   1.421218 A    
C51   C73   1.502501 S    
C72   H46   1.110063 S    
C38   C44   1.400344 A    
Cu4   N2    2.029595 S    
C57   C59   1.434136 A    
C19   H7    1.079784 S    
C41   C69   1.516817 S    
C21   H9    1.078802 S    
C40   C68   1.511279 S    
C37   C43   1.401168 A    
C66   H24   1.103442 S    
C35   C39   1.430685 A    
C74   H55   1.110410 S    
C55   C57   1.414483 A    
C15   C17   1.385334 A    
O5    Cu3   1.976011 S    
O3    C3    1.310698 A    
C38   C66   1.513769 S    
C26   C46   1.424417 A    
O14   C6    1.316676 A    
C29   C33   1.432466 A    
Cu3   O13   1.975566 S    
O1    Cu1   1.975350 S    
Cu4   O16   1.977990 S    
C55   H15   1.059310 S    
C42   C46   1.411506 A    
C70   H41   1.110086 S    
C53   C55   1.386570 A    
C41   C45   1.406512 A    
C52   C74   1.503011 S    
C43   C47   1.409006 A    
C49   C51   1.394736 A    
C20   H8    1.079480 S    
C69   H38   1.109028 S    
