data_str_m3_o1_o14_f0_pcu.sym.133
_audit_creation_date              2012-12-10T18:45:04-0500
_audit_creation_method            fapswitch 2.2
_symmetry_space_group_name_H-M    P1
_symmetry_Int_Tables_number       1
_space_group_crystal_system       triclinic
_cell_length_a                    10.650512
_cell_length_b                    9.85651
_cell_length_c                    10.660304
_cell_angle_alpha                 89.796336
_cell_angle_beta                  89.428055
_cell_angle_gamma                 90.087904
_cell_volume                      1119.02122828

loop_
_atom_site_label
_atom_site_type_symbol
_atom_type_description
_atom_site_fract_x
_atom_site_fract_y
_atom_site_fract_z
_atom_type_partial_charge
C1    C     C_R   0.260218 0.499830 0.503296 0.850819
C2    C     C_R   0.739558 0.500015 0.504257 0.822806
C3    C     C_R   0.932738 0.429892 0.610201 -0.035378
C4    C     C_R   0.064289 0.424589 0.606291 -0.041511
C5    C     C_R   0.575793 0.071696 0.579267 -0.052932
C6    C     C_R   0.424160 0.072080 0.420778 -0.049052
C7    C     C_R   0.575831 0.927917 0.579241 -0.054541
C8    C     C_R   0.424167 0.928287 0.420772 -0.056656
C9    C     C_R   0.505452 0.500320 0.260396 0.875901
C10   C     C_R   0.505189 0.499731 0.739531 0.837151
C11   C     C_R   0.701512 0.652558 0.127509 -0.180895
C12   C     C_R   0.703531 0.648798 0.866220 -0.162015
C13   C     C_R   0.792997 0.724782 0.060703 -0.125117
C14   C     C_R   0.794114 0.722733 0.930271 -0.093303
C15   C     C_R   0.608798 0.576504 0.932508 0.108639
C16   C     C_R   0.608091 0.577897 0.064169 0.105283
C17   C     C_R   0.515710 0.500309 0.128022 -0.106695
C18   C     C_R   0.516596 0.498376 0.871618 -0.102105
C19   C     C_R   0.431585 0.417423 0.065255 -0.198423
C20   C     C_R   0.432550 0.415877 0.937342 -0.195986
C21   C     C_R   0.064756 0.577344 0.423652 -0.168455
C22   C     C_R   0.936701 0.575653 0.422684 -0.163388
C23   C     C_R   0.871768 0.500252 0.512783 -0.111038
C24   C     C_R   0.127600 0.500107 0.512277 -0.125026
H1    H     H_    0.362922 0.356059 0.115598 0.160883
H2    H     H_    0.365291 0.352437 0.889698 0.164988
H3    H     H_    0.706441 0.654147 0.228499 0.150151
H4    H     H_    0.710871 0.646370 0.765110 0.136809
H5    H     H_    0.864181 0.781084 0.110375 0.139036
H6    H     H_    0.866288 0.777223 0.878517 0.146850
H7    H     H_    0.115185 0.635117 0.352438 0.145955
H8    H     H_    0.888169 0.632372 0.350853 0.137644
H9    H     H_    0.636399 0.125847 0.642730 0.127405
H10   H     H_    0.363471 0.126607 0.357399 0.132572
H11   H     H_    0.636525 0.873420 0.642631 0.129479
H12   H     H_    0.363475 0.874043 0.357399 0.132019
N1    N     N_R   0.500000 0.857200 0.500000 -0.085680
N2    N     N_R   0.500000 0.142810 0.500000 -0.085153
O1    O     O_R   0.316770 0.614620 0.499990 -0.605137
O2    O     O_R   0.683230 0.614620 0.500010 -0.629520
O3    O     O_R   0.316800 0.385290 0.500000 -0.623322
O4    O     O_R   0.683200 0.385290 0.500000 -0.625328
O5    O     O_R   0.500010 0.614690 0.316770 -0.627158
O6    O     O_R   0.499990 0.614690 0.683230 -0.618288
O7    O     O_R   0.500040 0.385360 0.316770 -0.608699
O8    O     O_R   0.499960 0.385360 0.683230 -0.628329
Zn1   Zn    Zn3+2 0.500000 0.653120 0.500000 0.948571
Zn2   Zn    Zn3+2 0.500000 0.346880 0.500000 0.956297
C25   C     C_2   0.859319 0.374741 0.719177 0.418067
H13   H     H_    0.765480 0.334962 0.707304 0.071718
O9    O     O_2   0.900856 0.379498 0.825423 -0.538893
C26   C     C_2   0.136532 0.341883 0.697551 0.518175
H14   H     H_    0.227414 0.376717 0.728509 0.023365
O10   O     O_2   0.097819 0.231921 0.734349 -0.542560

loop_
_geom_bond_atom_site_label_1
_geom_bond_atom_site_label_2
_ccdc_geom_bond_type
C10   O8    A    
C15   C18   A    
C6    N2    A    
C9    O7    A    
C13   C14   A    
N1    Zn1   S    
O6    Zn1   S    
C11   C13   A    
C11   C16   A    
C3    C23   A    
C19   C20   A    
C12   C15   A    
C11   H3    S    
C6    H10   S    
C26   O10   D    
C3    C25   S    
O4    Zn2   S    
C21   C22   A    
C21   H7    S    
C22   H8    S    
C2    O4    A    
C19   H1    S    
C10   C18   S    
C9    C17   S    
C17   C19   A    
O3    Zn2   S    
C14   H6    S    
C4    C26   S    
C18   C20   A    
C7    N1    A    
C4    C24   A    
O8    Zn2   S    
C9    O5    A    
C8    N1    A    
C1    O1    A    
C10   O6    A    
C15   C16   A    
C2    O2    A    
C7    H11   S    
N2    Zn2   S    
C26   H14   S    
C12   H4    S    
C1    C24   S    
O1    Zn1   S    
C25   H13   S    
C8    H12   S    
C21   C24   A    
C13   H5    S    
C2    C23   S    
C5    C7    A    
C22   C23   A    
C6    C8    A    
O7    Zn2   S    
C25   O9    D    
C5    N2    A    
O2    Zn1   S    
O5    Zn1   S    
C3    C4    A    
C1    O3    A    
C12   C14   A    
C16   C17   A    
C20   H2    S    
C5    H9    S    
