data_str_m3_o10_o17_f0_pcu.sym.102
_audit_creation_date              2012-12-10T16:52:02-0500
_audit_creation_method            fapswitch 2.2
_symmetry_space_group_name_H-M    P1
_symmetry_Int_Tables_number       1
_space_group_crystal_system       triclinic
_cell_length_a                    7.81238
_cell_length_b                    8.601908
_cell_length_c                    14.854028
_cell_angle_alpha                 91.950464
_cell_angle_beta                  85.490022
_cell_angle_gamma                 92.883918
_cell_volume                      993.406332811

loop_
_atom_site_label
_atom_site_type_symbol
_atom_type_description
_atom_site_fract_x
_atom_site_fract_y
_atom_site_fract_z
_atom_type_partial_charge
C1    C     C_R   0.544284 0.793832 0.497459 0.952553
C2    C     C_R   0.562070 0.634002 0.813087 0.554327
C3    C     C_R   0.495057 0.500107 0.232395 -0.184488
C4    C     C_R   0.504947 0.499892 0.767605 -0.184496
C5    C     C_R   0.552978 0.634324 0.187974 -0.336893
C6    C     C_R   0.447042 0.365672 0.812025 -0.336849
C7    C     C_R   0.555274 0.636947 0.094484 0.135495
C8    C     C_R   0.444774 0.363042 0.905514 0.135529
C9    C     C_R   0.498934 0.500433 0.046916 -0.029818
C10   C     C_R   0.501117 0.499554 0.953081 -0.029832
C11   C     C_R   0.440435 0.364608 0.093441 -0.019230
C12   C     C_R   0.455715 0.206168 0.502542 0.952555
C13   C     C_R   0.559612 0.635379 0.906557 -0.019243
C14   C     C_R   0.612314 0.772346 0.047873 0.085259
C15   C     C_R   0.387759 0.227637 0.952124 0.085230
C16   C     C_R   0.613752 0.770104 0.953841 -0.214286
C17   C     C_R   0.386314 0.229878 0.046156 -0.214237
C18   C     C_2   0.563187 0.954252 0.482883 -0.081821
C19   C     C_2   0.436809 0.045748 0.517119 -0.081808
C20   C     C_R   0.501606 0.500344 0.672605 0.965261
C21   C     C_R   0.498394 0.499656 0.327395 0.965264
C22   C     C_R   0.437950 0.365992 0.186911 0.554305
F1    F     F_    0.383338 0.237270 0.233904 -0.688045
F2    F     F_    0.616669 0.762726 0.766095 -0.688041
H1    H     H_    0.595449 0.735747 0.227140 0.176493
H2    H     H_    0.700250 0.947971 0.360773 0.182902
H3    H     H_    0.180247 0.015101 0.549926 0.191297
H4    H     H_    0.299682 0.052061 0.639217 0.182906
H5    H     H_    0.995242 0.387017 0.349532 0.197379
H6    H     H_    0.983923 0.246728 0.425857 0.183782
H7    H     H_    0.005060 0.613298 0.650453 0.197396
H8    H     H_    0.015783 0.753371 0.573959 0.183719
H9    H     H_    0.404562 0.264251 0.772861 0.176529
H10   H     H_    0.657751 0.873809 0.917699 0.205664
H11   H     H_    0.342316 0.126169 0.082296 0.205675
H12   H     H_    0.787226 0.891198 0.119665 0.187516
H13   H     H_    0.688140 0.004667 0.052535 0.193007
H14   H     H_    0.212757 0.108693 0.880439 0.187539
H15   H     H_    0.312211 0.995254 0.947432 0.193050
H16   H     H_    0.819740 0.984865 0.450047 0.191288
N1    N     N_2   0.950330 0.457950 0.475660 -0.018184
N2    N     N_2   0.049670 0.542050 0.524340 -0.018156
N3    N     N_3   0.667928 0.911392 0.096088 -0.441882
N4    N     N_3   0.332162 0.088589 0.903907 -0.441913
N5    N     N_3   0.705288 0.009511 0.422545 -0.431031
N6    N     N_3   0.294694 0.990488 0.577450 -0.430995
N7    N     N_3   0.033171 0.359436 0.412714 -0.288642
N8    N     N_3   0.966830 0.640603 0.587265 -0.288568
O1    O     O_R   0.389250 0.738570 0.505970 -0.604922
O2    O     O_R   0.610750 0.261430 0.494030 -0.604920
O3    O     O_R   0.678390 0.711620 0.490370 -0.628119
O4    O     O_R   0.321610 0.288380 0.509630 -0.628046
O5    O     O_R   0.355420 0.513510 0.639950 -0.633686
O6    O     O_R   0.644580 0.486490 0.360050 -0.633678
O7    O     O_R   0.644560 0.486560 0.624350 -0.598635
O8    O     O_R   0.355440 0.513440 0.375650 -0.598706
Zn1   Zn    Zn3+2 0.306940 0.517990 0.510420 0.988626
Zn2   Zn    Zn3+2 0.693060 0.482010 0.489580 0.988622

loop_
_geom_bond_atom_site_label_1
_geom_bond_atom_site_label_2
_ccdc_geom_bond_type
H13   N3    S    
C21   O8    A    
C2    C4    A    
N1    N2    D    
H14   N4    S    
H15   N4    S    
C9    C11   A    
C9    C10   A    
C11   C22   A    
C12   O2    A    
C6    H9    S    
C3    C5    A    
C15   N4    S    
N1    N7    S    
C19   N6    S    
O3    Zn2   S    
N2    N8    S    
C1    O3    A    
H4    N6    S    
C1    C18   S    
H16   N5    S    
H5    N7    S    
C20   O7    A    
C5    H1    S    
C20   O5    A    
H3    N6    S    
C8    C10   A    
C12   O4    A    
N1    Zn2   S    
C8    C15   A    
H7    N8    S    
C2    F2    S    
C21   O6    A    
C14   C16   A    
O7    Zn2   S    
C3    C21   S    
O4    Zn1   S    
C4    C20   S    
C18   N5    S    
C7    C9    A    
H6    N7    S    
O1    Zn1   S    
O8    Zn1   S    
C12   C19   S    
C4    C6    A    
C18   C19   D    
O6    Zn2   S    
C13   C16   A    
H8    N8    S    
C5    C7    A    
C2    C13   A    
O5    Zn1   S    
C22   F1    S    
C11   C17   A    
C3    C22   A    
C6    C8    A    
C17   H11   S    
H2    N5    S    
C16   H10   S    
C15   C17   A    
C1    O1    A    
C7    C14   A    
N2    Zn1   S    
C14   N3    S    
H12   N3    S    
C10   C13   A    
O2    Zn2   S    
