data_str_m3_o10_o29_f0_pcu.sym.183
_audit_creation_date              2012-12-10T16:59:16-0500
_audit_creation_method            fapswitch 2.2
_symmetry_space_group_name_H-M    P1
_symmetry_Int_Tables_number       1
_space_group_crystal_system       triclinic
_cell_length_a                    7.815108
_cell_length_b                    8.669934
_cell_length_c                    27.571618
_cell_angle_alpha                 90.860032
_cell_angle_beta                  86.489214
_cell_angle_gamma                 93.790924
_cell_volume                      1860.456908

loop_
_atom_site_label
_atom_site_type_symbol
_atom_type_description
_atom_site_fract_x
_atom_site_fract_y
_atom_site_fract_z
_atom_type_partial_charge
C1    C     C_R   0.546116 0.794040 0.501856 0.840630
C2    C     C_R   0.455147 0.206411 0.504587 0.823241
C3    C     C_R   0.586333 0.481390 0.897721 -0.204521
C4    C     C_R   0.505594 0.471076 0.102266 -0.210886
C5    C     C_R   0.629305 0.622392 0.874046 -0.096220
C6    C     C_R   0.408960 0.345306 0.125265 -0.076017
C7    C     C_R   0.707575 0.745875 0.900009 0.449367
C8    C     C_R   0.328818 0.229098 0.096646 0.467752
C9    C     C_R   0.547065 0.347443 0.870079 -0.102602
C10   C     C_R   0.572118 0.594891 0.130531 -0.080782
C11   C     C_R   0.509174 0.508654 0.646089 -0.111085
C12   C     C_R   0.482155 0.486109 0.354430 -0.117489
C13   C     C_R   0.608637 0.610071 0.027858 0.001909
C14   C     C_R   0.511083 0.340515 0.972620 -0.005407
C15   C     C_R   0.471469 0.346112 0.023312 0.078145
C16   C     C_R   0.633525 0.609235 0.976110 0.066500
C17   C     C_R   0.531461 0.475040 0.051056 -0.022661
C18   C     C_R   0.577442 0.476755 0.949010 -0.024619
C19   C     C_R   0.639032 0.745357 0.057013 0.274954
C20   C     C_R   0.492921 0.201350 0.945047 0.286311
C21   C     C_R   0.635148 0.733904 0.108203 0.340363
C22   C     C_R   0.502946 0.206079 0.893660 0.393566
C23   C     C_R   0.503185 0.503084 0.593625 0.865119
C24   C     C_R   0.496119 0.498587 0.406448 0.892287
C25   C     C_R   0.718936 0.733545 0.949936 -0.242242
C26   C     C_R   0.357485 0.233495 0.046315 -0.242831
C27   C     C_2   0.572212 0.957799 0.507453 0.169406
C28   C     C_2   0.432182 0.043585 0.512152 0.183407
C29   C     C_R   0.593008 0.634038 0.825161 0.500743
C30   C     C_R   0.389766 0.343744 0.176333 0.551771
C31   C     C_R   0.553242 0.360074 0.819168 0.557967
C32   C     C_R   0.563357 0.579635 0.181177 0.571175
C33   C     C_R   0.408136 0.416692 0.725485 -0.214877
C34   C     C_R   0.385018 0.582102 0.279926 -0.222328
C35   C     C_R   0.403983 0.404872 0.674929 0.466258
C36   C     C_R   0.410182 0.603425 0.329441 0.492040
C37   C     C_R   0.619518 0.618996 0.667384 -0.339610
C38   C     C_R   0.536346 0.354044 0.329939 -0.347582
C39   C     C_R   0.640750 0.615219 0.716978 -0.112986
C40   C     C_R   0.524431 0.340178 0.279950 -0.095548
C41   C     C_R   0.535269 0.513328 0.746731 0.206969
C42   C     C_R   0.451535 0.455772 0.254737 0.230014
H1    H     H_    0.694059 0.704203 0.645193 0.173346
H2    H     H_    0.590238 0.263843 0.349656 0.147122
H3    H     H_    0.740813 0.690737 0.731763 0.182666
H4    H     H_    0.576373 0.242579 0.260601 0.163581
H5    H     H_    0.327770 0.669857 0.259902 0.150080
H6    H     H_    0.316925 0.346579 0.748159 0.149967
H7    H     H_    0.796425 0.823780 0.966878 0.232676
H8    H     H_    0.279578 0.152875 0.025354 0.209054
N1    N     N_R   0.560383 0.502907 0.797990 -0.353423
N2    N     N_R   0.468894 0.458516 0.202831 -0.360795
N3    N     N_2   0.950320 0.457960 0.486880 0.188254
N4    N     N_2   0.049680 0.542040 0.513120 0.175110
O1    O     O_R   0.389250 0.738570 0.503220 -0.576763
O2    O     O_R   0.610750 0.261430 0.496780 -0.586467
O3    O     O_R   0.678390 0.711630 0.494810 -0.640710
O4    O     O_R   0.321610 0.288370 0.505190 -0.641386
O5    O     O_R   0.355440 0.513440 0.575450 -0.616452
O6    O     O_R   0.644560 0.486560 0.424550 -0.642049
O7    O     O_R   0.644590 0.486500 0.567040 -0.580327
O8    O     O_R   0.355410 0.513500 0.432960 -0.550459
O9    O     O_2   0.585305 0.774930 0.805601 -0.503466
O10   O     O_2   0.294485 0.228816 0.199556 -0.526224
O11   O     O_2   0.649613 0.684191 0.208922 -0.516798
O12   O     O_2   0.553640 0.231376 0.791037 -0.517238
Zn1   Zn    Zn3+2 0.306940 0.517990 0.505620 1.056909
Zn2   Zn    Zn3+2 0.693060 0.482010 0.494380 1.037929
O13   O     O_3   0.018856 0.445901 0.440996 -0.541545
C43   C     C_3   0.958988 0.303700 0.420558 0.163139
H9    H     H_    0.963900 0.317586 0.380489 0.140973
H10   H     H_    0.824301 0.268886 0.431998 0.183442
C44   C     C_3   0.074885 0.175947 0.432435 -0.351619
H11   H     H_    0.210782 0.213076 0.422056 0.230686
H12   H     H_    0.059338 0.154414 0.471990 0.263773
C45   C     C_3   0.029232 0.025423 0.405717 -0.913256
H13   H     H_    0.892061 0.988462 0.413864 0.274437
H14   H     H_    0.109471 0.933812 0.417767 0.309650
H15   H     H_    0.055096 0.040899 0.366036 0.265432
O14   O     O_3   0.983699 0.539938 0.559387 -0.548235
C46   C     C_3   0.040409 0.674685 0.584192 0.192814
H16   H     H_    0.944582 0.762715 0.581159 0.117611
H17   H     H_    0.167031 0.725200 0.570017 0.198279
C47   C     C_3   0.050767 0.632022 0.637643 -0.336326
H18   H     H_    0.931984 0.566637 0.650988 0.243421
H19   H     H_    0.151827 0.552009 0.641285 0.275422
C48   C     C_3   0.087716 0.770889 0.670397 -1.049059
H20   H     H_    0.221156 0.818548 0.662079 0.273732
H21   H     H_    0.076777 0.732965 0.708795 0.277120
H22   H     H_    0.994772 0.860232 0.665741 0.266749
O15   O     O_3   0.769017 0.882415 0.877949 -0.577220
C49   C     C_3   0.930229 0.861264 0.853673 0.126872
H23   H     H_    0.916106 0.778604 0.822670 0.149540
H24   H     H_    0.021583 0.816736 0.878819 0.099447
C50   C     C_3   0.005088 0.017252 0.834310 -0.319568
H25   H     H_    0.903560 0.078687 0.817474 0.275848
H26   H     H_    0.052015 0.089444 0.865039 0.208505
C51   C     C_3   0.152402 0.997811 0.796313 -0.888667
H27   H     H_    0.244605 0.917508 0.809055 0.310783
H28   H     H_    0.220876 0.111827 0.789045 0.287435
H29   H     H_    0.101174 0.951916 0.761987 0.250247
O16   O     O_3   0.201135 0.126704 0.116710 -0.600948
C52   C     C_3   0.256644 0.974720 0.114798 0.080704
H30   H     H_    0.352526 0.962556 0.142476 0.208819
H31   H     H_    0.313540 0.943707 0.078257 0.139089
C53   C     C_3   0.101215 0.861886 0.125701 -0.291843
H32   H     H_    0.030722 0.897474 0.159866 0.278017
H33   H     H_    0.015448 0.864954 0.095149 0.223929
C54   C     C_3   0.151846 0.696592 0.130816 -0.913023
H34   H     H_    0.221710 0.658449 0.096938 0.261506
H35   H     H_    0.034499 0.618520 0.137402 0.284367
H36   H     H_    0.233531 0.688690 0.162089 0.260783
O17   O     O_3   0.381528 0.742810 0.353148 -0.644501
C55   C     C_3   0.481525 0.867365 0.330174 0.057241
H37   H     H_    0.459826 0.973391 0.352212 0.165327
H38   H     H_    0.436057 0.890071 0.293705 0.169736
C56   C     C_3   0.676429 0.844207 0.327026 -0.374520
H39   H     H_    0.720694 0.832850 0.364190 0.221000
H40   H     H_    0.704566 0.736839 0.306492 0.257299
C57   C     C_3   0.779061 0.977162 0.300839 -0.861090
H41   H     H_    0.727170 0.996680 0.264987 0.292637
H42   H     H_    0.914915 0.948132 0.294495 0.274771
H43   H     H_    0.775772 0.084265 0.323155 0.236538
O18   O     O_3   0.288996 0.301941 0.652905 -0.653203
C58   C     C_3   0.321145 0.147169 0.662577 0.075523
H44   H     H_    0.212704 0.076105 0.647965 0.157878
H45   H     H_    0.315751 0.122337 0.702060 0.167087
C59   C     C_3   0.487903 0.095797 0.636006 -0.395650
H46   H     H_    0.464757 0.976466 0.621424 0.189288
H47   H     H_    0.525849 0.172068 0.604702 0.240951
C60   C     C_3   0.636772 0.095208 0.669417 -0.789156
H48   H     H_    0.602486 0.016970 0.700561 0.286180
H49   H     H_    0.670721 0.213379 0.683258 0.277066
H50   H     H_    0.751277 0.052912 0.648799 0.238812
O19   O     O_3   0.677731 0.860631 0.137274 -0.748139
H51   H     H_    0.750065 0.938836 0.118319 0.337224
O20   O     O_3   0.462258 0.075666 0.866247 -0.667303
H52   H     H_    0.375196 0.008654 0.885015 0.326402
O21   O     O_3   0.655219 0.888965 0.035656 -0.773514
H53   H     H_    0.604428 0.966502 0.057894 0.350454
O22   O     O_3   0.479720 0.061728 0.968923 -0.772639
H54   H     H_    0.520490 0.979631 0.946777 0.381598
O23   O     O_3   0.738639 0.025174 0.508306 -0.791273
H55   H     H_    0.823530 0.945555 0.508880 0.350841
O24   O     O_3   0.268403 0.977674 0.523943 -0.812673
H56   H     H_    0.193708 0.057384 0.537690 0.344802

loop_
_geom_bond_atom_site_label_1
_geom_bond_atom_site_label_2
_ccdc_geom_bond_type
C31   O12   S    
C48   H20   S    
C29   O9    S    
C30   O10   S    
C8    C26   A    
C44   H11   S    
C14   C18   A    
C50   H25   S    
C34   C42   A    
C47   C48   S    
C60   H50   S    
N3    O13   S    
C59   H46   S    
C56   H40   S    
O24   H56   S    
C50   C51   S    
O19   H51   S    
C39   C41   A    
N3    N4    D    
C23   O5    A    
C22   O20   S    
C28   O24   S    
O8    Zn1   S    
C45   H14   S    
C35   O18   S    
C19   C21   A    
C47   H19   S    
C26   H8    S    
C9    C22   A    
C53   H32   S    
O23   H55   S    
C3    C18   A    
C11   C37   A    
N3    Zn2   S    
C32   N2    A    
C54   H35   S    
O5    Zn1   S    
C48   H22   S    
C58   C59   S    
C27   O23   S    
C45   H15   S    
C43   H9    S    
C12   C36   A    
N4    O14   S    
C57   H43   S    
C39   H3    S    
C40   C42   A    
C44   H12   S    
O16   C52   S    
C36   O17   S    
C46   H17   S    
C57   H42   S    
C55   H37   S    
C5    C29   A    
C10   C21   A    
C43   H10   S    
C13   C19   A    
C14   C20   A    
C45   H13   S    
C4    C6    A    
C56   C57   S    
O15   C49   S    
C5    C7    A    
C15   C26   A    
C6    C8    A    
N4    Zn1   S    
C3    C5    A    
O2    Zn2   S    
C49   C50   S    
C46   H16   S    
C37   H1    S    
C40   H4    S    
C38   H2    S    
C3    C9    A    
C1    O3    A    
C55   H38   S    
C24   O6    A    
C7    O15   S    
C43   C44   S    
C49   H24   S    
C52   H31   S    
C47   H18   S    
C4    C17   A    
C19   O21   S    
C6    C30   A    
C20   C22   A    
C51   H28   S    
C48   H21   S    
C58   H44   S    
C44   C45   S    
C54   H36   S    
O3    Zn2   S    
C4    C10   A    
C60   H48   S    
C59   C60   S    
C52   H30   S    
C46   C47   S    
C57   H41   S    
C1    C27   S    
O17   C55   S    
C29   N1    A    
C16   C25   A    
C15   C17   A    
C30   N2    A    
C50   H26   S    
C24   O8    A    
C20   O22   S    
C31   N1    A    
O14   C46   S    
C60   H49   S    
C59   H47   S    
O1    Zn1   S    
O21   H53   S    
C2    O4    A    
C51   H29   S    
O20   H52   S    
C12   C24   S    
C7    C25   A    
C13   C17   A    
C33   C41   A    
C11   C35   A    
C1    O1    A    
C37   C39   A    
C2    O2    A    
C56   H39   S    
C38   C40   A    
O7    Zn2   S    
C53   H33   S    
C11   C23   S    
C49   H23   S    
C33   C35   A    
C41   N1    S    
C52   C53   S    
C34   C36   A    
C12   C38   A    
O13   C43   S    
C25   H7    S    
C55   C56   S    
C9    C31   A    
C10   C32   A    
O4    Zn1   S    
C23   O7    A    
O6    Zn2   S    
C16   C18   A    
C51   H27   S    
C13   C16   A    
C54   H34   S    
C27   C28   D    
C58   H45   S    
C33   H6    S    
C14   C15   A    
C32   O11   S    
C2    C28   S    
C34   H5    S    
O22   H54   S    
C8    O16   S    
C21   O19   S    
C42   N2    S    
O18   C58   S    
C53   C54   S    
