data_str_m3_o41_o41_f0_fof.sym.66
_audit_creation_date              2013-03-05T15:41:18-0500
_audit_creation_method            fapswitch 2.2
_symmetry_space_group_name_H-M    P1
_symmetry_Int_Tables_number       1
_space_group_crystal_system       triclinic
_cell_length_a                    16.875741
_cell_length_b                    16.472346
_cell_length_c                    16.898351
_cell_angle_alpha                 65.498522
_cell_angle_beta                  66.06732
_cell_angle_gamma                 65.769634
_cell_volume                      3737.66260248

loop_
_atom_site_label
_atom_site_type_symbol
_atom_site_description
_atom_site_fract_x
_atom_site_fract_y
_atom_site_fract_z
_atom_type_partial_charge
O1    O     O_R   0.982940 0.138950 0.510160 -0.650811
O2    O     O_R   0.017060 0.861050 0.489840 -0.640886
O3    O     O_R   0.138950 0.510160 0.982940 -0.661888
O4    O     O_R   0.861050 0.489840 0.017060 -0.642589
O5    O     O_R   0.510160 0.982940 0.138950 -0.659276
O6    O     O_R   0.489840 0.017060 0.861050 -0.660577
O7    O     O_R   0.489840 0.861050 0.017060 -0.655215
O8    O     O_R   0.510160 0.138950 0.982940 -0.627551
O9    O     O_R   0.017060 0.489840 0.861050 -0.644402
O10   O     O_R   0.982940 0.510160 0.138950 -0.650957
O11   O     O_R   0.861050 0.017060 0.489840 -0.676751
O12   O     O_R   0.138950 0.982940 0.510160 -0.671759
C1    C     C_R   0.308853 0.009886 0.440354 -0.125204
C2    C     C_R   0.703233 0.961357 0.571198 -0.006974
C3    C     C_R   0.004950 0.429099 0.313446 -0.109390
C4    C     C_R   0.058675 0.535795 0.673912 -0.095042
C5    C     C_R   0.464851 0.335437 0.924458 0.017548
C6    C     C_R   0.538838 0.670045 0.060670 -0.102975
C7    C     C_R   0.570392 0.962465 0.703056 -0.110450
C8    C     C_R   0.441289 0.009132 0.308605 -0.012216
C9    C     C_R   0.685761 0.573489 0.994096 -0.115988
C10   C     C_R   0.326147 0.465646 0.939376 -0.088416
C11   C     C_R   0.076816 0.665367 0.534758 0.028686
C12   C     C_R   0.939985 0.330100 0.460514 -0.094266
O13   O     O_R   0.867700 0.025880 0.612340 -0.584126
O14   O     O_R   0.132300 0.974120 0.387660 -0.558891
O15   O     O_R   0.025880 0.612340 0.867700 -0.592241
O16   O     O_R   0.974120 0.387660 0.132300 -0.573054
O17   O     O_R   0.612340 0.867700 0.025880 -0.606809
O18   O     O_R   0.387660 0.132300 0.974120 -0.605857
O19   O     O_R   0.387660 0.974120 0.132300 -0.592781
O20   O     O_R   0.612340 0.025880 0.867700 -0.558899
O21   O     O_R   0.132300 0.387660 0.974120 -0.576666
O22   O     O_R   0.867700 0.612340 0.025880 -0.592632
O23   O     O_R   0.974120 0.132300 0.387660 -0.580471
O24   O     O_R   0.025880 0.867700 0.612340 -0.623366
C13   C     C_R   0.958460 0.179935 0.439604 0.873544
C14   C     C_R   0.041028 0.819724 0.560982 0.952991
C15   C     C_R   0.179912 0.438740 0.959789 0.882376
C16   C     C_R   0.822065 0.569055 0.024083 0.913789
C17   C     C_R   0.430212 0.984711 0.174400 0.925204
C18   C     C_R   0.574370 0.998308 0.834237 0.955680
C19   C     C_R   0.560188 0.820028 0.041894 0.856415
C20   C     C_R   0.438924 0.180485 0.959354 0.982470
C21   C     C_R   0.038935 0.562043 0.820046 0.895383
C22   C     C_R   0.975563 0.431201 0.177894 0.911703
C23   C     C_R   0.835020 0.996905 0.574756 0.965750
C24   C     C_R   0.173889 0.986248 0.429638 0.952467
C25   C     C_R   0.401742 0.002937 0.401266 0.027520
C26   C     C_R   0.610892 0.965573 0.611132 0.047166
C27   C     C_R   0.979775 0.403602 0.408929 0.067644
C28   C     C_R   0.058710 0.578573 0.582139 0.050705
C29   C     C_R   0.417658 0.422732 0.940690 0.050502
C30   C     C_R   0.590378 0.597840 0.019944 0.068908
C31   C     C_R   0.261488 0.004308 0.389369 -0.230586
C32   C     C_R   0.749185 0.973168 0.619238 -0.193379
C33   C     C_R   0.970867 0.393809 0.272820 -0.241517
C34   C     C_R   0.065866 0.587705 0.720410 -0.232865
C35   C     C_R   0.412684 0.283226 0.928379 -0.215548
C36   C     C_R   0.587048 0.718207 0.069429 -0.250462
C37   C     C_R   0.618623 0.974400 0.748752 -0.261730
C38   C     C_R   0.390058 0.004226 0.261052 -0.197448
C39   C     C_R   0.726914 0.607294 0.028773 -0.249128
C40   C     C_R   0.279576 0.413449 0.932443 -0.242204
C41   C     C_R   0.074314 0.717075 0.586529 -0.187010
C42   C     C_R   0.931325 0.281813 0.412553 -0.259969
Zn1   Zn    Zn3+2 0.004880 0.004880 0.583590 0.965503
Zn2   Zn    Zn3+2 0.995120 0.995120 0.416410 0.952298
Zn3   Zn    Zn3+2 0.004880 0.583590 0.004880 0.971640
Zn4   Zn    Zn3+2 0.995120 0.416410 0.995120 1.018634
Zn5   Zn    Zn3+2 0.583590 0.004880 0.004880 0.933933
Zn6   Zn    Zn3+2 0.416410 0.995120 0.995120 0.987709
C43   C     C_R   0.485919 0.941569 0.746521 -0.033984
C44   C     C_R   0.526988 0.027931 0.266563 -0.049572
C45   C     C_R   0.101031 0.694484 0.437858 -0.072746
C46   C     C_R   0.913152 0.305751 0.556850 -0.030375
C47   C     C_R   0.735227 0.518224 0.933632 -0.052122
C48   C     C_R   0.287480 0.560630 0.940639 -0.006597
C49   C     C_R   0.266195 0.032348 0.523979 -0.031104
C50   C     C_R   0.746537 0.941120 0.486630 -0.050334
C51   C     C_R   0.561870 0.307172 0.899590 -0.074745
C52   C     C_R   0.442429 0.694142 0.086972 -0.020363
C53   C     C_R   0.063286 0.487618 0.263713 -0.047647
C54   C     C_R   0.055449 0.441309 0.713605 -0.001950
C55   C     C_R   0.298229 0.016921 0.297656 0.429605
C56   C     C_R   0.710075 0.967795 0.710264 0.389365
C57   C     C_R   0.925724 0.326649 0.325238 0.412863
C58   C     C_R   0.088299 0.670527 0.671734 0.373786
C59   C     C_R   0.328488 0.329687 0.912145 0.364820
C60   C     C_R   0.674780 0.673791 0.074262 0.412005
H1    H     H_    0.301677 0.971922 0.800872 0.196880
H2    H     H_    0.710163 0.997572 0.211191 0.120512
H3    H     H_    0.132323 0.733637 0.253959 0.155309
H4    H     H_    0.922064 0.238169 0.732432 0.177721
H5    H     H_    0.818234 0.362162 0.878035 0.166700
H6    H     H_    0.201185 0.703730 0.016246 0.165127
H7    H     H_    0.209462 0.004469 0.707426 0.194287
H8    H     H_    0.803558 0.962749 0.304522 0.119224
H9    H     H_    0.746144 0.272994 0.862784 0.156493
H10   H     H_    0.267148 0.762093 0.075947 0.178525
H11   H     H_    0.114810 0.646860 0.181495 0.162823
H12   H     H_    0.976995 0.298451 0.799898 0.180094
C61   C     C_R   0.693720 0.962342 0.429812 0.017514
C62   C     C_R   0.319367 0.006048 0.582380 0.084988
C63   C     C_R   0.015607 0.408518 0.678032 0.150411
C64   C     C_R   0.065488 0.545328 0.305427 0.101146
C65   C     C_R   0.400720 0.660950 0.052928 0.136397
C66   C     C_R   0.607197 0.355505 0.912107 0.031694
C67   C     C_R   0.584477 0.001275 0.320356 0.007124
C68   C     C_R   0.428896 0.963734 0.693215 0.074439
C69   C     C_R   0.322582 0.593098 0.981211 0.163739
C70   C     C_R   0.694174 0.460157 0.930653 0.099812
C71   C     C_R   0.946454 0.339440 0.598651 0.132292
C72   C     C_R   0.086315 0.647758 0.392694 0.030567
C73   C     C_R   0.732171 0.969537 0.336898 -0.196602
C74   C     C_R   0.281021 0.997295 0.675550 -0.143190
C75   C     C_R   0.980934 0.331650 0.728834 -0.123085
C76   C     C_R   0.098191 0.623318 0.254723 -0.111773
C77   C     C_R   0.309183 0.701630 0.052747 -0.113859
C78   C     C_R   0.702632 0.331423 0.888607 -0.223750
C79   C     C_R   0.677896 0.991430 0.282500 -0.202211
C80   C     C_R   0.335064 0.975138 0.730333 -0.150475
C81   C     C_R   0.271599 0.669884 0.015239 -0.105012
C82   C     C_R   0.745069 0.383788 0.896312 -0.112581
C83   C     C_R   0.945398 0.298906 0.690434 -0.133995
C84   C     C_R   0.107384 0.674265 0.297343 -0.223696
C85   C     C_R   0.546404 0.988595 0.414165 0.044576
C86   C     C_R   0.467239 0.975549 0.599415 -0.003503
C87   C     C_R   0.985206 0.413841 0.546314 0.006334
C88   C     C_R   0.052453 0.569807 0.443958 0.050835
C89   C     C_R   0.412138 0.548473 0.985730 0.004748
C90   C     C_R   0.599212 0.480952 0.960724 0.003195
C91   C     C_R   0.599788 0.974675 0.467690 0.044105
C92   C     C_R   0.413693 0.990618 0.545505 0.006793
C93   C     C_R   0.453236 0.587303 0.013888 0.001259
C94   C     C_R   0.555890 0.432847 0.946011 0.049968
C95   C     C_R   0.012635 0.452975 0.587800 0.008526
C96   C     C_R   0.037150 0.522308 0.400500 0.000412
C97   C     C_R   0.453695 0.995335 0.453367 -0.025489
C98   C     C_R   0.559765 0.969932 0.559898 -0.028957
C99   C     C_R   0.999368 0.447460 0.452139 -0.027495
C100  C     C_R   0.041428 0.533889 0.537766 -0.011940
C101  C     C_R   0.462088 0.467824 0.957429 -0.016415
C102  C     C_R   0.547338 0.554407 0.999668 -0.024396
O25   O     O_3   0.242572 0.042362 0.244012 -0.605550
C103  C     C_3   0.233419 0.136533 0.188975 0.177587
H13   H     H_    0.198476 0.149210 0.139813 0.155373
H14   H     H_    0.299864 0.149870 0.146747 0.147116
C104  C     C_3   0.175346 0.206502 0.243831 -0.440792
H15   H     H_    0.131849 0.266744 0.203854 0.193797
H16   H     H_    0.130033 0.174397 0.308141 0.239227
C105  C     C_3   0.232798 0.242824 0.264395 -0.866852
H17   H     H_    0.279725 0.185465 0.302120 0.272157
H18   H     H_    0.187854 0.289866 0.306965 0.252133
H19   H     H_    0.273132 0.281911 0.200326 0.289159
O26   O     O_3   0.760909 0.960380 0.761321 -0.578588
C106  C     C_3   0.795060 0.864982 0.806250 0.119105
H20   H     H_    0.847064 0.827554 0.756587 0.137655
H21   H     H_    0.739917 0.830575 0.844373 0.073714
C107  C     C_3   0.837443 0.855887 0.875256 -0.327016
H22   H     H_    0.787107 0.897645 0.921606 0.232498
H23   H     H_    0.855638 0.781790 0.916556 0.210992
C108  C     C_3   0.922625 0.888076 0.829697 -0.739851
H24   H     H_    0.975653 0.842893 0.787899 0.289692
H25   H     H_    0.949264 0.882886 0.882399 0.216344
H26   H     H_    0.907314 0.961678 0.786301 0.276972
O27   O     O_3   0.891791 0.293074 0.286457 -0.606162
C109  C     C_3   0.795777 0.319222 0.317750 0.065121
H27   H     H_    0.770317 0.347239 0.257550 0.170998
H28   H     H_    0.764990 0.375777 0.350885 0.105630
C110  C     C_3   0.763331 0.233741 0.382557 -0.299983
H29   H     H_    0.796987 0.176450 0.350719 0.247834
H30   H     H_    0.781724 0.209638 0.446348 0.208354
C111  C     C_3   0.660856 0.255653 0.406062 -0.949577
H31   H     H_    0.625585 0.311881 0.439239 0.266783
H32   H     H_    0.640107 0.192235 0.453541 0.274960
H33   H     H_    0.640234 0.277842 0.343844 0.267067
O28   O     O_3   0.118469 0.707372 0.711106 -0.633089
C112  C     C_3   0.203559 0.723501 0.655389 0.131018
H34   H     H_    0.223158 0.753581 0.690076 0.201916
H35   H     H_    0.198821 0.776974 0.589098 0.156094
C113  C     C_3   0.279178 0.633911 0.639702 -0.434375
H36   H     H_    0.278628 0.576715 0.704521 0.202672
H37   H     H_    0.267848 0.610935 0.592908 0.235841
C114  C     C_3   0.372202 0.650436 0.597807 -0.880459
H38   H     H_    0.374604 0.706835 0.532159 0.275066
H39   H     H_    0.425002 0.585545 0.585403 0.263734
H40   H     H_    0.387197 0.670128 0.644525 0.266268
O29   O     O_3   0.293579 0.291868 0.878305 -0.605504
C115  C     C_3   0.347580 0.293211 0.787685 0.074069
H41   H     H_    0.420655 0.282364 0.776142 0.176561
H42   H     H_    0.322558 0.362180 0.740309 0.111023
C116  C     C_3   0.343045 0.216218 0.762647 -0.296023
H43   H     H_    0.355994 0.148890 0.816389 0.264957
H44   H     H_    0.274939 0.232245 0.757116 0.250536
C117  C     C_3   0.412106 0.206173 0.672012 -0.929491
H45   H     H_    0.402949 0.274201 0.618085 0.260839
H46   H     H_    0.402441 0.155354 0.652160 0.274026
H47   H     H_    0.482204 0.180759 0.677654 0.283108
O30   O     O_3   0.714137 0.707492 0.107469 -0.617574
C118  C     C_3   0.684906 0.679239 0.203611 0.076252
H48   H     H_    0.745828 0.652905 0.227562 0.170266
H49   H     H_    0.653760 0.620815 0.234542 0.106167
C119  C     C_3   0.618808 0.762725 0.237927 -0.312262
H50   H     H_    0.648831 0.821696 0.204517 0.243278
H51   H     H_    0.554677 0.785266 0.220630 0.198657
C120  C     C_3   0.596956 0.738516 0.340510 -0.949484
H52   H     H_    0.565874 0.680340 0.375564 0.266383
H53   H     H_    0.548262 0.800279 0.362854 0.272906
H54   H     H_    0.659509 0.718153 0.359935 0.269527
C121  C     C_2   0.474044 0.871455 0.838146 0.474330
H55   H     H_    0.530385 0.836513 0.867363 0.055856
O31   O     O_2   0.404730 0.848168 0.879848 -0.604332
C122  C     C_2   0.541984 0.102830 0.178566 0.501468
H56   H     H_    0.609438 0.108486 0.138271 0.014793
O32   O     O_2   0.477681 0.162140 0.152167 -0.590545
C123  C     C_2   0.155614 0.761600 0.384325 0.528719
H57   H     H_    0.143855 0.813844 0.321744 0.076709
O33   O     O_2   0.214669 0.758927 0.410347 -0.589967
C124  C     C_2   0.840350 0.258160 0.610318 0.454922
H58   H     H_    0.819865 0.227442 0.578870 0.082191
O34   O     O_2   0.797113 0.258704 0.688112 -0.610075
C125  C     C_2   0.814341 0.543359 0.857291 0.463938
H59   H     H_    0.841797 0.593259 0.855597 0.043097
O35   O     O_2   0.844913 0.515463 0.791243 -0.588419
C126  C     C_2   0.231705 0.629917 0.877944 0.417611
H60   H     H_    0.211693 0.606424 0.839893 0.101708
O36   O     O_2   0.210782 0.713777 0.864714 -0.602557
C127  C     C_2   0.179408 0.109944 0.531984 0.463205
H61   H     H_    0.149386 0.144755 0.476112 0.080780
O37   O     O_2   0.142691 0.139119 0.597738 -0.603499
C128  C     C_2   0.838520 0.873545 0.471042 0.483680
H62   H     H_    0.883255 0.874942 0.403264 0.024403
O38   O     O_2   0.863538 0.812004 0.535254 -0.592762
C129  C     C_2   0.615532 0.239501 0.846259 0.540343
H63   H     H_    0.677728 0.187529 0.859058 0.071621
O39   O     O_2   0.590258 0.241477 0.787071 -0.582105
C130  C     C_2   0.388705 0.741406 0.159483 0.460154
H64   H     H_    0.420190 0.771587 0.180575 0.072570
O40   O     O_2   0.310536 0.741283 0.201728 -0.613504
C131  C     C_2   0.138894 0.467712 0.182372 0.435722
H65   H     H_    0.140552 0.421494 0.151043 0.077038
O41   O     O_2   0.205141 0.495197 0.154336 -0.597718
C132  C     C_2   0.116269 0.372909 0.771349 0.428519
H66   H     H_    0.166142 0.394468 0.776492 0.074035
O42   O     O_2   0.110926 0.293978 0.814653 -0.602727

loop_
_geom_bond_atom_site_label_1
_geom_bond_atom_site_label_2
_geom_bond_distance
_ccdc_geom_bond_type
H5    C82   1.080567 S    
C48   C126  1.495102 S    
C24   C31   1.453904 S    
C2    C32   1.436596 A    
C95   C100  1.411035 A    
C1    C49   1.428893 A    
O9    C21   1.224862 A    
C106  H20   1.114494 S    
C73   C79   1.396788 A    
C3    C33   1.437310 A    
C118  H48   1.111273 S    
C66   C78   1.412889 A    
O11   C23   1.255152 A    
C108  H24   1.109130 S    
O13   Zn1   2.069918 S    
C12   C42   1.427272 A    
C110  H29   1.111721 S    
O18   C20   1.290313 A    
C77   C81   1.396711 A    
C44   C67   1.412494 A    
C124  O34   1.219358 D    
O28   C112  1.424008 S    
C11   C28   1.410356 A    
O24   Zn1   2.009869 S    
C43   C68   1.418737 A    
O6    Zn6   2.051750 S    
C15   C40   1.473052 S    
C110  H30   1.109641 S    
O16   C22   1.263533 A    
C115  H41   1.115181 S    
C16   C39   1.445478 S    
C71   C87   1.414734 A    
O22   C16   1.260963 A    
H11   C76   1.081649 S    
C40   C59   1.389505 A    
O26   C106  1.414215 S    
O23   C13   1.291847 A    
C55   O25   1.390027 S    
C70   C82   1.404006 A    
C94   C101  1.403855 A    
O2    Zn2   1.995664 S    
C104  H16   1.107459 S    
O27   C109  1.418267 S    
C9    C30   1.409818 A    
C72   C84   1.411505 A    
C122  O32   1.221528 D    
C64   C96   1.404923 A    
C71   C83   1.407165 A    
C45   C123  1.489758 S    
C20   C35   1.473905 S    
C113  H37   1.111462 S    
C4    C54   1.431550 A    
C132  H66   1.082734 S    
C131  H65   1.079551 S    
C35   C59   1.389026 A    
C56   O26   1.386475 S    
H3    C84   1.078831 S    
C49   C127  1.497730 S    
C65   C93   1.413966 A    
C115  C116  1.531115 S    
O1    Zn1   1.995664 S    
H9    C78   1.078988 S    
C62   C74   1.407140 A    
C67   C85   1.406611 A    
C109  C110  1.532687 S    
C57   O27   1.388638 S    
O4    C16   1.228831 A    
O30   C118  1.417913 S    
C116  H44   1.103204 S    
H1    C80   1.080900 S    
O10   C22   1.223408 A    
C120  H54   1.110762 S    
C129  H63   1.083695 S    
C105  H19   1.110699 S    
C48   C69   1.414461 A    
O17   Zn5   2.010510 S    
O7    C19   1.246048 A    
O20   Zn5   2.070958 S    
O13   C23   1.298833 A    
O15   Zn3   2.069831 S    
O12   C24   1.231281 A    
C112  C113  1.542998 S    
O15   C21   1.281812 A    
C12   C27   1.411980 A    
C109  H28   1.118333 S    
C51   C66   1.426362 A    
O3    C15   1.228720 A    
C90   C102  1.409654 A    
C106  H21   1.116186 S    
C64   C76   1.405149 A    
C8    C38   1.440339 A    
C72   C88   1.415543 A    
C63   C75   1.407688 A    
O29   C115  1.425545 S    
C85   C97   1.405873 A    
C17   C38   1.453704 S    
C50   C128  1.487016 S    
C117  H47   1.111587 S    
C65   C77   1.409898 A    
C124  H58   1.083327 S    
O12   Zn1   2.052408 S    
C127  H61   1.085115 S    
C47   C125  1.493801 S    
O25   C103  1.420693 S    
C10   C29   1.415575 A    
C103  H14   1.112573 S    
C27   C99   1.412054 A    
O20   C18   1.297106 A    
C21   C34   1.471927 S    
C110  C111  1.525752 S    
C130  O40   1.219338 D    
O4    Zn4   2.040742 S    
C9    C39   1.433202 A    
C50   C61   1.413754 A    
C69   C81   1.406891 A    
C120  H52   1.110867 S    
C107  C108  1.526255 S    
C85   C91   1.414853 A    
C7    C43   1.426077 A    
C108  H26   1.110665 S    
O9    Zn4   2.036419 S    
C10   C48   1.432708 A    
C125  H59   1.083262 S    
C117  H46   1.108720 S    
C104  C105  1.529919 S    
C11   C45   1.429992 A    
C42   C57   1.372380 A    
C45   C72   1.426351 A    
C122  H56   1.083387 S    
C12   C46   1.423191 A    
C87   C99   1.401956 A    
C3    C53   1.428423 A    
C123  H57   1.083302 S    
C63   C95   1.403372 A    
C28   C100  1.414391 A    
C87   C95   1.415721 A    
C33   C57   1.385772 A    
C1    C31   1.440256 A    
C131  O41   1.219469 D    
C113  C114  1.526097 S    
C107  H23   1.109416 S    
C31   C55   1.374226 A    
C47   C70   1.417584 A    
C61   C73   1.407993 A    
C8    C25   1.408223 A    
C86   C92   1.415722 A    
C103  C104  1.539506 S    
O2    C14   1.249791 A    
C32   C56   1.385944 A    
C121  H55   1.083982 S    
C111  H33   1.110770 S    
C119  C120  1.525999 S    
C90   C94   1.417966 A    
C116  C117  1.528107 S    
C13   C42   1.462080 S    
C51   C129  1.489080 S    
C46   C71   1.423345 A    
C8    C44   1.429591 A    
C54   C132  1.492154 S    
H10   C77   1.080346 S    
O21   C15   1.280720 A    
C52   C65   1.425002 A    
C70   C90   1.405988 A    
H7    C74   1.081815 S    
C58   O28   1.390550 S    
C23   C32   1.467597 S    
C18   C37   1.467900 S    
O8    C20   1.248826 A    
H12   C75   1.079787 S    
C74   C80   1.397682 A    
O21   Zn4   2.069416 S    
C5    C35   1.430370 A    
C1    C25   1.407849 A    
C19   C36   1.461121 S    
C69   C89   1.401952 A    
C109  H27   1.111257 S    
C121  O31   1.219546 D    
C119  H51   1.109676 S    
C126  H60   1.080327 S    
C4    C34   1.443279 A    
C36   C60   1.376010 A    
C2    C50   1.426626 A    
C25   C97   1.415703 A    
C22   C33   1.440904 S    
C129  O39   1.221085 D    
C118  C119  1.532712 S    
C3    C27   1.410147 A    
C49   C62   1.418297 A    
O7    Zn6   1.999400 S    
C54   C63   1.414388 A    
C88   C96   1.419328 A    
C118  H49   1.118345 S    
C5    C29   1.409656 A    
C92   C97   1.405666 A    
C89   C101  1.408856 A    
O11   Zn2   2.052408 S    
C41   C58   1.388578 A    
C103  H13   1.110853 S    
H4    C83   1.080463 S    
C6    C36   1.427618 A    
O5    C17   1.227382 A    
C130  H64   1.083490 S    
O19   Zn6   2.070959 S    
O8    Zn5   1.999398 S    
C115  H42   1.111766 S    
O19   C17   1.293229 A    
H6    C81   1.082046 S    
O3    Zn3   2.040742 S    
C128  O38   1.221186 D    
O22   Zn3   2.069414 S    
C43   C121  1.492103 S    
O16   Zn4   2.069831 S    
C4    C28   1.412363 A    
C105  H18   1.109264 S    
C117  H45   1.111364 S    
C114  H40   1.111016 S    
C96   C99   1.410515 A    
C34   C58   1.386235 A    
O18   Zn6   2.010512 S    
C125  O35   1.219269 D    
C66   C94   1.413694 A    
O14   C24   1.293158 A    
C106  C107  1.528921 S    
C30   C102  1.410171 A    
C53   C131  1.494118 S    
C89   C93   1.414504 A    
C53   C64   1.417015 A    
O17   C19   1.289283 A    
O14   Zn2   2.069918 S    
C107  H22   1.111599 S    
C11   C41   1.432185 A    
O24   C14   1.290786 A    
C61   C91   1.408581 A    
O5    Zn5   2.051750 S    
C104  H15   1.108284 S    
C68   C80   1.408497 A    
C7    C26   1.408568 A    
C67   C79   1.406719 A    
C114  H38   1.111301 S    
C2    C26   1.409063 A    
O23   Zn2   2.009867 S    
C7    C37   1.436878 A    
C52   C130  1.496692 S    
C39   C60   1.386865 A    
C128  H62   1.083114 S    
C6    C52   1.425372 A    
C132  O42   1.219687 D    
H8    C73   1.081004 S    
C5    C51   1.432613 A    
C86   C98   1.406878 A    
C123  O33   1.221470 D    
C88   C100  1.403797 A    
C111  H32   1.111185 S    
C93   C102  1.401897 A    
C114  H39   1.110406 S    
C37   C56   1.386775 A    
C6    C30   1.410287 A    
C10   C40   1.443455 A    
C112  H34   1.109594 S    
O10   Zn3   2.036419 S    
C78   C82   1.396327 A    
C60   O30   1.388378 S    
C119  H50   1.111784 S    
C91   C98   1.406649 A    
C127  O37   1.220416 D    
C116  H43   1.108686 S    
O6    C18   1.251263 A    
C9    C47   1.423113 A    
C120  H53   1.110662 S    
C59   O29   1.390021 S    
C38   C55   1.375297 A    
C46   C124  1.497579 S    
C108  H25   1.110253 S    
C26   C98   1.415193 A    
C105  H17   1.105485 S    
C76   C84   1.394956 A    
C29   C101  1.413269 A    
H2    C79   1.081921 S    
C14   C41   1.473986 S    
C75   C83   1.393969 A    
C62   C92   1.407592 A    
C44   C122  1.492202 S    
C126  O36   1.220810 D    
C113  H36   1.109258 S    
C68   C86   1.408688 A    
O1    C13   1.245405 A    
C112  H35   1.110646 S    
C111  H31   1.110815 S    
