data_str_m2_o9_o16_f0_pcu.sym.217
_audit_creation_date              2013-03-05T16:48:11-0500
_audit_creation_method            fapswitch 2.2
_symmetry_space_group_name_H-M    P1
_symmetry_Int_Tables_number       1
_space_group_crystal_system       triclinic
_cell_length_a                    10.806789
_cell_length_b                    12.436343
_cell_length_c                    13.221682
_cell_angle_alpha                 117.030826
_cell_angle_beta                  75.237504
_cell_angle_gamma                 102.011749
_cell_volume                      1521.77958762

loop_
_atom_site_label
_atom_site_type_symbol
_atom_site_description
_atom_site_fract_x
_atom_site_fract_y
_atom_site_fract_z
_atom_type_partial_charge
O1    O     O_R   0.536940 0.972510 0.318130 -0.587938
O2    O     O_R   0.487330 0.806530 0.359650 -0.598656
C1    C     C_R   0.516663 0.854732 0.285225 0.769605
O3    O     O_R   0.705160 0.082990 0.479250 -0.593281
O4    O     O_R   0.655550 0.917010 0.520760 -0.588118
C2    C     C_R   0.736933 0.001680 0.502468 0.767568
Cu1   Cu    Cu3+1 0.529370 0.098270 0.475420 1.006267
Cu2   Cu    Cu3+1 0.470630 0.901730 0.524580 0.932662
O5    O     O_R   0.512670 0.193470 0.640350 -0.513803
O6    O     O_R   0.463060 0.027490 0.681870 -0.598923
O7    O     O_R   0.344450 0.082990 0.479240 -0.522979
O8    O     O_R   0.294840 0.917010 0.520750 -0.608067
C3    C     C_R   0.480616 0.144439 0.713733 0.814429
C4    C     C_R   0.262803 0.998475 0.498567 0.815139
H1    H     H_    0.525363 0.809960 0.850311 0.144373
C5    C     C_R   0.624490 0.964443 0.819398 -0.126777
H2    H     H_    0.560716 0.027344 0.887928 0.122909
C6    C     C_R   0.725896 0.005650 0.751300 -0.101247
H3    H     H_    0.738651 0.100312 0.766940 0.104667
C7    C     C_R   0.807432 0.923855 0.660578 0.122219
C8    C     C_R   0.788485 0.801286 0.641334 -0.152852
H4    H     H_    0.849516 0.736719 0.571036 0.139631
C9    C     C_R   0.687073 0.760552 0.709772 -0.144958
H5    H     H_    0.671508 0.665644 0.693392 0.166342
C10   C     C_R   0.604395 0.841822 0.798017 -0.114520
C11   C     C_R   0.034280 0.959944 0.572939 -0.236625
H6    H     H_    0.061545 0.931661 0.629988 0.148282
C12   C     C_R   0.128792 0.996231 0.496632 -0.054881
C13   C     C_R   0.093949 0.032757 0.421950 0.079209
C14   C     C_R   0.964662 0.034038 0.426854 -0.183056
H7    H     H_    0.936975 0.055002 0.365806 0.142846
C15   C     C_R   0.870380 0.002429 0.505529 -0.069876
C16   C     C_R   0.904698 0.963418 0.578994 0.003502
C17   C     C_R   0.219998 0.181826 0.339581 0.380292
C18   C     C_R   0.312806 0.201209 0.251374 -0.218218
H8    H     H_    0.340067 0.291644 0.255192 0.176481
C19   C     C_R   0.372370 0.104881 0.157890 -0.195764
H9    H     H_    0.443512 0.121533 0.090971 0.148226
C20   C     C_R   0.340360 0.987425 0.150550 -0.131416
H10   H     H_    0.385970 0.912711 0.077468 0.133531
C21   C     C_R   0.250422 0.966135 0.237775 -0.196245
H11   H     H_    0.227683 0.874358 0.231182 0.123216
C22   C     C_R   0.189565 0.062003 0.332785 0.000942
C23   C     C_R   0.314013 0.283476 0.022751 -0.198084
H12   H     H_    0.306076 0.103599 0.886272 0.145871
H13   H     H_    0.234647 0.472522 0.215898 0.168756
H14   H     H_    0.233704 0.259076 0.079552 0.146261
C24   C     C_R   0.455064 0.225701 0.836673 -0.055680
C25   C     C_R   0.630380 0.806033 0.078684 0.248399
C26   C     C_R   0.675021 0.715727 0.970222 -0.181280
C27   C     C_R   0.628351 0.595299 0.939523 -0.206664
C28   C     C_R   0.528353 0.558746 0.013254 0.090640
C29   C     C_R   0.478194 0.648932 0.122422 0.037103
C30   C     C_R   0.474755 0.435489 0.980480 0.102748
C31   C     C_R   0.369860 0.404293 0.055535 0.146198
C32   C     C_R   0.317691 0.494637 0.159742 -0.228735
C33   C     C_R   0.368494 0.615131 0.191162 -0.172257
C34   C     C_R   0.518509 0.342587 0.872805 -0.175161
C35   C     C_R   0.355889 0.194521 0.913273 -0.207227
C36   C     C_R   0.537035 0.771264 0.159560 -0.186285
H15   H     H_    0.598253 0.358417 0.811623 0.152629
H16   H     H_    0.671504 0.534178 0.854950 0.163331
H17   H     H_    0.748049 0.736577 0.906912 0.159290
H18   H     H_    0.317706 0.681797 0.268602 0.168147
C37   C     C_R   0.685097 0.339629 0.311667 -0.286110
H19   H     H_    0.727179 0.533446 0.273037 0.149347
H20   H     H_    0.756525 0.336202 0.236239 0.152972
N1    N     N_R   0.573890 0.246290 0.438210 -0.263042
C38   C     C_R   0.323135 0.761905 0.646414 0.071052
C39   C     C_R   0.273902 0.663351 0.672398 -0.276858
C40   C     C_R   0.333850 0.557171 0.613215 -0.017945
C41   C     C_R   0.448103 0.549350 0.530598 0.012610
C42   C     C_R   0.489625 0.651006 0.502142 0.287941
C43   C     C_R   0.519139 0.443884 0.470905 -0.120560
C44   C     C_R   0.615506 0.438726 0.374462 0.063714
C45   C     C_R   0.650025 0.536526 0.344952 -0.244506
C46   C     C_R   0.592756 0.642541 0.411047 -0.160369
C47   C     C_R   0.503480 0.345627 0.503973 0.439018
C48   C     C_R   0.670104 0.247918 0.347766 0.398627
N2    N     N_R   0.426890 0.754320 0.561170 -0.202041
H21   H     H_    0.275036 0.843631 0.691254 0.125232
H22   H     H_    0.284169 0.481390 0.630010 0.236904
H23   H     H_    0.187129 0.668088 0.736401 0.155850
H24   H     H_    0.631325 0.715963 0.387343 0.198009
N3    N     N_2   0.677086 0.930856 0.106298 -0.420628
H25   H     H_    0.605805 0.985818 0.129961 0.274544
C49   C     C_3   0.793244 0.961714 0.036277 -0.712763
H26   H     H_    0.819044 0.061312 0.072967 0.254163
H27   H     H_    0.778065 0.934090 0.947703 0.232169
H28   H     H_    0.874646 0.918273 0.033810 0.234852
N4    N     N_2   0.761361 0.161531 0.291870 -0.434215
H29   H     H_    0.738906 0.083120 0.302575 0.318670
C50   C     C_3   0.895476 0.210161 0.294102 -0.688730
H30   H     H_    0.924721 0.277610 0.256966 0.228535
H31   H     H_    0.957847 0.135853 0.240030 0.213628
H32   H     H_    0.912464 0.253455 0.384375 0.280565
N5    N     N_R   0.436221 0.362576 0.617458 0.113735
O9    O     O_R   0.325261 0.301746 0.632919 -0.331401
O10   O     O_R   0.479021 0.450132 0.706733 -0.425923
N6    N     N_R   0.159550 0.284042 0.433614 0.087088
O11   O     O_R   0.161675 0.382732 0.421642 -0.420459
O12   O     O_R   0.106554 0.282154 0.532927 -0.345814

loop_
_geom_bond_atom_site_label_1
_geom_bond_atom_site_label_2
_geom_bond_distance
_ccdc_geom_bond_type
C2    C15   1.450959 S    
C31   C32   1.392568 A    
C50   H30   1.108826 S    
C37   C48   1.390463 A    
C21   H11   1.083715 S    
C18   H8    1.082737 S    
C49   H26   1.107388 S    
N5    O9    1.300011 A    
Cu1   Cu2   2.718031 S    
C20   C21   1.394266 A    
N3    H25   1.029776 S    
Cu1   O7    1.957410 S    
C11   H6    1.084912 S    
C13   C14   1.385182 A    
C25   C36   1.427238 A    
C24   C35   1.398413 A    
C12   C13   1.411209 A    
C18   C19   1.395287 A    
C6    H3    1.083219 S    
C14   H7    1.075086 S    
O7    C4    1.300681 A    
H1    C10   1.082471 S    
C23   C35   1.393881 A    
C32   C33   1.388341 A    
C17   C18   1.408173 A    
O5    C3    1.308327 A    
Cu1   N1    2.048433 S    
C5    H2    1.081579 S    
C37   H20   1.083971 S    
C17   N6    1.443469 S    
C9    H5    1.082537 S    
C39   C40   1.390770 A    
C48   N4    1.421560 S    
C23   H14   1.083817 S    
C40   H22   1.069861 S    
C1    C36   1.492522 S    
C34   H15   1.074545 S    
C50   H31   1.110221 S    
C8    H4    1.083195 S    
C13   C22   1.484019 S    
C26   H17   1.079906 S    
C21   C22   1.405716 A    
C27   H16   1.074631 S    
O3    Cu1   1.963584 S    
N5    O10   1.301236 A    
C29   C36   1.427396 A    
C28   C30   1.423921 A    
N3    C49   1.452690 S    
N1    C47   1.392448 A    
C43   C44   1.411153 A    
C27   C28   1.409351 A    
C25   N3    1.431937 S    
C45   C46   1.379038 A    
C41   C43   1.449817 A    
N4    H29   1.019452 S    
C29   C33   1.413817 A    
C46   H24   1.068098 S    
O1    C1    1.310912 A    
C3    C24   1.460835 S    
C44   C45   1.392483 A    
C19   H9    1.081845 S    
N4    C50   1.451886 S    
C11   C16   1.390747 A    
Cu2   O8    1.963583 S    
H19   C45   1.084858 S    
C47   N5    1.429910 S    
N6    O12   1.300742 A    
C26   C27   1.378242 A    
C5    C6    1.398941 A    
C39   H23   1.082682 S    
C7    C16   1.483176 S    
O3    C2    1.309594 A    
O8    C4    1.303892 A    
C50   H32   1.111124 S    
C8    C9    1.398818 A    
C20   H10   1.082499 S    
C28   C29   1.420560 A    
C33   H18   1.080921 S    
C30   C34   1.405166 A    
C5    C10   1.397917 A    
Cu1   O5    1.931639 S    
C30   C31   1.419117 A    
H12   C35   1.083271 S    
O1    Cu1   1.946241 S    
O2    Cu2   1.931640 S    
C17   C22   1.423444 A    
C41   C42   1.432255 A    
O6    C3    1.302988 A    
O4    Cu2   1.957411 S    
C24   C34   1.390059 A    
C11   C12   1.400568 A    
C37   C44   1.382488 A    
C15   C16   1.415351 A    
C49   H27   1.106852 S    
O2    C1    1.313871 A    
C40   C41   1.411811 A    
C19   C20   1.393115 A    
C14   C15   1.392675 A    
C23   C31   1.404858 A    
O4    C2    1.295529 A    
N1    C48   1.375171 A    
N6    O11   1.301905 A    
C42   N2    1.378783 A    
C6    C7    1.405471 A    
C9    C10   1.397812 A    
C38   C39   1.386186 A    
C38   H21   1.081582 S    
C7    C8    1.405104 A    
Cu2   O6    1.946240 S    
C25   C26   1.399855 A    
C43   C47   1.440423 A    
C49   H28   1.110852 S    
H13   C32   1.084252 S    
Cu2   N2    2.036459 S    
C42   C46   1.397635 A    
C38   N2    1.356376 A    
C4    C12   1.449213 S    
