data_str_m2_o9_o18_f0_pcu.sym.270
_audit_creation_date              2012-12-10T19:45:47-0500
_audit_creation_method            fapswitch 2.2
_symmetry_space_group_name_H-M    P1
_symmetry_Int_Tables_number       1
_space_group_crystal_system       triclinic
_cell_length_a                    10.782026
_cell_length_b                    14.634227
_cell_length_c                    14.770128
_cell_angle_alpha                 64.661721
_cell_angle_beta                  103.544117
_cell_angle_gamma                 101.640689
_cell_volume                      2034.02577853

loop_
_atom_site_label
_atom_site_type_symbol
_atom_type_description
_atom_site_fract_x
_atom_site_fract_y
_atom_site_fract_z
_atom_type_partial_charge
C1    C     C_R   0.475485 0.120140 0.312380 0.793195
C2    C     C_R   0.625705 0.780748 0.971207 -0.221011
C3    C     C_R   0.367877 0.155865 0.133075 -0.215174
C4    C     C_R   0.613287 0.846251 0.868939 -0.198151
C5    C     C_R   0.483235 0.293623 0.179460 -0.239371
C6    C     C_R   0.462903 0.718197 0.826221 -0.280310
C7    C     C_R   0.437507 0.366399 0.083944 0.086621
C8    C     C_R   0.483665 0.646974 0.927347 0.091031
C9    C     C_R   0.359969 0.331033 0.010975 0.171880
C10   C     C_R   0.564331 0.680755 0.000609 0.159121
C11   C     C_R   0.469800 0.472825 0.058338 0.062067
C12   C     C_R   0.521569 0.880393 0.687661 0.792532
C13   C     C_R   0.433439 0.542356 0.956550 0.067945
C14   C     C_R   0.353513 0.503981 0.886650 -0.236117
C15   C     C_R   0.538094 0.511992 0.130942 -0.225483
C16   C     C_R   0.263468 0.997782 0.504960 0.784101
C17   C     C_R   0.736587 0.999957 0.498075 0.793489
C18   C     C_R   0.316986 0.400404 0.913906 -0.237678
C19   C     C_R   0.584879 0.614061 0.102185 -0.226424
C20   C     C_R   0.756158 0.302086 0.627641 -0.321499
C21   C     C_R   0.297287 0.727786 0.318748 -0.325681
C22   C     C_R   0.701017 0.210687 0.619272 -0.014146
C23   C     C_R   0.869699 0.997579 0.498526 -0.066756
C24   C     C_R   0.320741 0.801453 0.358772 -0.013704
C25   C     C_R   0.517111 0.288166 0.510208 0.592542
C26   C     C_R   0.491703 0.717323 0.482650 0.581576
C27   C     C_R   0.575067 0.385986 0.507591 -0.101844
C28   C     C_R   0.478816 0.644324 0.439051 -0.123946
C29   C     C_R   0.693914 0.389938 0.572007 0.109626
C30   C     C_R   0.374998 0.648714 0.358921 0.115387
C31   C     C_R   0.515916 0.478362 0.449246 0.083936
C32   C     C_R   0.559537 0.564211 0.474998 0.052880
C33   C     C_R   0.682905 0.567117 0.533533 -0.209748
C34   C     C_R   0.129386 0.995746 0.507771 -0.081920
C35   C     C_R   0.417415 0.489387 0.364804 -0.177807
C36   C     C_R   0.749303 0.481640 0.580398 -0.205421
C37   C     C_R   0.349756 0.574103 0.319409 -0.208655
C38   C     C_R   0.308817 0.911203 0.840330 -0.126860
C39   C     C_R   0.648494 0.001965 0.196133 -0.116483
C40   C     C_R   0.244627 0.921901 0.742843 -0.115101
C41   C     C_R   0.740080 0.026807 0.268996 -0.124932
C42   C     C_R   0.173027 0.004162 0.682663 0.098380
C43   C     C_R   0.815703 0.953195 0.344784 0.116908
C44   C     C_R   0.165810 0.074224 0.722882 -0.198042
C45   C     C_R   0.908565 0.976971 0.425337 -0.005369
C46   C     C_R   0.799088 0.854874 0.346242 -0.124184
C47   C     C_R   0.234104 0.065330 0.818587 -0.134528
C48   C     C_R   0.706814 0.830185 0.273668 -0.144785
C49   C     C_R   0.305505 0.983670 0.877431 -0.114200
C50   C     C_R   0.631487 0.903644 0.198718 -0.117001
C51   C     C_R   0.958815 0.012153 0.577762 -0.218063
C52   C     C_R   0.038920 0.978186 0.429751 -0.223235
C53   C     C_3   0.536532 0.630004 0.654209 0.054718
C54   C     C_3   0.641950 0.614621 0.746520 -0.752506
C55   C     C_3   0.311472 0.244530 0.542187 0.111325
C56   C     C_R   0.088725 0.007598 0.586134 -0.017250
C57   C     C_3   0.273815 0.333968 0.553414 -0.904928
C58   C     C_R   0.445226 0.189669 0.205635 -0.055355
C59   C     C_R   0.533319 0.814222 0.795925 -0.058750
C60   C     C_R   0.326579 0.226248 0.035820 -0.201036
Cu1   Cu    Cu3+1 0.466270 0.918260 0.475690 0.975034
Cu2   Cu    Cu3+1 0.533730 0.081740 0.524310 0.960435
H1    H     H_    0.356071 0.975352 0.952602 0.117152
H2    H     H_    0.753187 0.144774 0.657856 0.144613
H3    H     H_    0.848516 0.304547 0.675791 0.145745
H4    H     H_    0.219579 0.733395 0.255626 0.149177
H5    H     H_    0.730945 0.635760 0.542295 0.195812
H6    H     H_    0.392896 0.433992 0.331396 0.193564
H7    H     H_    0.358841 0.845511 0.888413 0.152019
H8    H     H_    0.590253 0.058792 0.137951 0.129182
H9    H     H_    0.245855 0.863658 0.716351 0.101321
H10   H     H_    0.751336 0.102865 0.266980 0.102731
H11   H     H_    0.106651 0.135658 0.680094 0.121538
H12   H     H_    0.559984 0.884379 0.142680 0.121037
H13   H     H_    0.855915 0.796999 0.404634 0.122547
H14   H     H_    0.229298 0.120538 0.847952 0.118806
H15   H     H_    0.693244 0.753966 0.275860 0.129156
H16   H     H_    0.925184 0.020938 0.637023 0.141425
H17   H     H_    0.070072 0.966001 0.371433 0.145269
H18   H     H_    0.256680 0.374305 0.857714 0.136595
H19   H     H_    0.641127 0.640225 0.159568 0.141033
H20   H     H_    0.393732 0.701260 0.768684 0.135186
H21   H     H_    0.549260 0.315651 0.235559 0.149790
H22   H     H_    0.666132 0.921622 0.846964 0.153235
H23   H     H_    0.266673 0.198891 0.980485 0.123259
H24   H     H_    0.337036 0.075587 0.152089 0.148128
H25   H     H_    0.511717 0.556647 0.644953 0.130994
H26   H     H_    0.448825 0.646671 0.668124 0.145256
H27   H     H_    0.672350 0.686573 0.757909 0.257936
H28   H     H_    0.606650 0.554668 0.815368 0.211916
H29   H     H_    0.726481 0.590520 0.735326 0.231720
H30   H     H_    0.355545 0.190530 0.617741 0.158612
H31   H     H_    0.220977 0.203850 0.517176 0.187514
H32   H     H_    0.229507 0.388099 0.478781 0.271646
H33   H     H_    0.202183 0.305768 0.605172 0.208589
H34   H     H_    0.687279 0.806907 0.026900 0.137356
H35   H     H_    0.358167 0.373235 0.587172 0.242206
H36   H     H_    0.317484 0.551642 0.809557 0.133779
H37   H     H_    0.557799 0.465726 0.211101 0.144076
H38   H     H_    0.842780 0.486413 0.626469 0.139671
H39   H     H_    0.273520 0.579074 0.255462 0.147499
H40   H     H_    0.264440 0.865000 0.324195 0.141797
N1    N     N_R   0.584450 0.204570 0.560790 -0.223549
N2    N     N_R   0.415550 0.795430 0.439210 -0.207261
O1    O     O_R   0.455540 0.022090 0.338120 -0.588009
O2    O     O_3   0.390113 0.275530 0.467009 -0.599295
O3    O     O_R   0.544460 0.977910 0.661880 -0.590890
O4    O     O_R   0.512510 0.160150 0.379180 -0.561859
O5    O     O_R   0.487490 0.839850 0.620820 -0.551828
O6    O     O_R   0.291160 0.930970 0.479480 -0.598153
O7    O     O_R   0.708840 0.069030 0.520520 -0.601406
O8    O     O_R   0.348130 0.069020 0.520540 -0.556240
O9    O     O_R   0.651870 0.930980 0.479460 -0.528149
O10   O     O_3   0.580391 0.711457 0.568629 -0.573531

loop_
_geom_bond_atom_site_label_1
_geom_bond_atom_site_label_2
_ccdc_geom_bond_type
C16   O6    A    
C38   C40   A    
C34   C56   A    
C8    C13   A    
C23   C45   A    
C40   H9    S    
C21   H4    S    
C27   C29   A    
C14   C18   A    
C55   H31   S    
Cu1   O5    S    
C17   O9    A    
C39   C41   A    
C38   C49   A    
C53   C54   S    
C7    C11   A    
C29   C36   A    
C33   H5    S    
C17   C23   S    
C5    C58   A    
C6    H20   S    
C35   C37   A    
C47   H14   S    
C54   H28   S    
C50   H12   S    
C5    H21   S    
Cu2   O4    S    
C33   C36   A    
C51   C56   A    
C12   O5    A    
C16   C34   S    
C15   C19   A    
C12   C59   S    
C11   C15   A    
Cu2   O7    S    
C52   H17   S    
Cu1   O1    S    
C44   C47   A    
C20   C29   A    
C26   N2    A    
C3    C60   A    
C40   C42   A    
C38   H7    S    
C13   C14   A    
C3    H24   S    
C41   C43   A    
Cu1   Cu2   S    
C42   C44   A    
Cu1   O6    S    
C17   O7    A    
C46   H13   S    
C25   O2    S    
C14   H36   S    
C49   H1    S    
C46   C48   A    
C55   O2    S    
C27   C31   A    
C20   H3    S    
C28   C32   A    
Cu1   N2    S    
C54   H27   S    
C47   C49   A    
C5    C7    A    
C25   N1    A    
C6    C8    A    
Cu2   O3    S    
C45   C52   A    
C22   N1    A    
C30   C37   A    
C24   N2    A    
C48   H15   S    
C2    C4    A    
C26   O10   S    
C55   H30   S    
C23   C51   A    
C31   C32   A    
C4    H22   S    
C10   C19   A    
C57   H35   S    
C53   H25   S    
C42   C56   S    
C48   C50   A    
C43   C45   S    
C41   H10   S    
C8    C10   A    
C20   C22   A    
C57   H32   S    
C55   C57   S    
Cu1   O9    S    
C31   C35   A    
C2    C10   A    
C53   O10   S    
C16   O8    A    
Cu2   N1    S    
C7    C9    A    
C34   C52   A    
C6    C59   A    
C15   H37   S    
C12   O3    A    
C60   H23   S    
C36   H38   S    
C25   C27   A    
C21   C30   A    
C26   C28   A    
C9    C60   A    
C32   C33   A    
C2    H34   S    
C51   H16   S    
C54   H29   S    
C1    C58   S    
C37   H39   S    
C11   C13   A    
C35   H6    S    
C4    C59   A    
C28   C30   A    
C39   H8    S    
C53   H26   S    
C24   H40   S    
C44   H11   S    
C43   C46   A    
C1    O4    A    
C22   H2    S    
C3    C58   A    
C9    C18   A    
C39   C50   A    
Cu2   O8    S    
C18   H18   S    
C57   H33   S    
C21   C24   A    
C19   H19   S    
C1    O1    A    
