data_str_m4_o7_o7_f0_acs.sym.176
_audit_creation_date              2012-12-11T16:26:19-0500
_audit_creation_method            fapswitch 2.2
_symmetry_space_group_name_H-M    P1
_symmetry_Int_Tables_number       1
_space_group_crystal_system       triclinic
_cell_length_a                    14.038863
_cell_length_b                    14.054186
_cell_length_c                    31.910155
_cell_angle_alpha                 89.953154
_cell_angle_beta                  90.15092
_cell_angle_gamma                 120.001273
_cell_volume                      5452.42911688

loop_
_atom_site_label
_atom_site_type_symbol
_atom_type_description
_atom_site_fract_x
_atom_site_fract_y
_atom_site_fract_z
_atom_type_partial_charge
C1    C     C_R   0.566774 0.444683 0.810284 0.527858
C2    C     C_R   0.874618 0.431032 0.689402 0.518564
C3    C     C_R   0.555298 0.121688 0.810181 0.528389
C4    C     C_R   0.567457 0.444256 0.690007 0.518961
C5    C     C_R   0.879038 0.433900 0.809934 0.528976
C6    C     C_R   0.555654 0.123924 0.689786 0.517361
C7    C     C_R   0.443675 0.569192 0.310723 0.531020
C8    C     C_R   0.433520 0.878154 0.189706 0.526991
C9    C     C_R   0.123000 0.555299 0.310430 0.531908
C10   C     C_R   0.444476 0.566072 0.189805 0.528672
C11   C     C_R   0.433895 0.878989 0.309882 0.524924
C12   C     C_R   0.122537 0.555670 0.189482 0.530414
C13   C     C_1   0.014947 0.519633 0.016802 -0.030097
C14   C     C_1   0.519007 0.998163 0.480680 -0.023083
C15   C     C_1   0.494804 0.486865 0.019766 -0.030912
C16   C     C_1   0.964347 0.501114 0.477624 -0.029833
C17   C     C_1   0.509176 0.000965 0.018868 -0.030912
C18   C     C_1   0.450185 0.479077 0.483825 -0.026467
C19   C     C_1   0.529322 0.015228 0.517577 -0.019513
C20   C     C_1   0.012274 0.519088 0.979146 -0.028160
C21   C     C_1   0.461266 0.465305 0.520116 -0.022616
C22   C     C_1   0.510769 0.003138 0.981194 -0.029360
C23   C     C_1   0.947717 0.497152 0.514517 -0.016445
C24   C     C_1   0.495606 0.485579 0.982075 -0.029072
C25   C     C_R   0.943639 0.476516 0.849388 -0.046054
C26   C     C_R   0.542878 0.085692 0.646573 -0.034757
C27   C     C_R   0.527568 0.464893 0.850912 -0.045914
C28   C     C_R   0.904347 0.452318 0.645197 -0.033204
C29   C     C_R   0.534785 0.060484 0.850418 -0.046033
C30   C     C_R   0.537391 0.456444 0.647431 -0.032581
C31   C     C_R   0.472696 0.937714 0.350417 -0.047721
C32   C     C_R   0.065066 0.537281 0.148282 -0.045745
C33   C     C_R   0.454556 0.543803 0.354377 -0.031340
C34   C     C_R   0.474998 0.939840 0.149474 -0.045532
C35   C     C_R   0.064940 0.532988 0.351225 -0.040085
C36   C     C_R   0.464635 0.523069 0.149972 -0.045965
C37   C     C_R   0.962233 0.574916 0.869312 -0.032404
C38   C     C_R   0.564222 0.002516 0.633099 -0.035636
C39   C     C_R   0.431309 0.383915 0.871669 -0.032028
C40   C     C_R   0.983244 0.555947 0.629359 -0.037121
C41   C     C_R   0.616422 0.046499 0.871496 -0.032111
C42   C     C_R   0.433035 0.441012 0.636406 -0.034683
C43   C     C_R   0.571177 0.956392 0.370065 -0.032615
C44   C     C_R   0.056521 0.621311 0.126789 -0.031731
C45   C     C_R   0.416791 0.436032 0.368614 -0.041052
C46   C     C_R   0.567753 0.949192 0.127744 -0.031337
C47   C     C_R   0.014390 0.591630 0.366680 -0.043331
C48   C     C_R   0.381604 0.429612 0.128123 -0.031682
C49   C     C_R   0.990353 0.589951 0.912087 -0.137884
C50   C     C_R   0.560641 0.981320 0.589934 -0.131285
C51   C     C_R   0.420489 0.395057 0.914945 -0.138403
C52   C     C_R   0.994018 0.570068 0.585675 -0.135554
C53   C     C_R   0.604072 0.022661 0.914625 -0.138820
C54   C     C_R   0.408621 0.441636 0.593735 -0.138741
C55   C     C_R   0.583071 0.974259 0.413395 -0.110406
C56   C     C_R   0.036598 0.611762 0.083481 -0.137844
C57   C     C_R   0.413119 0.416015 0.411707 -0.135300
C58   C     C_R   0.579569 0.974740 0.084847 -0.138948
C59   C     C_R   0.976386 0.575124 0.408002 -0.138918
C60   C     C_R   0.397425 0.416735 0.085455 -0.137240
C61   C     C_R   0.005550 0.512591 0.934224 0.023351
C62   C     C_R   0.536888 0.041744 0.561015 0.041322
C63   C     C_R   0.500159 0.486358 0.937045 0.023432
C64   C     C_R   0.927265 0.483468 0.558511 0.040931
C65   C     C_R   0.510984 0.007690 0.936190 0.023633
C66   C     C_R   0.485423 0.455886 0.562875 0.032836
C67   C     C_R   0.503182 0.981794 0.436541 0.026898
C68   C     C_R   0.019301 0.518369 0.061770 0.023997
C69   C     C_R   0.446726 0.502041 0.440450 0.023107
C70   C     C_R   0.504574 0.995406 0.063854 0.023929
C71   C     C_R   0.987203 0.501501 0.434035 0.015505
C72   C     C_R   0.493293 0.491606 0.064768 0.023662
C73   C     C_R   0.004528 0.424466 0.912718 0.243853
C74   C     C_R   0.515947 0.124941 0.574747 0.283887
C75   C     C_R   0.586653 0.574243 0.915191 0.245042
C76   C     C_R   0.847951 0.380536 0.574600 0.274165
C77   C     C_R   0.422553 0.004404 0.913869 0.243688
C78   C     C_R   0.589006 0.469937 0.574152 0.282229
C79   C     C_R   0.412969 0.979858 0.416095 0.249996
C80   C     C_R   0.010865 0.427592 0.084048 0.243326
C81   C     C_R   0.485404 0.610570 0.426322 0.250965
C82   C     C_R   0.422815 0.003247 0.086705 0.243064
C83   C     C_R   0.028849 0.435999 0.418129 0.253032
C84   C     C_R   0.581938 0.574145 0.087820 0.243460
C85   C     C_R   0.974096 0.408141 0.870641 -0.083254
C86   C     C_R   0.518437 0.144935 0.617307 -0.061572
C87   C     C_R   0.598552 0.562395 0.872508 -0.081251
C88   C     C_R   0.838533 0.366295 0.617638 -0.070308
C89   C     C_R   0.435593 0.030090 0.871337 -0.082292
C90   C     C_R   0.613791 0.471234 0.616299 -0.064913
C91   C     C_R   0.399870 0.959135 0.373237 -0.076598
C92   C     C_R   0.033335 0.438409 0.126994 -0.081922
C93   C     C_R   0.488819 0.629732 0.383459 -0.074182
C94   C     C_R   0.410276 0.976587 0.129266 -0.085306
C95   C     C_R   0.066986 0.452613 0.377091 -0.066581
C96   C     C_R   0.566586 0.587397 0.130157 -0.082501
Cr1   Cr    Cr6+3 0.504240 0.249200 0.750000 1.022328
Cr2   Cr    Cr6+3 0.744960 0.495760 0.750000 1.022768
Cr3   Cr    Cr6+3 0.750800 0.255040 0.750000 1.021964
Cr4   Cr    Cr6+3 0.249200 0.504240 0.250000 1.026742
Cr5   Cr    Cr6+3 0.495760 0.744960 0.250000 1.027353
Cr6   Cr    Cr6+3 0.255040 0.750800 0.250000 1.022191
H1    H     H_    0.034774 0.677688 0.066459 0.130615
H2    H     H_    0.657245 0.986850 0.429035 0.142813
H3    H     H_    0.333588 0.348855 0.067740 0.128793
H4    H     H_    0.943091 0.624177 0.420588 0.136897
H5    H     H_    0.646909 0.977120 0.067385 0.127280
H6    H     H_    0.385948 0.333377 0.422842 0.143648
H7    H     H_    0.574168 0.916125 0.578822 0.126479
H8    H     H_    0.998414 0.661152 0.928505 0.130879
H9    H     H_    0.330626 0.433852 0.584488 0.127463
H10   H     H_    0.668027 0.017295 0.931760 0.128549
H11   H     H_    0.056659 0.647715 0.572735 0.127542
H12   H     H_    0.350482 0.331480 0.931756 0.129173
H13   H     H_    0.029989 0.370034 0.143604 0.157106
H14   H     H_    0.329718 0.956511 0.358098 0.147217
H15   H     H_    0.633890 0.652258 0.147295 0.154410
H16   H     H_    0.103377 0.404905 0.366217 0.163754
H17   H     H_    0.345871 0.980050 0.146280 0.149235
H18   H     H_    0.514110 0.712255 0.372857 0.152023
H19   H     H_    0.504487 0.210557 0.627561 0.154980
H20   H     H_    0.968988 0.337635 0.855071 0.156045
H21   H     H_    0.692823 0.480344 0.624809 0.150434
H22   H     H_    0.368944 0.031619 0.855044 0.155340
H23   H     H_    0.775894 0.287449 0.629721 0.156250
H24   H     H_    0.667951 0.628481 0.856654 0.155778
O1    O     O_R   0.480350 0.140770 0.796330 -0.514978
O2    O     O_R   0.660420 0.519650 0.703670 -0.522533
O3    O     O_R   0.859230 0.339580 0.796330 -0.515098
O4    O     O_R   0.480350 0.140770 0.703670 -0.525203
O5    O     O_R   0.660420 0.519650 0.796330 -0.516254
O6    O     O_R   0.859230 0.339580 0.703670 -0.525464
O7    O     O_R   0.140770 0.480350 0.296330 -0.524953
O8    O     O_R   0.519650 0.660420 0.203670 -0.509768
O9    O     O_R   0.339580 0.859230 0.296330 -0.538234
O10   O     O_R   0.140770 0.480350 0.203670 -0.511498
O11   O     O_R   0.519650 0.660420 0.296330 -0.524385
O12   O     O_R   0.339580 0.859230 0.203670 -0.513632
O13   O     O_R   0.514930 0.348530 0.793250 -0.478002
O14   O     O_R   0.833600 0.485070 0.706750 -0.488922
O15   O     O_R   0.651470 0.166400 0.793250 -0.478230
O16   O     O_R   0.514930 0.348530 0.706750 -0.490866
O17   O     O_R   0.833600 0.485070 0.793250 -0.477755
O18   O     O_R   0.651470 0.166400 0.706750 -0.491197
O19   O     O_R   0.348530 0.514930 0.293250 -0.485764
O20   O     O_R   0.485070 0.833600 0.206750 -0.481285
O21   O     O_R   0.166400 0.651470 0.293250 -0.491397
O22   O     O_R   0.348530 0.514930 0.206750 -0.483893
O23   O     O_R   0.485070 0.833600 0.293250 -0.487175
O24   O     O_R   0.166400 0.651470 0.206750 -0.478277
O25   O     O_3   0.666667 0.333333 0.750000 -0.236865
O26   O     O_3   0.333333 0.666667 0.250000 -0.234639
C97   C     C_R   0.953712 0.662904 0.846675 0.055397
C98   C     C_R   0.006647 0.702030 0.807891 -0.054049
C99   C     C_R   0.994457 0.781113 0.785724 -0.113636
C100  C     C_R   0.932117 0.824047 0.802488 -0.119857
C101  C     C_R   0.883836 0.789940 0.841874 -0.106244
C102  C     C_R   0.894232 0.709499 0.863901 -0.087644
H25   H     H_    0.055240 0.669470 0.794441 0.097895
H26   H     H_    0.032704 0.808776 0.755428 0.113495
H27   H     H_    0.921548 0.883954 0.784947 0.097127
H28   H     H_    0.836745 0.824496 0.855033 0.141529
H29   H     H_    0.853878 0.681937 0.893930 0.148111
C103  C     C_R   0.584424 0.933400 0.663009 0.044550
C104  C     C_R   0.671516 0.912811 0.656355 -0.093772
C105  C     C_R   0.687204 0.843336 0.683341 -0.119331
C106  C     C_R   0.616160 0.793689 0.717108 -0.123180
C107  C     C_R   0.529177 0.813243 0.723921 -0.128131
C108  C     C_R   0.513250 0.882705 0.697055 -0.078250
H30   H     H_    0.727338 0.950625 0.630321 0.112741
H31   H     H_    0.754531 0.828044 0.678101 0.114988
H32   H     H_    0.628718 0.740298 0.738062 0.118157
H33   H     H_    0.473873 0.774355 0.749983 0.095051
H34   H     H_    0.444364 0.895389 0.702403 0.106957
C109  C     C_R   0.341217 0.288086 0.849402 0.054720
C110  C     C_R   0.299629 0.302895 0.811309 -0.052916
C111  C     C_R   0.219133 0.212332 0.789233 -0.113239
C112  C     C_R   0.176902 0.106719 0.805561 -0.120306
C113  C     C_R   0.212829 0.091548 0.844482 -0.104715
C114  C     C_R   0.295059 0.181670 0.866293 -0.086349
H35   H     H_    0.331704 0.384331 0.798276 0.103350
H36   H     H_    0.189857 0.223720 0.759343 0.113311
H37   H     H_    0.116111 0.036758 0.788051 0.099964
H38   H     H_    0.178523 0.009630 0.857363 0.144623
H39   H     H_    0.324356 0.168003 0.895840 0.147990
C115  C     C_R   0.058805 0.647670 0.657259 0.042930
C116  C     C_R   0.077566 0.754623 0.650534 -0.093071
C117  C     C_R   0.152512 0.841767 0.675630 -0.118170
C118  C     C_R   0.209482 0.823103 0.707565 -0.120636
C119  C     C_R   0.191638 0.717255 0.714476 -0.125070
C120  C     C_R   0.116833 0.629933 0.689451 -0.080355
H40   H     H_    0.034071 0.770530 0.625930 0.112421
H41   H     H_    0.166397 0.923823 0.670336 0.115394
H42   H     H_    0.267214 0.890629 0.727015 0.119457
H43   H     H_    0.236193 0.702924 0.739090 0.099717
H44   H     H_    0.105592 0.548918 0.694701 0.114365
C121  C     C_R   0.713683 0.054439 0.849727 0.055687
C122  C     C_R   0.700717 0.999086 0.811568 -0.052714
C123  C     C_R   0.792410 0.009283 0.790440 -0.115017
C124  C     C_R   0.897188 0.071558 0.807763 -0.119874
C125  C     C_R   0.910572 0.122201 0.846619 -0.105236
C126  C     C_R   0.819420 0.114360 0.867480 -0.086948
H45   H     H_    0.619852 0.949973 0.797837 0.099846
H46   H     H_    0.782661 0.969456 0.760538 0.112847
H47   H     H_    0.967846 0.080425 0.790996 0.101242
H48   H     H_    0.991906 0.169303 0.860212 0.146747
H49   H     H_    0.831765 0.156756 0.897049 0.145261
C127  C     C_R   0.351149 0.430462 0.668274 0.043119
C128  C     C_R   0.239555 0.349967 0.663833 -0.097002
C129  C     C_R   0.161523 0.344383 0.692409 -0.123885
C130  C     C_R   0.193979 0.418875 0.725655 -0.124059
C131  C     C_R   0.304427 0.499343 0.730286 -0.129571
C132  C     C_R   0.382693 0.505089 0.701833 -0.079482
H50   H     H_    0.212898 0.291586 0.638237 0.111927
H51   H     H_    0.075844 0.282239 0.688793 0.120250
H52   H     H_    0.133504 0.414378 0.747766 0.117500
H53   H     H_    0.329415 0.557433 0.755911 0.096867
H54   H     H_    0.467469 0.568977 0.705527 0.113784
C133  C     C_R   0.671116 0.979999 0.346494 0.056416
C134  C     C_R   0.733327 0.931206 0.358518 -0.085984
C135  C     C_R   0.840882 0.973601 0.344079 -0.114323
C136  C     C_R   0.887661 0.065396 0.317832 -0.112833
C137  C     C_R   0.826187 0.114014 0.305518 -0.123971
C138  C     C_R   0.717738 0.070471 0.319165 -0.085674
H55   H     H_    0.700725 0.864074 0.380750 0.127313
H56   H     H_    0.889140 0.937600 0.354548 0.127392
H57   H     H_    0.971619 0.099245 0.307208 0.099054
H58   H     H_    0.862746 0.185670 0.285438 0.111316
H59   H     H_    0.672682 0.111600 0.310589 0.097855
C139  C     C_R   0.061256 0.716225 0.148635 0.060565
C140  C     C_R   0.993244 0.698458 0.183322 -0.056668
C141  C     C_R   0.995405 0.787121 0.203635 -0.116411
C142  C     C_R   0.065940 0.894291 0.189940 -0.117324
C143  C     C_R   0.129793 0.912425 0.154231 -0.100872
C144  C     C_R   0.127317 0.823629 0.133460 -0.081795
H60   H     H_    0.938041 0.615918 0.194431 0.097575
H61   H     H_    0.940564 0.771967 0.229454 0.112840
H62   H     H_    0.069478 0.963014 0.206508 0.094613
H63   H     H_    0.181428 0.995290 0.142776 0.144662
H64   H     H_    0.177558 0.838535 0.105880 0.144587
C145  C     C_R   0.384277 0.343855 0.339399 0.046623
C146  C     C_R   0.275840 0.256041 0.339341 -0.069961
C147  C     C_R   0.245984 0.166242 0.313081 -0.125058
C148  C     C_R   0.324615 0.162364 0.287360 -0.121369
C149  C     C_R   0.432631 0.250205 0.287021 -0.117162
C150  C     C_R   0.462488 0.341212 0.312828 -0.090191
H65   H     H_    0.214490 0.257551 0.359420 0.123496
H66   H     H_    0.161340 0.100651 0.312370 0.090886
H67   H     H_    0.301305 0.092436 0.267037 0.111363
H68   H     H_    0.493115 0.247756 0.266782 0.104941
H69   H     H_    0.546666 0.408523 0.312696 0.097751
C151  C     C_R   0.655056 0.936259 0.148591 0.058826
C152  C     C_R   0.701364 0.991119 0.186461 -0.051808
C153  C     C_R   0.781221 0.976542 0.206658 -0.118018
C154  C     C_R   0.818710 0.911159 0.188752 -0.120415
C155  C     C_R   0.779526 0.862936 0.149704 -0.104411
C156  C     C_R   0.696691 0.873924 0.129846 -0.085401
H70   H     H_    0.673997 0.043191 0.200746 0.093436
H71   H     H_    0.815056 0.016381 0.236032 0.109816
H72   H     H_    0.878924 0.899300 0.205193 0.099591
H73   H     H_    0.811427 0.814851 0.135334 0.156157
H74   H     H_    0.664092 0.832540 0.100250 0.142501
C157  C     C_R   0.007021 0.677113 0.342793 0.038364
C158  C     C_R   0.100952 0.780164 0.338501 -0.029318
C159  C     C_R   0.094826 0.865628 0.319107 -0.098663
C160  C     C_R   0.993190 0.850704 0.306122 -0.134231
C161  C     C_R   0.897728 0.748947 0.311874 -0.132744
C162  C     C_R   0.904578 0.661824 0.329923 -0.105991
H75   H     H_    0.178556 0.793052 0.350358 0.140340
H76   H     H_    0.169116 0.943014 0.314570 0.108455
H77   H     H_    0.988453 0.917387 0.291193 0.090351
H78   H     H_    0.818816 0.737457 0.302002 0.120612
H79   H     H_    0.830348 0.583481 0.334556 0.107758
C163  C     C_R   0.278816 0.342854 0.147967 0.056137
C164  C     C_R   0.282282 0.295849 0.186462 -0.046604
C165  C     C_R   0.185544 0.211922 0.204078 -0.118743
C166  C     C_R   0.085693 0.171252 0.183010 -0.123371
C167  C     C_R   0.081863 0.213266 0.143922 -0.103685
C168  C     C_R   0.177540 0.299538 0.126647 -0.088938
H80   H     H_    0.359507 0.324490 0.202893 0.105353
H81   H     H_    0.187207 0.177322 0.233925 0.103642
H82   H     H_    0.011580 0.106893 0.197032 0.106902
H83   H     H_    0.004344 0.180468 0.127359 0.157209
H84   H     H_    0.172293 0.332856 0.096700 0.148923
O27   O     O_3   0.985146 0.328913 0.065323 -0.729399
H85   H     H_    0.963173 0.328559 0.035823 0.337082
O28   O     O_3   0.334564 0.995001 0.436344 -0.701536
H86   H     H_    0.353481 0.011116 0.466346 0.333478
O29   O     O_3   0.682687 0.646200 0.070289 -0.726083
H87   H     H_    0.686043 0.622982 0.041327 0.335950
O30   O     O_3   0.038212 0.358367 0.441639 -0.698410
H88   H     H_    0.999762 0.346924 0.468701 0.335940
O31   O     O_3   0.350879 0.031846 0.068807 -0.723432
H89   H     H_    0.373241 0.056497 0.039611 0.335989
O32   O     O_3   0.519886 0.699944 0.452716 -0.710773
H90   H     H_    0.507840 0.675691 0.482279 0.334873
O33   O     O_3   0.493323 0.189133 0.548227 -0.686838
H91   H     H_    0.501693 0.173841 0.518658 0.332388
O34   O     O_3   0.026846 0.349288 0.931710 -0.724317
H92   H     H_    0.058203 0.375726 0.959948 0.333858
O35   O     O_3   0.668588 0.483066 0.545561 -0.687181
H93   H     H_    0.638590 0.470538 0.516759 0.336772
O36   O     O_3   0.324450 0.981818 0.932320 -0.725146
H94   H     H_    0.321293 0.955642 0.961346 0.335052
O37   O     O_3   0.778569 0.291510 0.549918 -0.691529
H95   H     H_    0.784331 0.313951 0.520240 0.337056
O38   O     O_3   0.664163 0.670620 0.934216 -0.723035
H96   H     H_    0.641785 0.673469 0.963343 0.334978

loop_
_geom_bond_atom_site_label_1
_geom_bond_atom_site_label_2
_ccdc_geom_bond_type
C149  H68   S    
C101  C102  A    
C82   C94   A    
C18   C21   T    
C33   C45   A    
C137  C138  A    
C35   C47   A    
C29   C89   A    
C77   O36   S    
O35   H93   S    
C45   C57   A    
C158  H75   S    
C4    O16   A    
C5    O17   A    
C60   C72   A    
C111  H36   S    
C148  C149  A    
C8    O12   A    
C163  C164  A    
C120  H44   S    
C118  H42   S    
O30   H88   S    
Cr2   O5    S    
C108  H34   S    
C140  H60   S    
C93   H18   S    
C123  C124  A    
C149  C150  A    
C7    C33   S    
C16   C71   S    
C48   C163  S    
C59   H4    S    
C65   C77   A    
Cr3   O3    S    
C12   O24   A    
C67   C79   A    
C7    O11   A    
C83   O30   S    
C58   C70   A    
C52   H11   S    
C80   C92   A    
C159  H76   S    
C161  H78   S    
O36   H94   S    
C77   C89   A    
C86   H19   S    
C98   C99   A    
C72   C84   A    
C5    C25   S    
C41   C121  S    
C107  C108  A    
C24   C63   S    
C123  H46   S    
C13   C20   T    
C14   C19   T    
Cr3   O15   S    
C34   C94   A    
C56   H1    S    
C1    O5    A    
C164  H80   S    
C138  H59   S    
C32   C92   A    
C153  H71   S    
C70   C82   A    
Cr1   O16   S    
C47   C59   A    
C131  C132  A    
C147  H66   S    
C99   C100  A    
C28   C40   A    
C115  C116  A    
C101  H28   S    
C10   O22   A    
C151  C152  A    
C9    O7    A    
C39   C51   A    
C166  H82   S    
C127  C132  A    
C21   C66   S    
C73   O34   S    
C144  H64   S    
C3    O15   A    
C6    O4    A    
C112  C113  A    
Cr4   O26   S    
C15   C72   S    
C88   H23   S    
C31   C43   A    
C136  H57   S    
C160  H77   S    
C152  C153  A    
C40   C115  S    
C129  H51   S    
C91   H14   S    
C58   H5    S    
C97   C102  A    
C3    C29   S    
Cr6   O9    S    
C133  C138  A    
C158  C159  A    
C14   C67   S    
C34   C46   A    
C53   C65   A    
C142  C143  A    
C79   C91   A    
C18   C69   S    
C130  H52   S    
C166  C167  A    
C46   C58   A    
C118  C119  A    
C152  H70   S    
C134  C135  A    
C128  C129  A    
C71   C83   A    
C150  H69   S    
C79   O28   S    
C51   H12   S    
C148  H67   S    
C163  C168  A    
C96   H15   S    
C39   C109  S    
C56   C68   A    
C55   H2    S    
C22   C65   S    
O31   H89   S    
Cr6   O21   S    
C145  C150  A    
Cr4   O19   S    
C125  H48   S    
C73   C85   A    
C25   C85   A    
O29   H87   S    
C121  C126  A    
C8    C34   S    
C27   C87   A    
C41   C53   A    
C116  H40   S    
C102  H29   S    
C119  H43   S    
C75   C87   A    
C15   C24   T    
C117  H41   S    
C111  C112  A    
C16   C23   T    
C31   C91   A    
C167  H83   S    
C141  H61   S    
C6    O18   A    
C113  H38   S    
C43   C55   A    
C154  H72   S    
C29   C41   A    
C8    O20   A    
C100  H27   S    
C161  C162  A    
C109  C114  A    
C54   C66   A    
C89   H22   S    
C126  H49   S    
C26   C38   A    
C98   H25   S    
O32   H90   S    
C6    C26   S    
C63   C75   A    
Cr2   O2    S    
C36   C48   A    
C121  C122  A    
C57   H6    S    
C165  C166  A    
C12   O10   A    
C167  C168  A    
Cr1   O13   S    
C87   H24   S    
Cr4   O10   S    
Cr6   O26   S    
C49   H8    S    
C7    O19   A    
C13   C68   S    
C124  H47   S    
C164  C165  A    
C30   C90   A    
C157  C158  A    
C78   C90   A    
C119  C120  A    
Cr3   O6    S    
C103  C104  A    
Cr1   O4    S    
C131  H53   S    
C147  C148  A    
O33   H91   S    
C115  C120  A    
C11   O23   A    
C127  C128  A    
C2    O6    A    
C42   C127  S    
C17   C22   T    
C112  H37   S    
C1    O13   A    
C5    O3    A    
C155  H73   S    
C157  C162  A    
C151  C156  A    
Cr2   O25   S    
C110  H35   S    
C66   C78   A    
C49   C61   A    
C4    O2    A    
O38   H96   S    
C37   C97   S    
Cr3   O18   S    
C51   C63   A    
C52   C64   A    
C133  C134  A    
C61   C73   A    
C135  H56   S    
C50   H7    S    
C156  H74   S    
C142  H62   S    
O27   H85   S    
C11   O9    A    
C75   O38   S    
C44   C56   A    
O28   H86   S    
C132  H54   S    
C146  C147  A    
Cr1   O25   S    
C85   H20   S    
C168  H84   S    
Cr6   O24   S    
C143  C144  A    
C106  C107  A    
C76   O37   S    
C104  H30   S    
Cr5   O11   S    
C43   C133  S    
C82   O31   S    
C33   C93   A    
C106  H32   S    
C35   C95   A    
Cr5   O26   S    
C128  H50   S    
C116  C117  A    
C42   C54   A    
C141  C142  A    
C54   H9    S    
C30   C42   A    
C139  C140  A    
C92   H13   S    
C69   C81   A    
C113  C114  A    
O37   H95   S    
C122  H45   S    
C9    C35   S    
C62   C74   A    
C10   C36   S    
C68   C80   A    
C78   O35   S    
C104  C105  A    
Cr2   O17   S    
C125  C126  A    
Cr1   O1    S    
Cr5   O8    S    
C80   O27   S    
C153  C154  A    
C100  C101  A    
C145  C146  A    
C84   C96   A    
C3    O1    A    
C165  H81   S    
C19   C62   S    
C20   C61   S    
C37   C49   A    
Cr6   O12   S    
C44   C139  S    
C25   C37   A    
C84   O29   S    
C109  C110  A    
C27   C39   A    
C124  C125  A    
C162  H79   S    
C28   C88   A    
C122  C123  A    
C159  C160  A    
C76   C88   A    
C38   C103  S    
C11   C31   S    
C105  H31   S    
C12   C32   S    
C103  C108  A    
C48   C60   A    
C95   H16   S    
C107  H33   S    
Cr5   O20   S    
C139  C144  A    
C114  H39   S    
O34   H92   S    
C137  H58   S    
C47   C157  S    
C40   C52   A    
Cr3   O25   S    
C9    O21   A    
Cr2   O14   S    
C117  C118  A    
C130  C131  A    
C135  C136  A    
C81   C93   A    
C94   H17   S    
C36   C96   A    
C26   C86   A    
C83   C95   A    
C155  C156  A    
C64   C76   A    
C74   C86   A    
C46   C151  S    
C53   H10   S    
C110  C111  A    
C105  C106  A    
C50   C62   A    
C154  C155  A    
C45   C145  S    
Cr4   O7    S    
C23   C64   S    
C99   H26   S    
C10   O8    A    
C55   C67   A    
C38   C50   A    
C146  H65   S    
C2    O14   A    
C81   O32   S    
Cr4   O22   S    
Cr5   O23   S    
C134  H55   S    
C143  H63   S    
C136  C137  A    
C160  C161  A    
C17   C70   S    
C32   C44   A    
C129  C130  A    
C140  C141  A    
C1    C27   S    
C74   O33   S    
C2    C28   S    
C57   C69   A    
C97   C98   A    
C90   H21   S    
C4    C30   S    
C60   H3    S    
C59   C71   A    
