data_str_m2_o16_o24_f0_pcu.sym.100
_audit_creation_date              2012-12-10T17:36:46-0500
_audit_creation_method            fapswitch 2.2
_symmetry_space_group_name_H-M    P1
_symmetry_Int_Tables_number       1
_space_group_crystal_system       triclinic
_cell_length_a                    10.600213
_cell_length_b                    12.327178
_cell_length_c                    13.138033
_cell_angle_alpha                 116.556607
_cell_angle_beta                  77.569445
_cell_angle_gamma                 100.946768
_cell_volume                      1490.98278788

loop_
_atom_site_label
_atom_site_type_symbol
_atom_type_description
_atom_site_fract_x
_atom_site_fract_y
_atom_site_fract_z
_atom_type_partial_charge
C1    C     C_R   0.511897 0.855020 0.286379 0.770678
C2    C     C_3   0.017891 0.014912 0.602936 -0.167485
C3    C     C_3   0.933453 0.906928 0.522380 -0.141392
C4    C     C_3   0.877192 0.997911 0.499017 0.026992
C5    C     C_R   0.319507 0.280506 0.024627 -0.284054
C6    C     C_R   0.447739 0.227999 0.835811 -0.143299
C7    C     C_R   0.600637 0.813612 0.084179 -0.184690
C8    C     C_R   0.626925 0.733706 0.969149 -0.143290
C9    C     C_R   0.578828 0.611211 0.931906 -0.186423
C10   C     C_R   0.498427 0.566593 0.009246 0.099922
C11   C     C_R   0.459541 0.651549 0.123518 0.084361
C12   C     C_R   0.740376 0.998976 0.499354 0.776115
C13   C     C_R   0.454131 0.440783 0.976835 0.079021
C14   C     C_R   0.363702 0.403897 0.055026 0.105331
C15   C     C_R   0.315694 0.490748 0.162066 -0.217647
C16   C     C_R   0.360596 0.612900 0.194916 -0.202774
C17   C     C_R   0.498780 0.350156 0.869735 -0.329083
C18   C     C_R   0.356222 0.191956 0.913211 0.464128
C19   C     C_R   0.519967 0.773250 0.162928 -0.106053
C20   C     C_R   0.713841 0.347834 0.331893 0.381877
C21   C     C_R   0.322730 0.758685 0.644186 0.103366
C22   C     C_R   0.284530 0.662231 0.675742 -0.263646
C23   C     C_R   0.478527 0.145062 0.713818 0.823275
C24   C     C_R   0.351982 0.559441 0.621708 -0.197483
C25   C     C_R   0.459261 0.551865 0.534815 0.026292
C26   C     C_R   0.494928 0.653479 0.505766 0.288302
C27   C     C_R   0.532229 0.447866 0.475887 -0.087420
C28   C     C_R   0.639764 0.448143 0.390108 0.045994
C29   C     C_R   0.672117 0.548202 0.363216 -0.263548
C30   C     C_R   0.601639 0.648033 0.419586 -0.196608
C31   C     C_R   0.503202 0.342673 0.497981 -0.012384
C32   C     C_R   0.676676 0.246232 0.355883 -0.005330
C33   C     C_R   0.259685 0.000519 0.499830 0.769304
C34   C     C_3   0.982184 0.983925 0.394880 -0.172574
C35   C     C_3   0.040847 0.893012 0.418283 -0.171544
C36   C     C_3   0.122989 0.000934 0.498929 0.030269
C37   C     C_3   0.066723 0.091871 0.475434 -0.138570
C38   C     C_3   0.959380 0.105785 0.579511 -0.164139
Cu1   Cu    Cu3+1 0.529830 0.098270 0.475420 0.926794
Cu2   Cu    Cu3+1 0.470170 0.901730 0.524580 0.937095
H1    H     H_    0.077564 0.806112 0.352321 0.120840
H2    H     H_    0.573236 0.372202 0.809779 0.168401
H3    H     H_    0.646360 0.906632 0.112043 0.155252
H4    H     H_    0.604117 0.554654 0.841577 0.129703
H5    H     H_    0.688488 0.766104 0.908930 0.142068
H6    H     H_    0.314229 0.676460 0.276122 0.166470
H7    H     H_    0.729729 0.167003 0.309506 0.144074
H8    H     H_    0.753160 0.550101 0.297546 0.181448
H9    H     H_    0.423893 0.334805 0.561874 0.138125
H10   H     H_    0.269721 0.837716 0.686039 0.147905
H11   H     H_    0.964183 0.971229 0.309851 0.128369
H12   H     H_    0.318062 0.487672 0.649752 0.135424
H13   H     H_    0.202283 0.667135 0.742254 0.143285
H14   H     H_    0.634901 0.719200 0.392293 0.206156
H15   H     H_    0.123817 0.167644 0.456204 0.140301
H16   H     H_    0.922735 0.192674 0.645521 0.129559
H17   H     H_    0.035325 0.028259 0.688230 0.110774
H18   H     H_    0.876199 0.831080 0.541396 0.138484
H19   H     H_    0.242649 0.464305 0.220781 0.138972
H20   H     H_    0.253315 0.253418 0.086529 0.151098
N1    N     N_R   0.575030 0.246270 0.438190 -0.210418
N2    N     N_R   0.425760 0.754330 0.561190 -0.212353
O1    O     O_R   0.537510 0.972500 0.318130 -0.575662
O2    O     O_R   0.487140 0.806530 0.359650 -0.603330
O3    O     O_R   0.708330 0.082950 0.479220 -0.584043
O4    O     O_R   0.657960 0.916980 0.520740 -0.603418
O5    O     O_R   0.512860 0.193470 0.640350 -0.593239
O6    O     O_R   0.462490 0.027500 0.681870 -0.533557
O7    O     O_R   0.342040 0.083020 0.479260 -0.583823
O8    O     O_R   0.291670 0.917050 0.520780 -0.599389
O9    O     O_3   0.817495 0.345048 0.246520 -0.593390
C39   C     C_3   0.933296 0.396246 0.295798 0.055003
H21   H     H_    0.918027 0.467805 0.386111 0.127150
H22   H     H_    0.996940 0.442077 0.244299 0.165233
C40   C     C_3   0.005086 0.296848 0.289900 -0.865831
H23   H     H_    0.017893 0.224418 0.200610 0.257065
H24   H     H_    0.102187 0.336611 0.316565 0.208753
H25   H     H_    0.950258 0.256069 0.348735 0.238443
O10   O     O_3   0.309670 0.069693 0.880686 -0.570255
C41   C     C_3   0.171934 0.051997 0.900196 0.047776
H26   H     H_    0.137770 0.990712 0.816800 0.141114
H27   H     H_    0.122488 0.136266 0.934041 0.127960
C42   C     C_3   0.127627 0.989634 0.981056 -0.812539
H28   H     H_    0.161624 0.047535 0.065294 0.243220
H29   H     H_    0.019879 0.973847 0.995023 0.202040
H30   H     H_    0.167740 0.900450 0.942998 0.251100

loop_
_geom_bond_atom_site_label_1
_geom_bond_atom_site_label_2
_ccdc_geom_bond_type
C24   H12   S    
C34   C37   S    
C31   N1    A    
C35   C36   S    
C2    H17   S    
C7    C8    A    
C30   H14   S    
C11   C19   A    
C34   H11   S    
C29   C30   A    
Cu2   O8    S    
C36   C37   S    
C32   N1    A    
C41   C42   S    
C15   C16   A    
C33   C36   S    
Cu2   N2    S    
C34   C35   S    
C23   O5    A    
C8    H5    S    
C17   H2    S    
C8    C9    A    
C20   O9    S    
C7    H3    S    
C4    C12   S    
C9    C10   A    
C33   O7    A    
Cu2   O4    S    
C13   C14   A    
Cu1   O3    S    
C18   O10   S    
Cu1   O5    S    
C31   H9    S    
C39   C40   S    
Cu1   N1    S    
C1    O1    A    
C21   H10   S    
C22   H13   S    
C6    C18   A    
C4    C34   S    
C1    C19   S    
C29   H8    S    
C27   C31   A    
C24   C25   A    
C39   H22   S    
C16   H6    S    
Cu1   Cu2   S    
C39   H21   S    
C5    C18   A    
C20   C28   A    
C25   C26   A    
C12   O4    A    
C23   O6    A    
C40   H23   S    
C37   C38   S    
C11   C16   A    
C2    C38   S    
C42   H28   S    
C3    C35   S    
Cu1   O7    S    
C40   H24   S    
C5    C14   A    
C33   O8    A    
C41   H27   S    
C42   H29   S    
C4    C38   S    
C26   C30   A    
C7    C19   A    
C32   H7    S    
C22   C24   A    
C3    C4    S    
C1    O2    A    
C20   C32   A    
C2    C36   S    
C6    C17   A    
C28   C29   A    
C9    H4    S    
C5    H20   S    
C15   H19   S    
C41   H26   S    
C10   C13   A    
C25   C27   A    
Cu1   O1    S    
C12   O3    A    
Cu2   O2    S    
C13   C17   A    
C2    C3    S    
C26   N2    A    
O9    C39   S    
C6    C23   S    
C35   H1    S    
C40   H25   S    
C10   C11   A    
O10   C41   S    
C37   H15   S    
C3    H18   S    
C42   H30   S    
C38   H16   S    
Cu2   O6    S    
C27   C28   A    
C14   C15   A    
C21   N2    A    
C21   C22   A    
