data_str_m2_o10_o28_f0_pcu.sym.147
_audit_creation_date              2012-12-10T16:50:09-0500
_audit_creation_method            fapswitch 2.2
_symmetry_space_group_name_H-M    P1
_symmetry_Int_Tables_number       1
_space_group_crystal_system       triclinic
_cell_length_a                    23.474255
_cell_length_b                    8.727007
_cell_length_c                    7.422661
_cell_angle_alpha                 102.4714
_cell_angle_beta                  94.187891
_cell_angle_gamma                 92.369772
_cell_volume                      1478.21209503

loop_
_atom_site_label
_atom_site_type_symbol
_atom_type_description
_atom_site_fract_x
_atom_site_fract_y
_atom_site_fract_z
_atom_type_partial_charge
C1    C     C_R   0.497392 0.200336 0.454824 0.875852
C2    C     C_R   0.502608 0.799664 0.545176 0.875852
C3    C     C_R   0.244029 0.521413 0.680084 -0.092229
C4    C     C_R   0.755977 0.478871 0.319939 -0.092211
C5    C     C_R   0.303384 0.521630 0.676933 -0.192704
C6    C     C_R   0.696621 0.478647 0.323088 -0.192647
C7    C     C_R   0.328379 0.499359 0.507353 -0.031040
C8    C     C_R   0.671622 0.500634 0.492646 -0.031033
C9    C     C_R   0.292999 0.476505 0.341405 -0.174621
C10   C     C_R   0.706997 0.523205 0.658574 -0.174579
C11   C     C_R   0.233789 0.475788 0.345013 -0.099140
C12   C     C_R   0.766207 0.523920 0.654968 -0.099159
C13   C     C_R   0.209220 0.498342 0.514080 0.356405
C14   C     C_R   0.790781 0.501656 0.485923 0.356465
C15   C     C_2   0.488339 0.035008 0.434945 0.092106
C16   C     C_2   0.511661 0.964991 0.565055 0.092104
C17   C     C_R   0.390928 0.499722 0.502459 0.806255
C18   C     C_R   0.609072 0.500276 0.497540 0.806259
C19   C     C_R   0.883257 0.641569 0.525343 0.536204
C20   C     C_R   0.116742 0.358431 0.474656 0.536190
C21   C     C_R   0.876858 0.360529 0.446592 0.540977
C22   C     C_R   0.123142 0.639471 0.553420 0.540973
C23   C     C_R   0.936609 0.357002 0.452194 -0.015944
C24   C     C_R   0.063390 0.642998 0.547816 -0.015937
C25   C     C_R   0.969901 0.500271 0.496074 -0.016706
C26   C     C_R   0.030097 0.499729 0.503933 -0.016703
C27   C     C_R   0.943139 0.644075 0.532382 -0.014424
C28   C     C_R   0.056859 0.355925 0.467621 -0.014418
C29   C     C_R   0.963731 0.214306 0.416570 -0.161641
C30   C     C_R   0.036267 0.785693 0.583441 -0.161640
C31   C     C_R   0.023265 0.213769 0.424243 -0.172124
C32   C     C_R   0.976733 0.786231 0.575762 -0.172124
Cu1   Cu    Cu3+1 0.506340 0.517380 0.684380 1.042207
Cu2   Cu    Cu3+1 0.493660 0.482620 0.315620 1.042212
H1    H     H_    0.939082 0.102684 0.382742 0.194365
H2    H     H_    0.060917 0.897315 0.617270 0.194365
H3    H     H_    0.042824 0.101751 0.395764 0.187516
H4    H     H_    0.957175 0.898249 0.604240 0.187514
H5    H     H_    0.225052 0.538900 0.811141 0.138762
H6    H     H_    0.774960 0.461609 0.188905 0.138677
H7    H     H_    0.329591 0.539514 0.806848 0.170991
H8    H     H_    0.670418 0.460990 0.193193 0.170899
H9    H     H_    0.310970 0.459014 0.208665 0.165143
H10   H     H_    0.689022 0.540467 0.791292 0.165131
H11   H     H_    0.206899 0.458268 0.216485 0.137993
H12   H     H_    0.793096 0.541217 0.783474 0.137935
H13   H     H_    0.455199 0.379420 0.948735 0.237935
H14   H     H_    0.544801 0.620580 0.051265 0.237930
N1    N     N_R   0.851638 0.501279 0.483675 -0.476192
N2    N     N_R   0.148361 0.498721 0.516328 -0.476179
N3    N     N_2   0.484110 0.456420 0.038520 -0.184753
N4    N     N_2   0.515890 0.543580 0.961480 -0.184756
O1    O     O_R   0.504120 0.286130 0.619770 -0.564737
O2    O     O_R   0.495880 0.713870 0.380230 -0.564735
O3    O     O_R   0.493410 0.256770 0.308360 -0.535408
O4    O     O_R   0.506590 0.743230 0.691640 -0.535409
O5    O     O_R   0.423230 0.514630 0.655730 -0.597977
O6    O     O_R   0.576770 0.485370 0.344270 -0.597966
O7    O     O_R   0.412530 0.485280 0.344320 -0.575455
O8    O     O_R   0.587470 0.514720 0.655680 -0.575461
O9    O     O_2   0.856752 0.777902 0.560128 -0.507440
O10   O     O_2   0.143246 0.222096 0.439871 -0.507463
O11   O     O_2   0.844179 0.224695 0.406239 -0.501823
O12   O     O_2   0.155820 0.775306 0.593773 -0.501850
Cl1   Cl    Cl    0.438757 0.939727 0.247595 -0.568310
Cl2   Cl    Cl    0.561243 0.060273 0.752404 -0.568283

loop_
_geom_bond_atom_site_label_1
_geom_bond_atom_site_label_2
_ccdc_geom_bond_type
H13   N3    S    
N3    N4    D    
C20   O10   S    
C4    H6    S    
C1    C15   S    
C32   H4    S    
C30   C32   A    
C2    C16   S    
C29   H1    S    
C26   C28   A    
C3    C13   A    
C10   H10   S    
C30   H2    S    
C22   N2    A    
Cu1   O4    S    
C21   N1    A    
Cu1   Cu2   S    
C1    O3    A    
C3    H5    S    
Cu2   O3    S    
C29   C31   A    
C2    O4    A    
Cu1   N4    S    
C4    C14   A    
C11   C13   A    
Cu2   N3    S    
C10   C12   A    
C17   O7    A    
C20   N2    A    
C6    C8    A    
C23   C29   A    
C4    C6    A    
C19   C27   A    
C25   C26   A    
C12   C14   A    
Cu2   O2    S    
Cu1   O8    S    
C24   C30   A    
C9    C11   A    
C21   C23   A    
Cu1   O1    S    
Cu2   O7    S    
C19   O9    S    
Cu2   O6    S    
C22   C24   A    
C19   N1    A    
C9    H9    S    
C14   N1    S    
C11   H11   S    
C15   C16   D    
C22   O12   S    
C13   N2    S    
C15   Cl1   S    
C7    C9    A    
H14   N4    S    
C23   C25   A    
C16   Cl2   S    
C8    C10   A    
C2    O2    A    
C18   O8    A    
C5    C7    A    
C1    O1    A    
C12   H12   S    
Cu1   O5    S    
C20   C28   A    
C3    C5    A    
C27   C32   A    
C17   O5    A    
C6    H8    S    
C18   O6    A    
C28   C31   A    
C8    C18   S    
C31   H3    S    
C21   O11   S    
C24   C26   A    
C5    H7    S    
C25   C27   A    
C7    C17   S    
