data_str_m2_o41_o41_f0_fof.sym.84
_audit_creation_date              2012-10-26T17:13:10-0400
_audit_creation_method            fapswitch 2.2
_symmetry_space_group_name_H-M    P1
_symmetry_Int_Tables_number       1
_space_group_crystal_system       triclinic
_cell_length_a                    16.815138
_cell_length_b                    16.776279
_cell_length_c                    16.847715
_cell_angle_alpha                 67.458983
_cell_angle_beta                  67.974216
_cell_angle_gamma                 67.861105
_cell_volume                      3915.51725503

loop_
_atom_site_label
_atom_site_type_symbol
_atom_type_description
_atom_site_fract_x
_atom_site_fract_y
_atom_site_fract_z
_atom_type_partial_charge
C1    C     C_R   0.319190 0.961827 0.452403 0.022274
C2    C     C_R   0.681840 0.013881 0.559595 -0.042177
C3    C     C_R   0.971570 0.451177 0.320071 0.022038
C4    C     C_R   0.048170 0.544337 0.680127 -0.025274
C5    C     C_R   0.454330 0.322162 0.954940 -0.030427
C6    C     C_R   0.546048 0.675426 0.050206 -0.026208
C7    C     C_R   0.545041 0.042980 0.679601 -0.028610
C8    C     C_R   0.427598 0.009704 0.311362 -0.044309
C9    C     C_R   0.678736 0.547682 0.042391 -0.034504
C10   C     C_R   0.313979 0.430252 0.001116 -0.043991
C11   C     C_R   0.033400 0.678566 0.554262 -0.042427
C12   C     C_R   0.999451 0.311093 0.437253 0.009587
C13   C     C_R   0.442338 0.003665 0.452923 0.012529
C14   C     C_R   0.538865 0.019954 0.547979 0.010296
C15   C     C_R   0.984501 0.451424 0.460741 0.010776
C16   C     C_R   0.009921 0.543027 0.554906 0.008618
C17   C     C_R   0.454104 0.449182 0.993164 0.011974
C18   C     C_R   0.544181 0.542944 0.022370 0.012933
C19   C     C_R   0.028368 0.827977 0.565025 0.817013
C20   C     C_R   0.980669 0.170150 0.432061 0.858139
C21   C     C_R   0.828068 0.564148 0.029628 0.827337
C22   C     C_R   0.170783 0.432009 0.979370 0.813403
C23   C     C_R   0.563871 0.029690 0.828072 0.810723
C24   C     C_R   0.431554 0.981215 0.170284 0.825040
C25   C     C_R   0.436781 0.172035 0.968966 0.795780
C26   C     C_R   0.563647 0.827585 0.031197 0.824978
C27   C     C_R   0.974577 0.434963 0.171496 0.825991
C28   C     C_R   0.031725 0.563272 0.828304 0.822607
C29   C     C_R   0.171629 0.970448 0.436242 0.842555
C30   C     C_R   0.828950 0.021825 0.566924 0.817164
C31   C     C_R   0.396335 0.991624 0.405523 -0.022673
C32   C     C_R   0.588679 0.026209 0.595805 0.001949
C33   C     C_R   0.980527 0.405153 0.407928 -0.029510
C34   C     C_R   0.028054 0.589342 0.597836 -0.001237
C35   C     C_R   0.407698 0.401050 0.981828 -0.004245
C36   C     C_R   0.590327 0.589842 0.036162 -0.001503
C37   C     C_R   0.270451 0.955367 0.402962 -0.093764
C38   C     C_R   0.730931 0.028932 0.604048 -0.129905
C39   C     C_R   0.965042 0.401676 0.269643 -0.124497
C40   C     C_R   0.052341 0.595266 0.728885 -0.136703
C41   C     C_R   0.404432 0.271745 0.951179 -0.134366
C42   C     C_R   0.596409 0.726749 0.052223 -0.140217
C43   C     C_R   0.596489 0.046247 0.728686 -0.136605
C44   C     C_R   0.390452 0.980719 0.266349 -0.131283
C45   C     C_R   0.728230 0.596905 0.049057 -0.137706
C46   C     C_R   0.267837 0.391676 0.975787 -0.130726
C47   C     C_R   0.045315 0.727881 0.599806 -0.134564
C48   C     C_R   0.978110 0.266568 0.393703 -0.109373
C49   C     C_R   0.450073 0.061573 0.708514 0.177115
C50   C     C_R   0.497441 0.052867 0.267056 0.159281
C51   C     C_R   0.033623 0.712461 0.463176 0.169210
C52   C     C_R   0.041490 0.265225 0.507455 0.150087
C53   C     C_R   0.712032 0.454611 0.048483 0.169007
C54   C     C_R   0.269754 0.497228 0.045885 0.155393
C55   C     C_R   0.295774 0.934143 0.547269 0.158991
C56   C     C_R   0.720364 0.991592 0.477060 0.154638
C57   C     C_R   0.549082 0.298682 0.929366 0.173983
C58   C     C_R   0.451145 0.701757 0.072557 0.162684
C59   C     C_R   0.971149 0.543626 0.288333 0.129159
C60   C     C_R   0.073616 0.448715 0.705846 0.167151
C61   C     C_R   0.314290 0.947854 0.315889 0.072256
C62   C     C_R   0.683867 0.054739 0.683939 0.092950
C63   C     C_R   0.949616 0.316703 0.315640 0.051331
C64   C     C_R   0.063227 0.682271 0.683999 0.098369
C65   C     C_R   0.316792 0.315190 0.944379 0.097263
C66   C     C_R   0.683120 0.682362 0.064072 0.093988
C67   C     C_R   0.666515 0.019884 0.418718 0.006008
C68   C     C_R   0.330335 0.963006 0.594347 -0.013745
C69   C     C_R   0.049260 0.401824 0.667774 0.041466
C70   C     C_R   0.945319 0.592247 0.349744 -0.013671
C71   C     C_R   0.406024 0.661309 0.048893 0.043325
C72   C     C_R   0.593936 0.335301 0.957705 0.044549
C73   C     C_R   0.557084 0.041767 0.314434 0.007135
C74   C     C_R   0.407131 0.028741 0.673878 0.042989
C75   C     C_R   0.313835 0.559196 0.034732 0.008238
C76   C     C_R   0.678223 0.418206 0.009241 0.000654
C77   C     C_R   0.029805 0.309764 0.569196 -0.011837
C78   C     C_R   0.988144 0.679795 0.432938 -0.001024
C79   C     C_R   0.700629 0.039759 0.324586 0.158983
C80   C     C_R   0.293679 0.962263 0.686660 0.170913
C81   C     C_R   0.054443 0.308262 0.704542 0.196565
C82   C     C_R   0.926246 0.686789 0.320256 0.151666
C83   C     C_R   0.314283 0.698768 0.049979 0.179105
C84   C     C_R   0.685053 0.295683 0.958967 0.175078
C85   C     C_R   0.645472 0.051463 0.271747 0.150832
C86   C     C_R   0.322689 0.010557 0.719404 0.185118
C87   C     C_R   0.267424 0.646486 0.045027 0.164537
C88   C     C_R   0.727626 0.338530 0.982935 0.151169
C89   C     C_R   0.040701 0.263274 0.656236 0.165484
C90   C     C_R   0.955059 0.730168 0.357079 0.153470
C91   C     C_R   0.525523 0.022417 0.408103 -0.035000
C92   C     C_R   0.451101 0.013461 0.589787 -0.042233
C93   C     C_R   0.008517 0.403865 0.541601 -0.026565
C94   C     C_R   0.983930 0.590421 0.475305 -0.036613
C95   C     C_R   0.407270 0.530715 0.015883 -0.038606
C96   C     C_R   0.590032 0.459189 0.003760 -0.035488
C97   C     C_R   0.576931 0.021077 0.457925 -0.034473
C98   C     C_R   0.406697 0.994782 0.545474 -0.033620
C99   C     C_R   0.452976 0.579839 0.026299 -0.044592
C100  C     C_R   0.546292 0.414677 0.984365 -0.048380
C101  C     C_R   0.019111 0.449958 0.590210 -0.046068
C102  C     C_R   0.966906 0.545257 0.431027 -0.017541
Cu1   Cu    Cu3+1 0.995180 0.995180 0.424630 0.939930
Cu2   Cu    Cu3+1 0.004820 0.004820 0.575370 0.903364
Cu3   Cu    Cu3+1 0.995180 0.424630 0.995180 0.918022
Cu4   Cu    Cu3+1 0.004820 0.575370 0.004820 0.920249
Cu5   Cu    Cu3+1 0.424630 0.995180 0.995180 0.894251
Cu6   Cu    Cu3+1 0.575370 0.004820 0.004820 0.915772
O1    O     O_R   0.124540 0.978640 0.385460 -0.575938
O2    O     O_R   0.875460 0.021360 0.614540 -0.579951
O3    O     O_R   0.978640 0.385460 0.124540 -0.572999
O4    O     O_R   0.021360 0.614540 0.875460 -0.571795
O5    O     O_R   0.385460 0.124540 0.978640 -0.579748
O6    O     O_R   0.614540 0.875460 0.021360 -0.569627
O7    O     O_R   0.614540 0.021360 0.875460 -0.579469
O8    O     O_R   0.385460 0.978640 0.124540 -0.590611
O9    O     O_R   0.875460 0.614540 0.021360 -0.582405
O10   O     O_R   0.124540 0.385460 0.978640 -0.593418
O11   O     O_R   0.021360 0.875460 0.614540 -0.585627
O12   O     O_R   0.978640 0.124540 0.385460 -0.583298
O13   O     O_R   0.013780 0.867370 0.487190 -0.561763
O14   O     O_R   0.986220 0.132630 0.512810 -0.586889
O15   O     O_R   0.867370 0.487190 0.013780 -0.560733
O16   O     O_R   0.132630 0.512810 0.986220 -0.570097
O17   O     O_R   0.487190 0.013780 0.867370 -0.596540
O18   O     O_R   0.512810 0.986220 0.132630 -0.563496
O19   O     O_R   0.512810 0.132630 0.986220 -0.590861
O20   O     O_R   0.487190 0.867370 0.013780 -0.595927
O21   O     O_R   0.986220 0.512810 0.132630 -0.565690
O22   O     O_R   0.013780 0.487190 0.867370 -0.601577
O23   O     O_R   0.132630 0.986220 0.512810 -0.588873
O24   O     O_R   0.867370 0.013780 0.487190 -0.567438
C103  C     C_3   0.285766 0.894118 0.282128 -0.764740
H1    H     H_    0.345430 0.845644 0.253674 0.211140
H2    H     H_    0.243882 0.852253 0.337003 0.221479
H3    H     H_    0.248201 0.938892 0.232023 0.254958
C104  C     C_3   0.720287 0.104315 0.714808 -0.764356
H4    H     H_    0.665043 0.150051 0.750889 0.207382
H5    H     H_    0.763986 0.056511 0.758449 0.253500
H6    H     H_    0.756818 0.149399 0.657104 0.223427
C105  C     C_3   0.894682 0.284541 0.286485 -0.762911
H7    H     H_    0.848640 0.250346 0.345285 0.214538
H8    H     H_    0.850510 0.341830 0.248791 0.214644
H9    H     H_    0.938702 0.238725 0.244567 0.258439
C106  C     C_3   0.106996 0.720121 0.719776 -0.784023
H10   H     H_    0.154161 0.754375 0.663637 0.224015
H11   H     H_    0.056297 0.767002 0.758051 0.254734
H12   H     H_    0.148821 0.666221 0.762577 0.219069
C107  C     C_3   0.282132 0.287122 0.891637 -0.782593
H13   H     H_    0.336768 0.245618 0.850495 0.215907
H14   H     H_    0.231953 0.249660 0.935956 0.255117
H15   H     H_    0.254372 0.347691 0.843015 0.215104
C108  C     C_3   0.722131 0.720492 0.104817 -0.767712
H16   H     H_    0.761638 0.665906 0.149458 0.211795
H17   H     H_    0.764710 0.762828 0.051751 0.254671
H18   H     H_    0.668670 0.760570 0.148688 0.218271
C109  C     C_3   0.265056 0.040049 0.802675 -0.861916
H19   H     H_    0.197132 0.031355 0.826477 0.225521
H20   H     H_    0.298179 0.003903 0.857496 0.230593
H21   H     H_    0.251600 0.113328 0.787103 0.246340
C110  C     C_3   0.682659 0.068061 0.171442 -0.826037
H22   H     H_    0.756339 0.048915 0.149076 0.219212
H23   H     H_    0.662319 0.027090 0.147988 0.255947
H24   H     H_    0.658442 0.140328 0.138009 0.242742
C111  C     C_3   0.949217 0.829009 0.315033 -0.821247
H25   H     H_    0.961437 0.859445 0.355652 0.284496
H26   H     H_    0.997872 0.839094 0.248229 0.218955
H27   H     H_    0.881347 0.866226 0.307512 0.232879
C112  C     C_3   0.024884 0.171001 0.702079 -0.893899
H28   H     H_    0.972258 0.171251 0.766144 0.229441
H29   H     H_    0.997937 0.151117 0.663896 0.245538
H30   H     H_    0.087588 0.119997 0.714185 0.236141
C113  C     C_3   0.827592 0.304050 0.971527 -0.824151
H31   H     H_    0.862183 0.284558 0.908467 0.228083
H32   H     H_    0.856795 0.356000 0.965467 0.266371
H33   H     H_    0.842528 0.245420 0.028937 0.223048
C114  C     C_3   0.171194 0.688166 0.040953 -0.847775
H34   H     H_    0.167501 0.744962 0.979501 0.214246
H35   H     H_    0.140980 0.642394 0.036584 0.276846
H36   H     H_    0.129840 0.712659 0.100364 0.222037
C115  C     C_3   0.226863 0.910297 0.751645 -0.895393
H37   H     H_    0.159870 0.945240 0.739970 0.223998
H38   H     H_    0.250400 0.840325 0.748475 0.228204
H39   H     H_    0.221087 0.899667 0.822403 0.237467
C116  C     C_3   0.789702 0.061780 0.279935 -0.842493
H40   H     H_    0.780023 0.130223 0.232693 0.225612
H41   H     H_    0.820446 0.061872 0.327686 0.263047
H42   H     H_    0.837707 0.013421 0.242560 0.219779
C117  C     C_3   0.734417 0.203947 0.943425 -0.862298
H43   H     H_    0.690055 0.158831 0.976744 0.237355
H44   H     H_    0.759802 0.210573 0.870792 0.250361
H45   H     H_    0.791506 0.168676 0.973096 0.226432
C118  C     C_3   0.268353 0.795983 0.050395 -0.848660
H46   H     H_    0.217006 0.828898 0.013264 0.222778
H47   H     H_    0.236389 0.799968 0.120103 0.239952
H48   H     H_    0.316492 0.837154 0.015199 0.230688
C119  C     C_3   0.875498 0.740524 0.250057 -0.891880
H49   H     H_    0.917311 0.777951 0.189507 0.228631
H50   H     H_    0.853864 0.697239 0.230808 0.232370
H51   H     H_    0.813784 0.788663 0.277075 0.241680
C120  C     C_3   0.068557 0.258709 0.797111 -0.854450
H52   H     H_    0.054600 0.192580 0.827102 0.227150
H53   H     H_    0.139089 0.245313 0.794208 0.247044
H54   H     H_    0.024060 0.299122 0.844157 0.227360
N1    N     N_3   0.398830 0.137641 0.743035 -0.599201
H55   H     H_    0.372236 0.116905 0.811778 0.249439
H56   H     H_    0.438691 0.178902 0.729461 0.205242
N2    N     N_3   0.496339 0.121863 0.183313 -0.541261
H57   H     H_    0.497594 0.180087 0.191474 0.203636
H58   H     H_    0.434922 0.139839 0.170112 0.206991
N3    N     N_3   0.101040 0.755506 0.397766 -0.556538
H59   H     H_    0.133918 0.722631 0.347819 0.211685
H60   H     H_    0.150619 0.745321 0.426646 0.205187
N4    N     N_3   0.118481 0.190004 0.495121 -0.573981
H61   H     H_    0.117894 0.136246 0.552644 0.254192
H62   H     H_    0.175363 0.210241 0.480346 0.211153
N5    N     N_3   0.759786 0.393616 0.113929 -0.553415
H63   H     H_    0.729730 0.341304 0.151545 0.207384
H64   H     H_    0.750411 0.425864 0.160229 0.196294
N6    N     N_3   0.194998 0.485045 0.122465 -0.537069
H65   H     H_    0.182376 0.423981 0.136226 0.211642
H66   H     H_    0.213798 0.477960 0.177913 0.208087
N7    N     N_3   0.253702 0.862678 0.590507 -0.612004
H67   H     H_    0.191818 0.882146 0.633978 0.254368
H68   H     H_    0.296072 0.806019 0.622853 0.214829
N8    N     N_3   0.797844 0.916331 0.466979 -0.547978
H69   H     H_    0.781326 0.870900 0.451408 0.210724
H70   H     H_    0.811659 0.880479 0.528749 0.216550
N9    N     N_3   0.597389 0.264408 0.853136 -0.600068
H71   H     H_    0.618669 0.194828 0.873015 0.246450
H72   H     H_    0.556841 0.284263 0.810865 0.205998
N10   N     N_3   0.402029 0.739553 0.146564 -0.602356
H73   H     H_    0.442609 0.724656 0.187428 0.205520
H74   H     H_    0.377179 0.808772 0.124743 0.253044
N11   N     N_3   0.034862 0.574076 0.207237 -0.525510
H75   H     H_    0.081884 0.588839 0.222264 0.217349
H76   H     H_    0.003431 0.632689 0.166065 0.241091
N12   N     N_3   0.148711 0.401705 0.742724 -0.602838
H77   H     H_    0.189243 0.443546 0.725064 0.207622
H78   H     H_    0.127261 0.378975 0.811846 0.253343

loop_
_geom_bond_atom_site_label_1
_geom_bond_atom_site_label_2
_ccdc_geom_bond_type
C68   C80   A    
Cu4   O21   S    
C83   C87   A    
C9    C45   A    
C109  H19   S    
C64   C106  S    
C119  H51   S    
C18   C96   A    
C120  H52   S    
C6    C58   A    
C11   C47   A    
N7    H67   S    
C58   N10   S    
C79   C85   A    
C12   C48   A    
C106  H12   S    
N6    H66   S    
C110  H22   S    
C75   C95   A    
Cu4   O4    S    
N1    H55   S    
C78   C90   A    
C104  H5    S    
C77   C89   A    
C111  H25   S    
C96   C100  A    
C30   O2    A    
C81   C120  S    
C60   C69   A    
Cu6   O7    S    
C29   O1    A    
Cu5   O20   S    
C15   C33   A    
C107  H14   S    
C12   C33   A    
C72   C100  A    
C19   C47   S    
C58   C71   A    
C116  H41   S    
Cu2   O14   S    
C3    C33   A    
C95   C99   A    
Cu6   O6    S    
C87   C114  S    
N12   H78   S    
C115  H37   S    
C1    C31   A    
C23   C43   S    
Cu3   O15   S    
C2    C32   A    
C112  H28   S    
C74   C92   A    
C13   C98   A    
C117  H44   S    
C85   C110  S    
Cu5   O5    S    
C80   C86   A    
N9    H72   S    
C110  H23   S    
Cu6   O19   S    
Cu1   O12   S    
C27   C39   S    
N2    H57   S    
C114  H35   S    
Cu2   O23   S    
N11   H76   S    
C9    C36   A    
C21   O9    A    
Cu5   Cu6   S    
C42   C66   A    
C10   C35   A    
C17   C95   A    
C7    C43   A    
C108  H17   S    
Cu1   Cu2   S    
Cu1   O24   S    
C76   C88   A    
N5    H64   S    
C20   O14   A    
C118  H46   S    
C1    C37   A    
C104  H4    S    
C23   O17   A    
Cu2   O11   S    
C81   C89   A    
C118  H48   S    
C113  H32   S    
Cu3   O3    S    
C73   C91   A    
C19   O11   A    
C109  H20   S    
C13   C91   A    
C24   O18   A    
C120  H53   S    
C119  H49   S    
C21   C45   S    
C10   C54   A    
N10   H74   S    
N6    H65   S    
C106  H11   S    
C106  H10   S    
C71   C83   A    
C115  H38   S    
C53   N5    S    
C104  H6    S    
C4    C34   A    
C72   C84   A    
C61   C103  S    
C4    C40   A    
C67   C79   A    
Cu5   O17   S    
C46   C65   A    
C50   C73   A    
C25   C41   S    
C47   C64   A    
C3    C39   A    
C55   C68   A    
N4    H61   S    
C48   C63   A    
C41   C65   A    
C62   C104  S    
C118  H47   S    
N5    H63   S    
C113  H31   S    
C71   C99   A    
C91   C97   A    
C88   C113  S    
C29   C37   S    
C105  H8    S    
C21   O15   A    
C117  H45   S    
C92   C98   A    
C26   O6    A    
C28   C40   S    
C10   C46   A    
N9    H71   S    
C25   O5    A    
C103  H3    S    
C57   N9    S    
C2    C38   A    
N3    H59   S    
N11   H75   S    
C114  H36   S    
C14   C92   A    
C4    C60   A    
C52   N4    S    
C63   C105  S    
C115  H39   S    
C84   C117  S    
C26   O20   A    
C80   C115  S    
C74   C86   A    
C108  H18   S    
C54   N6    S    
C7    C49   A    
C20   C48   S    
C82   C119  S    
C69   C81   A    
C70   C102  A    
C75   C87   A    
C22   C46   S    
C49   N1    S    
C24   O8    A    
C111  H27   S    
N8    H70   S    
C16   C34   A    
C90   C111  S    
C103  H1    S    
C24   C44   S    
C112  H30   S    
Cu3   O10   S    
C107  H15   S    
C53   C76   A    
C9    C53   A    
C18   C99   A    
C93   C101  A    
C52   C77   A    
Cu1   O13   S    
C8    C50   A    
C20   O12   A    
C110  H24   S    
C26   C42   S    
C14   C97   A    
C55   N7    S    
C112  H29   S    
C113  H33   S    
C22   O10   A    
C5    C41   A    
N12   H77   S    
C19   O13   A    
C7    C32   A    
C79   C116  S    
N3    H60   S    
C8    C31   A    
C114  H34   S    
C13   C31   A    
C11   C34   A    
C59   N11   S    
C84   C88   A    
C14   C32   A    
C116  H42   S    
C40   C64   A    
C15   C93   A    
C66   C108  S    
C37   C61   A    
N7    H68   S    
C22   O16   A    
Cu3   O22   S    
C105  H9    S    
C69   C101  A    
C44   C61   A    
C109  H21   S    
C56   C67   A    
C39   C63   A    
Cu3   Cu4   S    
C12   C52   A    
C16   C94   A    
C82   C90   A    
C5    C57   A    
Cu1   O1    S    
C119  H50   S    
C25   O19   A    
C51   C78   A    
C89   C112  S    
C73   C85   A    
Cu4   O9    S    
N2    H58   S    
C2    C56   A    
C105  H7    S    
C76   C96   A    
Cu2   O2    S    
C28   O22   A    
C116  H40   S    
C29   O23   A    
C86   C109  S    
C56   N8    S    
C78   C94   A    
C27   O21   A    
C5    C35   A    
C77   C93   A    
N10   H73   S    
C120  H54   S    
C23   O7    A    
C6    C36   A    
N4    H62   S    
C15   C102  A    
C1    C55   A    
C117  H43   S    
C70   C82   A    
C17   C100  A    
C68   C98   A    
Cu5   O8    S    
C11   C51   A    
C67   C97   A    
C59   C70   A    
C27   O3    A    
C54   C75   A    
C30   O24   A    
C51   N3    S    
C16   C101  A    
C60   N12   S    
C94   C102  A    
C111  H26   S    
N8    H69   S    
C6    C42   A    
Cu4   O16   S    
C45   C66   A    
C103  H2    S    
C65   C107  S    
C57   C72   A    
C49   C74   A    
C17   C35   A    
C30   C38   S    
Cu6   O18   S    
C108  H16   S    
C107  H13   S    
N1    H56   S    
C18   C36   A    
C28   O4    A    
C43   C62   A    
C3    C59   A    
C83   C118  S    
C38   C62   A    
C8    C44   A    
C50   N2    S    
