data_str_m12_o9_o10_f0_bcu.sym.33
_audit_creation_date              2012-12-11T17:37:47-0500
_audit_creation_method            fapswitch 2.2
_symmetry_space_group_name_H-M    P1
_symmetry_Int_Tables_number       1
_space_group_crystal_system       triclinic
_cell_length_a                    12.955172
_cell_length_b                    13.050282
_cell_length_c                    15.300937
_cell_angle_alpha                 115.836183
_cell_angle_beta                  64.278154
_cell_angle_gamma                 96.606833
_cell_volume                      2088.84746919

loop_
_atom_site_label
_atom_site_type_symbol
_atom_type_description
_atom_site_fract_x
_atom_site_fract_y
_atom_site_fract_z
_atom_type_partial_charge
C1    C     C_R   0.024935 0.833321 0.027086 -0.131535
C2    C     C_R   0.319923 0.536431 0.780732 -0.143556
C3    C     C_R   0.245109 0.478424 0.106133 -0.179185
C4    C     C_R   0.702266 0.405540 0.209142 -0.155027
C5    C     C_R   0.985247 0.304201 0.698376 -0.155222
C6    C     C_R   0.337734 0.538448 0.073539 0.164177
C7    C     C_R   0.931532 0.207934 0.696223 0.054355
C8    C     C_R   0.325864 0.468252 0.679378 0.067964
C9    C     C_R   0.082560 0.146213 0.974152 0.031997
C10   C     C_R   0.364868 0.854209 0.252468 -0.100262
C11   C     C_R   0.248156 0.876710 0.323453 -0.129067
C12   C     C_R   0.706499 0.436043 0.305562 0.073489
C13   C     C_R   0.181528 0.964210 0.336488 0.124831
C14   C     C_R   0.232765 0.028302 0.277199 -0.188209
C15   C     C_R   0.348862 0.003267 0.203991 -0.111852
C16   C     C_R   0.739276 0.579493 0.948922 -0.152964
C17   C     C_R   0.414996 0.916443 0.191854 -0.098500
C18   C     C_R   0.039371 0.093895 0.510686 -0.233106
C19   C     C_R   0.933160 0.118897 0.599874 0.070565
C20   C     C_R   0.842090 0.049625 0.597690 0.022726
C21   C     C_R   0.862855 0.951425 0.503324 -0.242173
C22   C     C_R   0.971657 0.924582 0.416148 0.064487
C23   C     C_R   0.637599 0.561708 0.022236 0.154377
C24   C     C_R   0.061036 0.995539 0.419542 0.007731
C25   C     C_R   0.671431 0.993548 0.724365 -0.170470
C26   C     C_R   0.564811 0.021067 0.813936 -0.110769
C27   C     C_R   0.512798 0.132967 0.871391 -0.100872
C28   C     C_R   0.963369 0.717390 0.315384 -0.147297
C29   C     C_R   0.567049 0.217520 0.839139 -0.101742
C30   C     C_R   0.673306 0.190285 0.749283 -0.121473
C31   C     C_R   0.727195 0.078101 0.691376 0.114616
C32   C     C_R   0.924492 0.254356 0.355798 -0.109534
C33   C     C_R   0.816869 0.281978 0.366768 -0.135052
C34   C     C_R   0.989640 0.824336 0.320754 0.059575
C35   C     C_R   0.745078 0.376314 0.457748 0.129605
C36   C     C_R   0.783041 0.443312 0.537310 -0.162210
C37   C     C_R   0.890105 0.415009 0.526552 -0.128471
C38   C     C_R   0.960739 0.320442 0.435918 -0.097239
C39   C     C_R   0.531011 0.409934 0.562445 -0.011007
C40   C     C_R   0.661999 0.481966 0.048111 -0.113996
C41   C     C_R   0.424100 0.451817 0.581616 -0.006280
C42   C     C_R   0.411928 0.483057 0.508969 0.005924
C43   C     C_R   0.506038 0.465386 0.414869 -0.240604
C44   C     C_R   0.613494 0.429414 0.396865 0.052784
C45   C     C_R   0.323332 0.577206 0.009253 -0.103669
C46   C     C_R   0.629059 0.404565 0.471603 -0.050143
C47   C     C_R   0.253583 0.495689 0.460168 -0.192971
C48   C     C_R   0.155023 0.552410 0.480037 -0.123476
C49   C     C_R   0.107564 0.656077 0.570990 -0.105885
C50   C     C_R   0.159385 0.703950 0.641613 -0.111835
C51   C     C_R   0.258746 0.648216 0.621421 -0.121311
C52   C     C_R   0.047375 0.817615 0.218566 -0.113543
C53   C     C_R   0.305812 0.542685 0.531232 0.135981
C54   C     C_2   0.432666 0.558584 0.102133 -0.228110
C55   C     C_2   0.524292 0.602200 0.049943 -0.227026
C56   C     C_R   0.907294 0.200053 0.789961 -0.131821
C57   C     C_2   0.896694 0.961965 0.018659 -0.209781
C58   C     C_2   0.876001 0.051318 0.112507 -0.162628
C59   C     C_R   0.801148 0.494675 0.305862 -0.125513
C60   C     C_R   0.928702 0.747503 0.927539 -0.146293
C61   C     C_R   0.952017 0.852719 0.989621 0.138305
C62   C     C_1   0.539213 0.370455 0.634661 0.057771
C63   C     C_R   0.217045 0.444445 0.686286 -0.107121
C64   C     C_R   0.096234 0.251563 0.046783 -0.117112
C65   C     C_R   0.997773 0.167996 0.949754 -0.081167
H1    H     H_    0.068229 0.897249 0.068924 0.088064
H2    H     H_    0.210490 0.828384 0.370485 0.113052
H3    H     H_    0.644384 0.349819 0.180120 0.096812
H4    H     H_    0.182715 0.097240 0.287698 0.103030
H5    H     H_    0.387921 0.052172 0.157786 0.103179
H6    H     H_    0.110230 0.146027 0.515117 0.135114
H7    H     H_    0.794680 0.896136 0.497072 0.134182
H8    H     H_    0.711198 0.906754 0.681916 0.104734
H9    H     H_    0.522758 0.955667 0.839152 0.102613
H10   H     H_    0.430456 0.154154 0.940875 0.098417
H11   H     H_    0.526688 0.304209 0.883675 0.126839
H12   H     H_    0.857749 0.138364 0.816825 0.099943
H13   H     H_    0.713564 0.256822 0.725016 0.122703
H14   H     H_    0.043644 0.298596 0.427659 0.097970
H15   H     H_    0.746776 0.628473 0.905573 0.089228
H16   H     H_    0.979876 0.181594 0.285566 0.096383
H17   H     H_    0.788423 0.230090 0.305397 0.122352
H18   H     H_    0.729408 0.517171 0.607843 0.104888
H19   H     H_    0.918304 0.466490 0.588475 0.112397
H20   H     H_    0.497137 0.490650 0.359390 0.133965
H21   H     H_    0.288924 0.414974 0.389782 0.109014
H22   H     H_    0.115344 0.515912 0.424945 0.114436
H23   H     H_    0.156193 0.266769 0.081930 0.092914
H24   H     H_    0.030912 0.699514 0.586484 0.099226
H25   H     H_    0.122836 0.784512 0.711797 0.110420
H26   H     H_    0.925196 0.692121 0.380512 0.096005
H27   H     H_    0.298730 0.686925 0.676169 0.109074
H28   H     H_    0.435512 0.516416 0.148448 0.129086
H29   H     H_    0.520176 0.648998 0.007808 0.128987
H30   H     H_    0.862262 0.967220 0.967384 0.127160
H31   H     H_    0.903399 0.047745 0.168815 0.128272
H32   H     H_    0.604176 0.442941 0.098104 0.087055
H33   H     H_    0.086823 0.884815 0.196022 0.096660
H34   H     H_    0.966738 0.105506 0.894315 0.088230
H35   H     H_    0.833956 0.523700 0.365901 0.102177
H36   H     H_    0.885025 0.732181 0.877577 0.087034
H37   H     H_    0.368975 0.640002 0.982144 0.082360
H38   H     H_    0.192124 0.397089 0.621498 0.103111
H39   H     H_    0.389114 0.574631 0.802096 0.098973
H40   H     H_    0.223254 0.448839 0.167489 0.093725
H41   H     H_    0.007226 0.340653 0.641788 0.097970
H42   H     H_    0.505315 0.898238 0.136436 0.104776
H43   H     H_    0.416754 0.789726 0.245850 0.133459
N1    N     N_R   0.037320 0.720000 0.995830 -0.044624
N2    N     N_R   0.824900 0.517970 0.936430 -0.040371
N3    N     N_R   0.003190 0.648180 0.211390 -0.037865
N4    N     N_R   0.774330 0.457010 0.995830 -0.045224
N5    N     N_R   0.053760 0.709130 0.151980 -0.040232
N6    N     N_R   0.853840 0.498830 0.211390 -0.040238
N7    N     N_R   0.974250 0.667320 0.936430 -0.038623
N8    N     N_R   0.225670 0.542990 0.004170 -0.044477
N9    N     N_1   0.545350 0.339198 0.692466 -0.091918
N10   N     N_R   0.946240 0.290870 0.848020 -0.041192
N11   N     N_R   0.146160 0.501170 0.788610 -0.043441
N12   N     N_R   0.025750 0.332680 0.063570 -0.040229
N13   N     N_R   0.962680 0.280000 0.004170 -0.044294
N14   N     N_R   0.209230 0.553860 0.848010 -0.044085
N15   N     N_R   0.175100 0.482030 0.063570 -0.039897
N16   N     N_R   0.996810 0.351820 0.788610 -0.037270
N17   N     N_R   0.790770 0.446140 0.151990 -0.039205
Ni1   Ni    Ni4+2 0.130310 0.630310 0.000000 0.211527
Ni2   Ni    Ni4+2 0.869690 0.369690 0.000000 0.213424
Ni3   Ni    Ni4+2 0.985660 0.509480 0.863750 0.213936
Ni4   Ni    Ni4+2 0.014340 0.490520 0.136250 0.214132

loop_
_geom_bond_atom_site_label_1
_geom_bond_atom_site_label_2
_ccdc_geom_bond_type
C25   C31   A    
N8    N15   A    
C27   C29   A    
C9    C64   A    
C41   C42   A    
C10   H43   S    
C35   C36   A    
C3    C6    A    
C16   N2    A    
C40   N4    A    
C29   H11   S    
C52   N5    A    
C3    H40   S    
C32   H16   S    
C5    N16   A    
C26   C27   A    
C29   C30   A    
C4    N17   A    
C18   C24   A    
C36   C37   A    
C6    C45   A    
N13   Ni2   S    
C17   H42   S    
C42   C53   S    
C30   C31   A    
C38   H14   S    
C36   H18   S    
C23   C40   A    
C18   C19   A    
C39   C62   S    
C58   H31   S    
C26   H9    S    
C62   N9    T    
C34   C52   A    
C1    N1    A    
C12   C59   A    
N3    Ni4   S    
C19   C20   A    
C11   H2    S    
N4    Ni2   S    
C50   H25   S    
C37   H19   S    
C32   C38   A    
C4    C12   A    
C33   H17   S    
C47   C53   A    
N11   Ni3   S    
C14   H4    S    
C28   C34   A    
N8    Ni1   S    
C13   C14   A    
N15   Ni4   S    
C59   H35   S    
C7    C56   A    
C6    C54   S    
C55   H29   S    
C27   H10   S    
C3    N15   A    
C50   C51   A    
C9    C65   A    
C5    H41   S    
C2    N14   A    
C28   N3    A    
C22   C34   S    
C21   H7    S    
N12   Ni4   S    
C43   H20   S    
C47   H21   S    
C8    C41   S    
C65   H34   S    
C39   C41   A    
C45   H37   S    
C40   H32   S    
C5    C7    A    
N6    N17   A    
N5    Ni1   S    
C44   C46   A    
C25   C26   A    
N7    Ni3   S    
C13   C24   S    
C60   C61   A    
C16   H15   S    
N10   Ni2   S    
N14   Ni1   S    
C43   C44   A    
C37   C38   A    
C51   H27   S    
C63   N11   A    
C47   C48   A    
C2    H39   S    
C1    H1    S    
C48   H22   S    
N3    N5    A    
N10   N16   A    
C57   C61   S    
C39   C46   A    
C63   H38   S    
C48   C49   A    
C16   C23   A    
C65   N13   A    
N6    Ni4   S    
C22   C24   A    
C42   C43   A    
C60   H36   S    
N12   N13   A    
C4    H3    S    
N11   N14   A    
C18   H6    S    
C15   C17   A    
C15   H5    S    
C54   C55   D    
C56   H12   S    
C56   N10   A    
C2    C8    A    
C49   H24   S    
C1    C61   A    
C23   C55   S    
C7    C19   S    
C64   N12   A    
N16   Ni3   S    
C32   C33   A    
C54   H28   S    
C12   C44   S    
C11   C13   A    
C45   N8    A    
C57   C58   D    
C59   N6    A    
C52   H33   S    
C33   C35   A    
C28   H26   S    
C25   H8    S    
N2    N4    A    
C10   C11   A    
N1    N7    A    
C8    C63   A    
C30   H13   S    
N1    Ni1   S    
C20   C21   A    
C49   C50   A    
C57   H30   S    
N17   Ni2   S    
C14   C15   A    
C60   N7    A    
C10   C17   A    
C51   C53   A    
C21   C22   A    
C35   C46   S    
C64   H23   S    
N2    Ni3   S    
C20   C31   S    
