data_str_m3_o10_o28_f0_pcu.sym.196
_audit_creation_date              2012-12-10T16:58:27-0500
_audit_creation_method            fapswitch 2.2
_symmetry_space_group_name_H-M    P1
_symmetry_Int_Tables_number       1
_space_group_crystal_system       triclinic
_cell_length_a                    7.840829
_cell_length_b                    8.535706
_cell_length_c                    23.427989
_cell_angle_alpha                 92.36427
_cell_angle_beta                  84.666826
_cell_angle_gamma                 93.824196
_cell_volume                      1556.73154143

loop_
_atom_site_label
_atom_site_type_symbol
_atom_type_description
_atom_site_fract_x
_atom_site_fract_y
_atom_site_fract_z
_atom_type_partial_charge
C1    C     C_R   0.545589 0.794457 0.498598 0.968799
C2    C     C_R   0.454411 0.205542 0.501402 0.968798
C3    C     C_R   0.658088 0.490409 0.756530 -0.102767
C4    C     C_R   0.341907 0.509551 0.243469 -0.102767
C5    C     C_R   0.656835 0.488876 0.697335 -0.219084
C6    C     C_R   0.343160 0.511098 0.302665 -0.219086
C7    C     C_R   0.502210 0.503225 0.672723 -0.038754
C8    C     C_R   0.497789 0.496763 0.327277 -0.038752
C9    C     C_R   0.349346 0.520280 0.708046 -0.211039
C10   C     C_R   0.650655 0.479706 0.291954 -0.211036
C11   C     C_R   0.351148 0.522024 0.767218 -0.094850
C12   C     C_R   0.648852 0.477948 0.232782 -0.094850
C13   C     C_R   0.505282 0.506497 0.791363 0.326574
C14   C     C_R   0.494715 0.493463 0.208636 0.326575
C15   C     C_2   0.569470 0.958219 0.497806 -0.375772
C16   C     C_2   0.430530 0.041781 0.502194 -0.375771
C17   C     C_R   0.500577 0.500947 0.610511 0.863708
C18   C     C_R   0.499423 0.499051 0.389489 0.863708
C19   C     C_R   0.417734 0.369687 0.119866 0.496674
C20   C     C_R   0.582263 0.630270 0.880133 0.496675
C21   C     C_R   0.571033 0.621307 0.119953 0.513644
C22   C     C_R   0.428965 0.378651 0.880047 0.513645
C23   C     C_R   0.577223 0.624153 0.060433 -0.054515
C24   C     C_R   0.422775 0.375804 0.939567 -0.054515
C25   C     C_R   0.496858 0.498478 0.030121 -0.047226
C26   C     C_R   0.503141 0.501479 0.969879 -0.047226
C27   C     C_R   0.410691 0.370184 0.059973 -0.079339
C28   C     C_R   0.589307 0.629773 0.940026 -0.079339
C29   C     C_R   0.664732 0.748982 0.031044 -0.199294
C30   C     C_R   0.335266 0.250974 0.968956 -0.199294
C31   C     C_R   0.674257 0.752870 0.971502 0.204430
C32   C     C_R   0.325741 0.247086 0.028497 0.204430
H1    H     H_    0.730618 0.843664 0.054233 0.203424
H2    H     H_    0.269381 0.156293 0.945766 0.203423
H3    H     H_    0.777198 0.478142 0.775438 0.136221
H4    H     H_    0.222794 0.521810 0.224561 0.136221
H5    H     H_    0.776470 0.475989 0.671001 0.163328
H6    H     H_    0.223523 0.523986 0.328999 0.163326
H7    H     H_    0.228614 0.532020 0.690096 0.162631
H8    H     H_    0.771390 0.467976 0.309904 0.162629
H9    H     H_    0.233059 0.534862 0.794404 0.138064
H10   H     H_    0.766943 0.465110 0.205595 0.138064
H11   H     H_    0.700695 0.009373 0.493640 0.170095
H12   H     H_    0.299305 0.990627 0.506360 0.170095
N1    N     N_R   0.493788 0.495097 0.147969 -0.352144
N2    N     N_R   0.506209 0.504861 0.852031 -0.352145
N3    N     N_2   0.950330 0.457950 0.484560 -0.003619
N4    N     N_2   0.049670 0.542050 0.515440 -0.003619
O1    O     O_R   0.389250 0.738570 0.503790 -0.612551
O2    O     O_R   0.610750 0.261430 0.496210 -0.612551
O3    O     O_R   0.678390 0.711620 0.493890 -0.641224
O4    O     O_R   0.321610 0.288380 0.506110 -0.641224
O5    O     O_R   0.355400 0.513520 0.588790 -0.616618
O6    O     O_R   0.644600 0.486480 0.411210 -0.616618
O7    O     O_R   0.644550 0.486570 0.578900 -0.632602
O8    O     O_R   0.355450 0.513430 0.421100 -0.632601
O9    O     O_2   0.354614 0.244430 0.150100 -0.563920
O10   O     O_2   0.645382 0.755528 0.849900 -0.563919
O11   O     O_2   0.642121 0.743416 0.149906 -0.560225
O12   O     O_2   0.357876 0.256542 0.850093 -0.560224
Zn1   Zn    Zn3+2 0.306930 0.518000 0.506610 0.944296
Zn2   Zn    Zn3+2 0.693070 0.482000 0.493390 0.944296
N5    N     N_2   0.779945 0.876701 0.945118 -0.296537
H13   H     H_    0.857790 0.847226 0.908951 0.273801
C33   C     C_3   0.701385 0.025026 0.944111 -0.677871
H14   H     H_    0.796249 0.114770 0.924902 0.238316
H15   H     H_    0.658945 0.066447 0.988409 0.227938
H16   H     H_    0.589412 0.012593 0.918142 0.273949
N6    N     N_2   0.220054 0.123255 0.054881 -0.296538
H17   H     H_    0.142208 0.152730 0.091048 0.273801
C34   C     C_3   0.298615 0.974931 0.055889 -0.677870
H18   H     H_    0.203752 0.885187 0.075098 0.238316
H19   H     H_    0.410588 0.987366 0.081858 0.273949
H20   H     H_    0.341056 0.933509 0.011591 0.227938
C35   C     C_3   0.004385 0.307073 0.463023 -0.503021
H21   H     H_    0.905766 0.251921 0.436298 0.178649
H22   H     H_    0.124006 0.318785 0.434397 0.211883
H23   H     H_    0.013856 0.228755 0.499109 0.186545
C36   C     C_3   0.995615 0.692927 0.536977 -0.503020
H24   H     H_    0.094234 0.748079 0.563702 0.178649
H25   H     H_    0.986144 0.771245 0.500891 0.186545
H26   H     H_    0.875994 0.681215 0.565603 0.211883

loop_
_geom_bond_atom_site_label_1
_geom_bond_atom_site_label_2
_ccdc_geom_bond_type
N5    C33   S    
C5    H5    S    
N3    Zn2   S    
C4    H4    S    
C19   O9    S    
C23   C29   A    
N4    C36   S    
C24   C26   A    
C21   O11   S    
O4    Zn1   S    
C22   O12   S    
C13   N2    S    
C15   C16   D    
O7    Zn2   S    
C29   H1    S    
C9    H7    S    
C10   H8    S    
N6    C34   S    
C12   H10   S    
C2    O2    A    
O5    Zn1   S    
C7    C17   S    
C6    H6    S    
C1    C15   S    
C2    C16   S    
C17   O7    A    
C3    C13   A    
C18   O8    A    
O3    Zn2   S    
C10   C12   A    
C14   N1    S    
C21   N1    A    
O1    Zn1   S    
C30   H2    S    
C31   N5    S    
C4    C6    A    
C36   H25   S    
C6    C8    A    
C20   C28   A    
C33   H15   S    
C25   C26   A    
C8    C18   S    
C36   H24   S    
C35   H21   S    
C34   H20   S    
C9    C11   A    
N3    N4    D    
C3    H3    S    
C33   H16   S    
C35   H22   S    
C2    O4    A    
C22   N2    A    
C12   C14   A    
C21   C23   A    
O2    Zn2   S    
C22   C24   A    
C20   O10   S    
C17   O5    A    
C19   C27   A    
C5    C7    A    
C7    C9    A    
C16   H12   S    
C27   C32   A    
C28   C31   A    
C3    C5    A    
C36   H26   S    
C19   N1    A    
C32   N6    S    
C25   C27   A    
O6    Zn2   S    
C26   C28   A    
C1    O3    A    
C15   H11   S    
C34   H18   S    
C29   C31   A    
C30   C32   A    
C11   C13   A    
N4    Zn1   S    
C11   H9    S    
C23   C25   A    
C4    C14   A    
N6    H17   S    
C35   H23   S    
C24   C30   A    
C18   O6    A    
N3    C35   S    
N5    H13   S    
C8    C10   A    
C33   H14   S    
C34   H19   S    
O8    Zn1   S    
C1    O1    A    
C20   N2    A    
