data_str_m3_o10_o29_f0_pcu.sym.124
_audit_creation_date              2012-12-10T16:59:13-0500
_audit_creation_method            fapswitch 2.2
_symmetry_space_group_name_H-M    P1
_symmetry_Int_Tables_number       1
_space_group_crystal_system       triclinic
_cell_length_a                    7.741063
_cell_length_b                    8.557145
_cell_length_c                    27.713212
_cell_angle_alpha                 90.94332
_cell_angle_beta                  86.187594
_cell_angle_gamma                 93.678181
_cell_volume                      1827.78931513

loop_
_atom_site_label
_atom_site_type_symbol
_atom_type_description
_atom_site_fract_x
_atom_site_fract_y
_atom_site_fract_z
_atom_type_partial_charge
C1    C     C_R   0.545883 0.794828 0.498735 0.975885
C2    C     C_R   0.516615 0.644813 0.127789 -0.022098
C3    C     C_R   0.509767 0.498119 0.646434 -0.038563
C4    C     C_R   0.490231 0.501855 0.353565 -0.038564
C5    C     C_R   0.535008 0.643478 0.025510 0.047819
C6    C     C_R   0.465037 0.356404 0.974488 0.047817
C7    C     C_R   0.453909 0.358774 0.025771 0.047817
C8    C     C_R   0.546143 0.641107 0.974227 0.047817
C9    C     C_R   0.489749 0.502155 0.050922 0.072029
C10   C     C_R   0.510297 0.497727 0.949076 0.072029
C11   C     C_R   0.567178 0.782999 0.052574 -0.226397
C12   C     C_R   0.454117 0.205172 0.501265 0.975882
C13   C     C_R   0.432854 0.216886 0.947424 -0.226399
C14   C     C_R   0.558387 0.783176 0.102639 -0.140135
C15   C     C_R   0.441640 0.216711 0.897358 -0.140139
C16   C     C_R   0.502896 0.499738 0.593921 0.874114
C17   C     C_R   0.497104 0.500259 0.406079 0.874113
C18   C     C_R   0.592777 0.777638 0.946909 -0.226607
C19   C     C_R   0.407282 0.222241 0.053089 -0.226606
C20   C     C_2   0.570144 0.958291 0.498003 -0.371725
C21   C     C_2   0.429856 0.041709 0.501997 -0.371724
C22   C     C_R   0.566943 0.630785 0.821438 0.506452
C23   C     C_R   0.519277 0.495743 0.897802 -0.049575
C24   C     C_R   0.433048 0.369110 0.178561 0.506456
C25   C     C_R   0.488730 0.356520 0.821691 0.507113
C26   C     C_R   0.511294 0.643370 0.178306 0.507111
C27   C     C_R   0.362474 0.495188 0.726136 -0.099847
C28   C     C_R   0.637528 0.504772 0.273863 -0.099848
C29   C     C_R   0.355776 0.497476 0.676230 -0.204259
C30   C     C_R   0.644224 0.502520 0.323770 -0.204258
C31   C     C_R   0.670360 0.496682 0.667231 -0.210478
C32   C     C_R   0.329635 0.503236 0.332768 -0.210491
C33   C     C_R   0.676573 0.494946 0.717201 -0.093358
C34   C     C_R   0.480758 0.504141 0.102196 -0.049579
C35   C     C_R   0.323423 0.504934 0.282798 -0.093339
C36   C     C_R   0.522660 0.494032 0.746515 0.323287
C37   C     C_R   0.477338 0.505869 0.253484 0.323273
C38   C     C_R   0.563168 0.634598 0.871951 -0.021558
C39   C     C_R   0.436853 0.365290 0.128047 -0.021556
C40   C     C_R   0.600557 0.774114 0.896848 -0.141150
C41   C     C_R   0.399482 0.225769 0.103151 -0.141144
C42   C     C_R   0.483415 0.355073 0.872209 -0.022101
H1    H     H_    0.790899 0.497421 0.645001 0.159458
H2    H     H_    0.414468 0.107006 0.878408 0.194297
H3    H     H_    0.600026 0.895370 0.036509 0.140705
H4    H     H_    0.399994 0.104516 0.963489 0.140711
H5    H     H_    0.624846 0.890378 0.962764 0.141520
H6    H     H_    0.375235 0.109497 0.037234 0.141514
H7    H     H_    0.702607 0.009424 0.494190 0.180843
H8    H     H_    0.297393 0.990576 0.505810 0.180844
H9    H     H_    0.014082 0.383218 0.463423 0.191396
H10   H     H_    0.985917 0.616782 0.536577 0.191397
H11   H     H_    0.635914 0.882073 0.877697 0.193311
H12   H     H_    0.209096 0.502478 0.354998 0.159455
H13   H     H_    0.364127 0.117810 0.122301 0.193309
H14   H     H_    0.800420 0.494234 0.733196 0.134798
H15   H     H_    0.199575 0.505606 0.266801 0.134808
H16   H     H_    0.769568 0.501770 0.338933 0.161197
H17   H     H_    0.230434 0.498272 0.661068 0.161197
H18   H     H_    0.756435 0.505158 0.250930 0.136127
H19   H     H_    0.243569 0.494824 0.749071 0.136119
H20   H     H_    0.585549 0.892884 0.121589 0.194291
N1    N     N_R   0.528404 0.493369 0.797680 -0.361777
N2    N     N_R   0.471600 0.506525 0.202319 -0.361774
N3    N     N_2   0.950320 0.457960 0.486880 -0.175768
N4    N     N_2   0.049680 0.542040 0.513120 -0.175768
O1    O     O_R   0.389250 0.738570 0.503220 -0.611100
O2    O     O_2   0.393412 0.236585 0.203819 -0.532381
O3    O     O_2   0.546207 0.777091 0.203345 -0.530926
O4    O     O_2   0.453826 0.222798 0.796652 -0.530918
O5    O     O_R   0.610750 0.261430 0.496780 -0.611101
O6    O     O_R   0.678390 0.711630 0.494810 -0.629354
O7    O     O_R   0.321610 0.288370 0.505190 -0.629355
O8    O     O_R   0.355440 0.513440 0.575450 -0.621173
O9    O     O_R   0.644560 0.486560 0.424550 -0.621173
O10   O     O_R   0.644590 0.486500 0.567040 -0.630309
O11   O     O_R   0.355410 0.513500 0.432960 -0.630305
O12   O     O_2   0.606538 0.763319 0.796181 -0.532372
Zn1   Zn    Zn3+2 0.306940 0.517990 0.505620 0.950367
Zn2   Zn    Zn3+2 0.693060 0.482010 0.494380 0.950367

loop_
_geom_bond_atom_site_label_1
_geom_bond_atom_site_label_2
_ccdc_geom_bond_type
C27   C29   A    
C18   H5    S    
C33   C36   A    
C39   C41   A    
N4    Zn1   S    
C23   C42   A    
C31   H1    S    
C16   O8    A    
C35   C37   A    
C15   H2    S    
C5    C11   A    
C25   N1    A    
C13   H4    S    
C11   C14   A    
C22   C38   A    
C24   C39   A    
H9    N3    S    
C3    C29   A    
C26   N2    A    
C21   H8    S    
C18   C40   A    
C27   H19   S    
C22   N1    A    
C41   H13   S    
C29   H17   S    
C31   C33   A    
C36   N1    S    
O9    Zn2   S    
C2    C34   A    
C33   H14   S    
C28   H18   S    
C24   N2    A    
N3    Zn2   S    
C12   O7    A    
C32   H12   S    
O5    Zn2   S    
O11   Zn1   S    
C1    O6    A    
C34   C39   A    
C32   C35   A    
O1    Zn1   S    
C22   O12   S    
C19   H6    S    
C12   C21   S    
C8    C18   A    
C5    C9    A    
C20   H7    S    
C17   O11   A    
O7    Zn1   S    
C2    C26   A    
C3    C31   A    
C4    C32   A    
C4    C17   S    
C12   O5    A    
N3    N4    D    
C7    C19   A    
O8    Zn1   S    
C13   C15   A    
C9    C34   A    
C10   C23   A    
C11   H3    S    
C37   N2    S    
H10   N4    S    
C7    C9    A    
C1    C20   S    
C16   O10   A    
O10   Zn2   S    
C15   C42   A    
C25   C42   A    
C6    C10   A    
C5    C8    A    
C6    C7    A    
C27   C36   A    
C23   C38   A    
C35   H15   S    
C28   C30   A    
O6    Zn2   S    
C6    C13   A    
C38   C40   A    
C28   C37   A    
C30   H16   S    
C1    O1    A    
C2    C14   A    
C24   O2    S    
C20   C21   D    
C8    C10   A    
C40   H11   S    
C17   O9    A    
C26   O3    S    
C25   O4    S    
C4    C30   A    
C3    C16   S    
C19   C41   A    
C14   H20   S    
