data_str_m2_o18_o18_f0_pcu.sym.199
_audit_creation_date              2013-03-05T16:00:03-0500
_audit_creation_method            fapswitch 2.2
_symmetry_space_group_name_H-M    P1
_symmetry_Int_Tables_number       1
_space_group_crystal_system       triclinic
_cell_length_a                    20.931005
_cell_length_b                    21.42361
_cell_length_c                    14.694863
_cell_angle_alpha                 89.920876
_cell_angle_beta                  128.76015
_cell_angle_gamma                 89.879153
_cell_volume                      5138.2262719

loop_
_atom_site_label
_atom_site_type_symbol
_atom_site_description
_atom_site_fract_x
_atom_site_fract_y
_atom_site_fract_z
_atom_type_partial_charge
O1    O     O_R   0.600040 0.935040 0.546740 -0.553236
O2    O     O_R   0.399960 0.064960 0.453260 -0.532752
O3    O     O_R   0.399960 0.935040 0.453260 -0.558392
O4    O     O_R   0.600040 0.064960 0.546740 -0.536974
O5    O     O_R   0.100040 0.435040 0.546740 -0.543040
O6    O     O_R   0.899960 0.564960 0.453260 -0.538443
O7    O     O_R   0.899960 0.435040 0.453260 -0.554918
O8    O     O_R   0.100040 0.564960 0.546740 -0.549123
O9    O     O_R   0.555010 0.935070 0.653220 -0.580368
O10   O     O_R   0.444990 0.064930 0.346780 -0.550646
O11   O     O_R   0.444990 0.935070 0.346780 -0.562636
O12   O     O_R   0.555010 0.064930 0.653220 -0.558412
O13   O     O_R   0.055010 0.435070 0.653220 -0.582808
O14   O     O_R   0.944990 0.564930 0.346780 -0.546697
O15   O     O_R   0.944990 0.435070 0.346780 -0.566529
O16   O     O_R   0.055010 0.564930 0.653220 -0.543343
C1    C     C_R   0.603832 0.914367 0.633210 0.803358
C2    C     C_R   0.397937 0.087055 0.369347 0.832933
C3    C     C_R   0.394907 0.915898 0.364997 0.824240
C4    C     C_R   0.605078 0.084680 0.634375 0.803689
C5    C     C_R   0.104322 0.414654 0.633885 0.793422
C6    C     C_R   0.897504 0.586658 0.369133 0.816240
C7    C     C_R   0.900360 0.411523 0.372250 0.800926
C8    C     C_R   0.105291 0.583762 0.634915 0.820361
Cu1   Cu    Cu3+1 0.526640 0.000000 0.436960 1.016706
Cu2   Cu    Cu3+1 0.473360 0.000000 0.563040 1.004002
Cu3   Cu    Cu3+1 0.026640 0.500000 0.436960 1.008262
Cu4   Cu    Cu3+1 0.973360 0.500000 0.563040 1.001308
C9    C     C_R   0.672576 0.127706 0.718202 -0.147814
C10   C     C_R   0.325108 0.877744 0.273401 -0.143699
C11   C     C_R   0.343962 0.141025 0.302909 -0.148221
C12   C     C_R   0.668858 0.869664 0.716681 -0.161552
C13   C     C_R   0.174004 0.623965 0.721208 -0.133662
C14   C     C_R   0.852588 0.354418 0.312226 -0.158484
C15   C     C_R   0.841455 0.639267 0.301524 -0.151603
C16   C     C_R   0.171429 0.371739 0.720017 -0.168914
C17   C     C_R   0.798932 0.182337 0.796338 -0.211439
C18   C     C_R   0.179116 0.871608 0.118453 -0.212611
C19   C     C_R   0.232199 0.210176 0.244679 -0.190906
C20   C     C_R   0.795842 0.814639 0.799859 -0.176386
C21   C     C_R   0.319203 0.646305 0.850296 -0.206935
C22   C     C_R   0.763653 0.270380 0.282293 -0.179532
C23   C     C_R   0.725125 0.704443 0.237382 -0.186067
C24   C     C_R   0.301858 0.321075 0.807089 -0.224580
C25   C     C_R   0.736060 0.142249 0.713013 0.480910
C26   C     C_R   0.245042 0.891939 0.230184 0.451092
C27   C     C_R   0.278354 0.156379 0.302582 0.459058
C28   C     C_R   0.729487 0.849801 0.709095 0.450747
C29   C     C_R   0.253138 0.611782 0.758606 0.472195
C30   C     C_R   0.811073 0.322542 0.345369 0.466638
C31   C     C_R   0.774609 0.652647 0.299533 0.462656
C32   C     C_R   0.232978 0.353078 0.713356 0.438543
C33   C     C_R   0.676553 0.150894 0.810297 -0.304441
C34   C     C_R   0.337651 0.835964 0.213181 -0.266617
C35   C     C_R   0.359493 0.178343 0.240753 -0.295367
C36   C     C_R   0.672508 0.849684 0.810264 -0.275107
C37   C     C_R   0.161765 0.670540 0.774759 -0.282036
C38   C     C_R   0.853183 0.329107 0.225269 -0.319422
C39   C     C_R   0.856350 0.677326 0.240021 -0.293010
C40   C     C_R   0.176720 0.352834 0.815692 -0.284444
C41   C     C_R   0.743256 0.186471 0.900378 0.067495
C42   C     C_R   0.271883 0.813442 0.101743 0.050994
C43   C     C_R   0.308348 0.229052 0.172172 0.071627
C44   C     C_R   0.738726 0.814435 0.902855 0.060475
C45   C     C_R   0.227697 0.705776 0.867768 0.094287
C46   C     C_R   0.810322 0.274249 0.166297 0.067794
C47   C     C_R   0.802385 0.725872 0.167397 0.076742
C48   C     C_R   0.245664 0.320705 0.911080 0.069254
C49   C     C_R   0.803775 0.204360 0.890425 -0.022400
C50   C     C_R   0.191001 0.832451 0.053438 -0.051129
C51   C     C_R   0.245531 0.246341 0.178156 -0.031309
C52   C     C_R   0.801198 0.796120 0.896448 -0.042025
C53   C     C_R   0.308049 0.692134 0.907744 -0.025898
C54   C     C_R   0.762527 0.245606 0.192762 -0.025980
C55   C     C_R   0.737104 0.740789 0.169483 -0.041908
C56   C     C_R   0.309907 0.305613 0.907018 -0.035044
C57   C     C_R   0.750939 0.204815 0.999760 0.028514
C58   C     C_R   0.284658 0.775056 0.035088 0.010195
C59   C     C_R   0.314286 0.260032 0.091873 0.033021
C60   C     C_R   0.742785 0.795343 0.999391 0.022585
C61   C     C_R   0.215946 0.751292 0.926337 0.032644
C62   C     C_R   0.811011 0.249028 0.077708 0.013720
C63   C     C_R   0.807601 0.755918 0.085793 0.042144
C64   C     C_R   0.250677 0.301176 0.008075 0.016869
C65   C     C_R   0.363692 0.761533 0.071328 -0.188193
C66   C     C_R   0.704002 0.177263 0.027614 -0.301324
C67   C     C_R   0.684270 0.814395 0.012630 -0.218357
C68   C     C_R   0.380412 0.250243 0.090672 -0.280294
C69   C     C_R   0.871669 0.264922 0.067513 -0.225718
C70   C     C_R   0.137457 0.774604 0.877707 -0.251821
C71   C     C_R   0.194687 0.321961 0.024789 -0.232957
C72   C     C_R   0.872864 0.744521 0.083264 -0.294011
C73   C     C_R   0.375747 0.722461 0.007389 0.372394
C74   C     C_R   0.713391 0.193815 0.127188 0.381283
C75   C     C_R   0.682443 0.789365 0.098566 0.388268
C76   C     C_R   0.379809 0.273805 0.001522 0.331249
C77   C     C_R   0.869523 0.241920 0.977037 0.381007
C78   C     C_R   0.124296 0.814650 0.938963 0.358081
C79   C     C_R   0.194382 0.297432 0.112441 0.389540
C80   C     C_R   0.868569 0.761028 0.988001 0.353010
H1    H     H_    0.400440 0.824145 0.254668 0.164960
H2    H     H_    0.625879 0.141392 0.809076 0.205708
H3    H     H_    0.621853 0.862215 0.807949 0.196281
H4    H     H_    0.410859 0.165597 0.245029 0.169652
H5    H     H_    0.885621 0.354014 0.201794 0.206017
H6    H     H_    0.100273 0.676067 0.745388 0.162108
H7    H     H_    0.125096 0.363039 0.812744 0.190389
H8    H     H_    0.909910 0.666547 0.248704 0.168432
H9    H     H_    0.379405 0.634255 0.878939 0.196883
H10   H     H_    0.727145 0.250468 0.303766 0.212126
H11   H     H_    0.674355 0.713166 0.237555 0.239210
H12   H     H_    0.348226 0.307829 0.799486 0.204367
H13   H     H_    0.844457 0.195041 0.786964 0.194516
H14   H     H_    0.119139 0.889441 0.081918 0.203069
H15   H     H_    0.182594 0.220784 0.246736 0.214685
H16   H     H_    0.843374 0.803087 0.793886 0.240163
H17   H     H_    0.417957 0.782998 0.146655 0.191463
H18   H     H_    0.664187 0.138876 0.978108 0.186007
H19   H     H_    0.639655 0.849990 0.959027 0.208022
H20   H     H_    0.435452 0.226600 0.161243 0.174611
H21   H     H_    0.924191 0.292732 0.132683 0.193230
H22   H     H_    0.084653 0.763623 0.789621 0.180519
H23   H     H_    0.152424 0.359352 0.973738 0.213956
H24   H     H_    0.928005 0.721141 0.153387 0.166817
N1    N     N_R   0.433280 0.000000 0.657760 -0.258113
N2    N     N_R   0.566720 0.000000 0.342240 -0.246131
N3    N     N_R   0.933280 0.500000 0.657760 -0.250024
N4    N     N_R   0.066720 0.500000 0.342240 -0.251117
C81   C     C_R   0.328436 0.960728 0.663221 0.424540
C82   C     C_R   0.681984 0.986792 0.344859 0.439593
C83   C     C_R   0.826737 0.464780 0.662530 0.411683
C84   C     C_R   0.182586 0.488407 0.346211 0.437574
C85   C     C_R   0.357076 0.976838 0.602232 -0.117880
C86   C     C_R   0.648099 0.991666 0.402190 -0.094553
C87   C     C_R   0.855978 0.479262 0.601558 -0.087856
C88   C     C_R   0.147961 0.490707 0.402707 -0.113363
C89   C     C_R   0.481562 0.012279 0.775220 0.716123
C90   C     C_R   0.514790 0.003011 0.222587 0.719194
C91   C     C_R   0.981799 0.513439 0.774312 0.713796
C92   C     C_R   0.015401 0.505089 0.223105 0.707135
C93   C     C_R   0.462618 0.985821 0.845420 -0.167082
C94   C     C_R   0.543533 0.988140 0.158232 -0.153771
C95   C     C_R   0.962472 0.489262 0.845417 -0.183565
C96   C     C_R   0.044184 0.490699 0.158932 -0.170493
C97   C     C_R   0.382917 0.961620 0.787118 -0.198350
C98   C     C_R   0.629422 0.986373 0.220511 -0.101722
C99   C     C_R   0.881109 0.467850 0.786770 -0.172605
C100  C     C_R   0.130030 0.488918 0.221748 -0.137619
C101  C     C_R   0.519574 0.984824 0.970861 -0.009474
C102  C     C_R   0.489753 0.976402 0.034620 -0.077087
C103  C     C_R   0.020176 0.488056 0.971307 -0.050989
C104  C     C_R   0.990269 0.479761 0.035140 -0.056593
C105  C     C_R   0.410680 0.949398 0.975777 0.422779
C106  C     C_R   0.605645 0.983136 0.032864 0.459607
C107  C     C_R   0.910015 0.454999 0.976297 0.443896
C108  C     C_R   0.107006 0.488442 0.034710 0.418830
C109  C     C_R   0.360226 0.938524 0.853594 0.277810
C110  C     C_R   0.659980 0.981139 0.157307 0.341791
C111  C     C_R   0.856779 0.448106 0.853058 0.304930
C112  C     C_R   0.160866 0.486511 0.159013 0.309267
H25   H     H_    0.687361 0.990142 0.496183 0.182564
H26   H     H_    0.317277 0.971616 0.508902 0.213585
H27   H     H_    0.186450 0.485571 0.496360 0.215431
H28   H     H_    0.815939 0.475278 0.507689 0.184454
N5    N     N_R   0.457828 0.712773 0.047742 0.122079
O17   O     O_R   0.518219 0.707601 0.158957 -0.376697
O18   O     O_R   0.474115 0.718681 0.976022 -0.320152
N6    N     N_R   0.673921 0.156642 0.160910 0.132708
O19   O     O_R   0.605171 0.128731 0.081586 -0.367065
O20   O     O_R   0.714445 0.139615 0.269254 -0.342835
N7    N     N_R   0.624184 0.813648 0.111382 0.151753
O21   O     O_R   0.553843 0.835271 0.020965 -0.322162
O22   O     O_R   0.646628 0.824612 0.214812 -0.383099
N8    N     N_R   0.450907 0.264722 0.008746 0.108848
O23   O     O_R   0.491882 0.212677 0.050201 -0.345104
O24   O     O_R   0.482911 0.311728 0.994010 -0.363835
N9    N     N_R   0.936975 0.254842 0.977941 0.133328
O25   O     O_R   0.010367 0.237123 0.066518 -0.370569
O26   O     O_R   0.926173 0.286966 0.894047 -0.322818
N10   N     N_R   0.042581 0.837635 0.881508 0.113949
O27   O     O_R   0.998465 0.856737 0.773737 -0.368787
O28   O     O_R   0.007260 0.829306 0.928324 -0.342047
N11   N     N_R   0.141831 0.325057 0.133205 0.154223
O29   O     O_R   0.073144 0.351126 0.047819 -0.315209
O30   O     O_R   0.168569 0.333920 0.239453 -0.351424
N12   N     N_R   0.931300 0.738378 0.983604 0.135239
O31   O     O_R   0.007482 0.738225 0.077748 -0.359347
O32   O     O_R   0.911066 0.705555 0.894647 -0.400471
O33   O     O_3   0.392222 0.921328 0.042397 -0.552939
C113  C     C_3   0.314200 0.939829 0.005707 -0.125385
H29   H     H_    0.269363 0.901885 0.955194 0.198081
H30   H     H_    0.290952 0.984381 0.955091 0.137800
H31   H     H_    0.318271 0.946831 0.083920 0.191479
O34   O     O_3   0.632460 0.966575 0.969896 -0.604644
C114  C     C_3   0.698551 0.002971 0.997078 -0.162355
H32   H     H_    0.754681 0.973672 0.044158 0.198950
H33   H     H_    0.710663 0.045148 0.049145 0.172795
H34   H     H_    0.685085 0.018362 0.914508 0.181024
O35   O     O_3   0.892882 0.424900 0.043187 -0.568071
C115  C     C_3   0.816198 0.442683 0.012162 -0.143535
H35   H     H_    0.770835 0.404925 0.961410 0.203502
H36   H     H_    0.792558 0.488171 0.964945 0.166226
H37   H     H_    0.822942 0.447973 0.092818 0.181483
O36   O     O_3   0.136743 0.474295 0.974557 -0.584219
C116  C     C_3   0.199248 0.515410 0.000889 -0.136023
H38   H     H_    0.260131 0.492832 0.062323 0.198004
H39   H     H_    0.197796 0.561668 0.034218 0.160864
H40   H     H_    0.191383 0.524076 0.919901 0.180218
O37   O     O_3   0.231556 0.932964 0.289198 -0.617761
C117  C     C_3   0.190432 0.901165 0.323227 -0.286847
H41   H     H_    0.129886 0.882870 0.247478 0.183852
H42   H     H_    0.178055 0.934528 0.367996 0.196138
H43   H     H_    0.229171 0.862768 0.385618 0.199296
O38   O     O_3   0.734123 0.120992 0.622378 -0.553780
C118  C     C_3   0.798414 0.077600 0.666698 -0.274844
H44   H     H_    0.797807 0.062225 0.594200 0.224422
H45   H     H_    0.789859 0.035730 0.702954 0.153879
H46   H     H_    0.859734 0.098398 0.733487 0.155734
O39   O     O_3   0.727090 0.867471 0.616584 -0.601738
C119  C     C_3   0.690629 0.818870 0.533860 -0.245617
H47   H     H_    0.730458 0.776599 0.568737 0.182481
H48   H     H_    0.682732 0.834582 0.455442 0.202360
H49   H     H_    0.628600 0.807151 0.505076 0.162242
O40   O     O_3   0.260229 0.119752 0.361256 -0.576588
C120  C     C_3   0.190602 0.083581 0.278691 -0.265629
H50   H     H_    0.180293 0.050211 0.325911 0.192283
H51   H     H_    0.199508 0.055831 0.223310 0.184797
H52   H     H_    0.134755 0.113233 0.223112 0.168814
O41   O     O_3   0.814335 0.343033 0.437263 -0.604613
C121  C     C_3   0.876031 0.308854 0.537908 -0.278620
H53   H     H_    0.857826 0.259209 0.530359 0.183393
H54   H     H_    0.884811 0.329098 0.614431 0.193500
H55   H     H_    0.936116 0.311895 0.555733 0.155870
O42   O     O_3   0.266207 0.565691 0.705998 -0.589726
C122  C     C_3   0.299614 0.512770 0.779537 -0.311349
H56   H     H_    0.307276 0.475272 0.735216 0.228464
H57   H     H_    0.258033 0.495124 0.796690 0.145004
H58   H     H_    0.361299 0.522528 0.863213 0.166375
O43   O     O_3   0.229684 0.369977 0.619695 -0.586601
C123  C     C_3   0.197153 0.319697 0.540786 -0.219388
H59   H     H_    0.238499 0.278294 0.580318 0.151522
H60   H     H_    0.191557 0.334097 0.463505 0.232585
H61   H     H_    0.134735 0.307113 0.509534 0.144984
O44   O     O_3   0.758952 0.616972 0.362044 -0.558357
C124  C     C_3   0.699854 0.571738 0.286732 -0.252092
H62   H     H_    0.688074 0.542483 0.337153 0.197703
H63   H     H_    0.722292 0.540277 0.251778 0.136071
H64   H     H_    0.640708 0.593855 0.213934 0.186016
N13   N     N_R   0.291811 0.897070 0.800817 0.171203
O45   O     O_R   0.218601 0.918695 0.751544 -0.367048
O46   O     O_R   0.303638 0.837090 0.807078 -0.301407
N14   N     N_R   0.745632 0.970352 0.218363 0.141621
O47   O     O_R   0.796709 0.016871 0.263691 -0.309071
O48   O     O_R   0.772148 0.914416 0.224007 -0.360753
N15   N     N_R   0.780024 0.416791 0.796622 0.145155
O49   O     O_R   0.713337 0.448820 0.751575 -0.337184
O50   O     O_R   0.777206 0.356157 0.794319 -0.340323
N16   N     N_R   0.247301 0.481110 0.220974 0.157585
O51   O     O_R   0.293314 0.530556 0.264687 -0.379144
O52   O     O_R   0.280052 0.426976 0.232939 -0.300937
O53   O     O_3   0.435817 0.023870 0.166882 -0.567168
C125  C     C_3   0.424768 0.082310 0.113999 -0.312830
H65   H     H_    0.420999 0.077882 0.035587 0.171764
H66   H     H_    0.474186 0.115673 0.176501 0.191090
H67   H     H_    0.365257 0.102103 0.083267 0.180195
O54   O     O_3   0.535014 0.061816 0.818955 -0.585686
C126  C     C_3   0.487855 0.116750 0.789905 -0.289023
H68   H     H_    0.445630 0.124880 0.693891 0.180245
H69   H     H_    0.528552 0.157768 0.830662 0.198932
H70   H     H_    0.452717 0.115418 0.823591 0.173068
O55   O     O_3   0.937071 0.527254 0.167968 -0.563331
C127  C     C_3   0.927909 0.586053 0.117435 -0.340164
H71   H     H_    0.925600 0.582389 0.040166 0.175177
H72   H     H_    0.977633 0.618590 0.182132 0.168853
H73   H     H_    0.868238 0.606152 0.085333 0.196143
O56   O     O_3   0.043443 0.556463 0.818164 -0.572811
C128  C     C_3   0.016628 0.614495 0.828712 -0.284806
H74   H     H_    0.999775 0.611651 0.886915 0.191070
H75   H     H_    0.964426 0.633099 0.741494 0.190048
H76   H     H_    0.067784 0.648181 0.869428 0.187360
O57   O     O_3   0.248011 0.941957 0.600161 -0.529934
C129  C     C_3   0.198348 0.995850 0.562430 -0.238254
H77   H     H_    0.202216 0.024992 0.503387 0.122517
H78   H     H_    0.214803 0.024210 0.637833 0.167709
H79   H     H_    0.133658 0.981110 0.512611 0.214970
O58   O     O_3   0.766377 0.987542 0.410714 -0.534708
C130  C     C_3   0.800053 0.931332 0.474367 -0.155772
H80   H     H_    0.767753 0.889644 0.418389 0.188092
H81   H     H_    0.800522 0.930965 0.550290 0.171942
H82   H     H_    0.864712 0.928104 0.509234 0.225896
O59   O     O_3   0.743718 0.454084 0.600516 -0.533636
C131  C     C_3   0.720099 0.398879 0.534426 -0.119544
H83   H     H_    0.762981 0.359490 0.586603 0.177278
H84   H     H_    0.713292 0.407019 0.454141 0.158388
H85   H     H_    0.659157 0.384755 0.506202 0.206327
O60   O     O_3   0.266142 0.477993 0.411678 -0.506135
C132  C     C_3   0.310804 0.526186 0.494102 -0.144207
H86   H     H_    0.315582 0.517841 0.572735 0.162700
H87   H     H_    0.284341 0.573291 0.456577 0.147545
H88   H     H_    0.374040 0.525865 0.522847 0.212677

loop_
_geom_bond_atom_site_label_1
_geom_bond_atom_site_label_2
_geom_bond_distance
_ccdc_geom_bond_type
O16   Cu4   1.947096 S    
C131  H84   1.109702 S    
C27   O40   1.382764 S    
C18   C50   1.406170 A    
C47   C63   1.423498 A    
C113  H29   1.106871 S    
C17   C49   1.403907 A    
C119  H49   1.114298 S    
O2    C2    1.295878 A    
C12   C28   1.406761 A    
C132  H86   1.109858 S    
C54   C74   1.408644 A    
C34   H1    1.076082 S    
C80   N12   1.437802 S    
O59   C131  1.410975 S    
C53   C73   1.408056 A    
Cu1   N2    2.025646 S    
C99   C111  1.417045 A    
O40   C120  1.410601 S    
C125  H67   1.108246 S    
C119  H48   1.108480 S    
O4    Cu1   1.952293 S    
C122  H56   1.107669 S    
C93   C101  1.437980 A    
C5    C16   1.478349 S    
C105  O33   1.393650 S    
C116  H38   1.108438 S    
C71   H23   1.073053 S    
C95   C99   1.421300 A    
C6    C15   1.471590 S    
N7    O22   1.301305 A    
O11   C3    1.300826 A    
N13   O45   1.301473 A    
N5    O17   1.301238 A    
C62   C69   1.410738 A    
N3    C91   1.368337 A    
C30   O41   1.381016 S    
O10   C2    1.308443 A    
C19   C27   1.396049 A    
C131  H83   1.113050 S    
C110  N14   1.433921 S    
C106  C110  1.426474 A    
C60   C67   1.414563 A    
C83   C87   1.400091 A    
C72   H24   1.073210 S    
C105  C109  1.421702 A    
C31   O44   1.382529 S    
C59   C64   1.416042 A    
C18   H14   1.078715 S    
C126  H70   1.114750 S    
C10   C34   1.394736 A    
C128  H75   1.112946 S    
C11   C35   1.396412 A    
C82   C98   1.425583 A    
O11   Cu1   1.947099 S    
C13   C29   1.404166 A    
O55   C127  1.411776 S    
O6    C6    1.290644 A    
C120  H52   1.112214 S    
C45   C53   1.421089 A    
O44   C124  1.409935 S    
C42   C50   1.423864 A    
C121  H55   1.114634 S    
C15   C39   1.389496 A    
C100  C112  1.419204 A    
C24   C56   1.408209 A    
C94   C98   1.417890 A    
N8    O23   1.299908 A    
C119  H47   1.112794 S    
C58   C65   1.413707 A    
C66   C74   1.395363 A    
C32   O43   1.381977 S    
C39   C47   1.406799 A    
O5    Cu3   1.944483 S    
C91   C95   1.432598 A    
C38   C46   1.403859 A    
O6    Cu4   1.944482 S    
O43   C123  1.409420 S    
C41   C57   1.421580 A    
C127  H71   1.108743 S    
N9    O26   1.300979 A    
C102  C105  1.426562 A    
C35   C43   1.408204 A    
C70   H22   1.078419 S    
C13   C37   1.390672 A    
C103  C104  1.427779 A    
C130  H81   1.109571 S    
O13   Cu4   1.939317 S    
O3    C3    1.300578 A    
C64   C71   1.410844 A    
C111  N15   1.434124 S    
O14   Cu3   1.939316 S    
C68   H20   1.076743 S    
C79   N11   1.439180 S    
C16   C32   1.408852 A    
Cu4   N3    2.025647 S    
C96   C100  1.415966 A    
C75   N7    1.441611 S    
C14   C38   1.396010 A    
C114  H34   1.109367 S    
N15   O50   1.299982 A    
C24   C32   1.397357 A    
C95   C103  1.443523 A    
O34   C114  1.412357 S    
C55   C75   1.406077 A    
C90   O53   1.379782 S    
C73   N5    1.438367 S    
O35   C115  1.417712 S    
O16   C8    1.303331 A    
C101  C106  1.421759 A    
C11   C27   1.408480 A    
C128  H74   1.112380 S    
C85   H26   1.075950 S    
N12   O32   1.301247 A    
O1    Cu1   1.944483 S    
C123  H60   1.109463 S    
C122  H57   1.113442 S    
C82   C86   1.404203 A    
C65   C73   1.394738 A    
C60   C63   1.414703 A    
C44   C60   1.426278 A    
C88   H27   1.079855 S    
C21   C29   1.395981 A    
C59   C68   1.410436 A    
Cu1   Cu2   2.695064 S    
O41   C121  1.411643 S    
N10   O28   1.299514 A    
O9    Cu2   1.939317 S    
O37   C117  1.412634 S    
C4    C9    1.480743 S    
C116  H39   1.114779 S    
C23   C55   1.405935 A    
C120  H51   1.114155 S    
C83   C99   1.425372 A    
C22   C54   1.405817 A    
C14   C30   1.410712 A    
C21   C53   1.406850 A    
C107  C111  1.420494 A    
C48   C64   1.424265 A    
C108  C112  1.424901 A    
O2    Cu2   1.944482 S    
C90   C94   1.438801 A    
C118  H46   1.111519 S    
C74   N6    1.441044 S    
O39   C119  1.410491 S    
O38   C118  1.412392 S    
C115  H35   1.109198 S    
O36   C116  1.417459 S    
C43   C59   1.424832 A    
C34   C42   1.411313 A    
N1    C89   1.374055 A    
O57   C129  1.411581 S    
C51   C79   1.405144 A    
C35   H4    1.071705 S    
C123  H61   1.114005 S    
O7    Cu4   1.952295 S    
C84   O60   1.387454 S    
C128  H76   1.107973 S    
O12   Cu2   1.947096 S    
C77   N9    1.431165 S    
Cu2   N1    2.025647 S    
C84   C100  1.426886 A    
C104  C107  1.427289 A    
N16   O52   1.300396 A    
C118  H44   1.107999 S    
N11   O29   1.299674 A    
C67   H19   1.071604 S    
C29   O42   1.383199 S    
C63   C72   1.410379 A    
C122  H58   1.112046 S    
C46   C62   1.418530 A    
C131  H85   1.109145 S    
C97   C109  1.416073 A    
Cu3   N4    2.025646 S    
O15   Cu3   1.947099 S    
C130  H80   1.113375 S    
C69   H21   1.080163 S    
C87   H28   1.079587 S    
C33   H2    1.069518 S    
C84   C88   1.403658 A    
C7    C14   1.475922 S    
C37   C45   1.409917 A    
O12   C4    1.311060 A    
C112  N16   1.432396 S    
C25   O38   1.384587 S    
C129  H77   1.111658 S    
C130  H82   1.109135 S    
O13   C5    1.304993 A    
C66   H18   1.070285 S    
C132  H87   1.114869 S    
C103  C108  1.432157 A    
O9    C1    1.304648 A    
C121  H54   1.108727 S    
N7    O21   1.301405 A    
C40   C48   1.407619 A    
C40   H7    1.075931 S    
C76   N8    1.436901 S    
C22   C30   1.395954 A    
C81   C85   1.398016 A    
C61   C70   1.408768 A    
C24   H12   1.081491 S    
O10   Cu1   1.939316 S    
C127  H72   1.113049 S    
N6    O19   1.300881 A    
N4    C88   1.351626 A    
C43   C51   1.420020 A    
C57   C66   1.409388 A    
N9    O25   1.300262 A    
N13   O46   1.300285 A    
C19   H15   1.081168 S    
C124  H63   1.113714 S    
C15   C31   1.409858 A    
C1    C12   1.474822 S    
C132  H88   1.109196 S    
C10   C26   1.403206 A    
C91   O56   1.376666 S    
C113  H31   1.108429 S    
C65   H17   1.075261 S    
C47   C55   1.421531 A    
O42   C122  1.410422 S    
O15   C7    1.306302 A    
C78   N10   1.438001 S    
N15   O49   1.301966 A    
C26   O37   1.382670 S    
C107  O35   1.396845 S    
N10   O27   1.301443 A    
C72   C80   1.390582 A    
N14   O48   1.300089 A    
C52   C80   1.407458 A    
C116  H40   1.109889 S    
N1    C85   1.353131 A    
O33   C113  1.417366 S    
C89   O54   1.377537 S    
C89   C93   1.433234 A    
C20   C28   1.395950 A    
N2    C90   1.372429 A    
C113  H30   1.115310 S    
C20   C52   1.408402 A    
C120  H50   1.107198 S    
C115  H37   1.108368 S    
C81   C97   1.419880 A    
C33   C41   1.405560 A    
C42   C58   1.427029 A    
O3    Cu2   1.952295 S    
C92   C96   1.434803 A    
C36   H3    1.072831 S    
N3    C87   1.352142 A    
C16   C40   1.398657 A    
C109  N13   1.434393 S    
C67   C75   1.393685 A    
C125  H66   1.113441 S    
C126  H68   1.113290 S    
C86   H25   1.078279 S    
C125  H65   1.108796 S    
C98   C110  1.424114 A    
C93   C97   1.414582 A    
C48   C56   1.419504 A    
C117  H43   1.113095 S    
C23   H11   1.080147 S    
O1    C1    1.299648 A    
C8    C13   1.463895 S    
C92   O55   1.379257 S    
C83   O59   1.386346 S    
C38   H5    1.076575 S    
C41   C49   1.416590 A    
C39   H8    1.070548 S    
C94   C102  1.439484 A    
N11   O30   1.301578 A    
N16   O51   1.301494 A    
C22   H10   1.080920 S    
C96   C104  1.438554 A    
C101  C102  1.425577 A    
C56   C76   1.408077 A    
C126  H69   1.105588 S    
C58   C61   1.417392 A    
O14   C6    1.311384 A    
C36   C44   1.404996 A    
C20   H16   1.080329 S    
C9    C33   1.395038 A    
C57   C62   1.412405 A    
C23   C31   1.395038 A    
C127  H73   1.107845 S    
O7    C7    1.298133 A    
N6    O20   1.301336 A    
C123  H59   1.113113 S    
O8    C8    1.294822 A    
C12   C36   1.395307 A    
C68   C76   1.395928 A    
C37   H6    1.077286 S    
C82   O58   1.384477 S    
C44   C52   1.422936 A    
C46   C54   1.420450 A    
N4    C92   1.369280 A    
C121  H53   1.112577 S    
C81   O57   1.380161 S    
N8    O24   1.301402 A    
C18   C26   1.399017 A    
C118  H45   1.113244 S    
O58   C130  1.410549 S    
O54   C126  1.416946 S    
C129  H78   1.113741 S    
C114  H32   1.109451 S    
O4    C4    1.296012 A    
O60   C132  1.413047 S    
C17   H13   1.079994 S    
O56   C128  1.411112 S    
N2    C86   1.352304 A    
C129  H79   1.109212 S    
N5    O18   1.301017 A    
C117  H41   1.111618 S    
O5    C5    1.301249 A    
C124  H64   1.113278 S    
C69   C77   1.392731 A    
Cu3   Cu4   2.695064 S    
O53   C125  1.412766 S    
O8    Cu3   1.952293 S    
C19   C51   1.405039 A    
C45   C61   1.420730 A    
C21   H9    1.079751 S    
C2    C11   1.475356 S    
C117  H42   1.106670 S    
C71   C79   1.394148 A    
N12   O31   1.301674 A    
C124  H62   1.109380 S    
C3    C10   1.469721 S    
C17   C25   1.399555 A    
C70   C78   1.390619 A    
C115  H36   1.114523 S    
C9    C25   1.413196 A    
C50   C78   1.409892 A    
C106  O34   1.395507 S    
C49   C77   1.405566 A    
N14   O47   1.301738 A    
C114  H33   1.107317 S    
C28   O39   1.380921 S    
C108  O36   1.396225 S    
