data_str_m9_o18_o22_f0_sra.sym.19
_audit_creation_date              2012-12-11T15:29:36-0500
_audit_creation_method            fapswitch 2.2
_symmetry_space_group_name_H-M    P1
_symmetry_Int_Tables_number       1
_space_group_crystal_system       monoclinic
_cell_length_a                    21.623227
_cell_length_b                    7.49165
_cell_length_c                    14.830445
_cell_angle_alpha                 90.0
_cell_angle_beta                  73.567317
_cell_angle_gamma                 90.0
_cell_volume                      2304.30494654

loop_
_atom_site_label
_atom_site_type_symbol
_atom_type_description
_atom_site_fract_x
_atom_site_fract_y
_atom_site_fract_z
_atom_type_partial_charge
O1    O     O_R   0.464160 0.506670 0.130070 -0.531928
O2    O     O_R   0.535840 0.006670 0.869930 -0.531928
O3    O     O_R   0.589710 0.179080 0.006710 -0.559158
O4    O     O_R   0.410290 0.679080 0.993290 -0.559158
C1    C     C_R   0.614625 0.345198 0.007677 0.820176
C2    C     C_R   0.385375 0.845198 0.992323 0.820177
O5    O     O_R   0.467940 0.177220 0.138010 -0.539699
O6    O     O_R   0.532060 0.677220 0.861990 -0.539698
O7    O     O_R   0.413200 0.002810 0.002170 -0.516823
O8    O     O_R   0.586800 0.502810 0.997830 -0.516823
C3    C     C_R   0.455408 0.344698 0.173262 0.668042
C4    C     C_R   0.544592 0.844698 0.826738 0.668042
O9    O     O_3   0.482180 0.337850 0.955280 -0.408585
O10   O     O_3   0.517820 0.837850 0.044720 -0.408585
V1    V     V_3+5 0.503310 0.064600 0.008300 1.401468
V2    V     V_3+5 0.496690 0.564600 0.991700 1.401469
C5    C     C_R   0.574391 0.847924 0.724999 -0.010747
C6    C     C_R   0.425609 0.347924 0.275001 -0.010747
C7    C     C_R   0.928224 0.862678 0.276288 -0.021014
C8    C     C_R   0.071775 0.362678 0.723711 -0.021014
C9    C     C_R   0.563877 0.851933 0.567330 -0.168180
C10   C     C_R   0.436123 0.351938 0.432669 -0.168180
C11   C     C_R   0.536410 0.869613 0.663892 -0.194064
C12   C     C_R   0.463590 0.369616 0.336108 -0.194064
C13   C     C_R   0.640567 0.814339 0.689182 -0.175246
C14   C     C_R   0.359433 0.314337 0.310818 -0.175246
C15   C     C_R   0.670564 0.807351 0.591130 0.080097
C16   C     C_R   0.329436 0.307351 0.408870 0.080097
C17   C     C_R   0.630330 0.820528 0.530584 0.141428
C18   C     C_R   0.369670 0.320531 0.469416 0.141428
C19   C     C_R   0.739024 0.795925 0.551152 0.062162
C20   C     C_R   0.260976 0.295924 0.448848 0.062162
C21   C     C_R   0.765632 0.794605 0.451284 0.057224
C22   C     C_R   0.234369 0.294606 0.548716 0.057224
C23   C     C_R   0.722891 0.789519 0.394798 -0.183680
C24   C     C_R   0.277109 0.289521 0.605202 -0.183680
C25   C     C_R   0.656727 0.804760 0.433744 -0.197666
C26   C     C_R   0.343273 0.304764 0.566256 -0.197665
C27   C     C_R   0.781994 0.795877 0.607324 -0.171715
C28   C     C_R   0.218006 0.295875 0.392676 -0.171715
C29   C     C_R   0.847652 0.824108 0.568366 -0.210876
C30   C     C_R   0.152348 0.324106 0.431634 -0.210876
C31   C     C_R   0.873519 0.840554 0.471422 0.141875
C32   C     C_R   0.126481 0.340552 0.528578 0.141875
C33   C     C_R   0.833886 0.811167 0.411350 0.086879
C34   C     C_R   0.166114 0.311167 0.588650 0.086879
C35   C     C_R   0.938632 0.887766 0.433838 -0.167945
C36   C     C_R   0.061368 0.387763 0.566162 -0.167946
C37   C     C_R   0.964977 0.906366 0.336952 -0.182048
C38   C     C_R   0.035022 0.406364 0.663047 -0.182047
C39   C     C_R   0.864035 0.808371 0.313488 -0.220859
C40   C     C_R   0.135965 0.308372 0.686512 -0.220859
H1    H     H_    0.626018 0.808577 0.387265 0.112892
H2    H     H_    0.373982 0.308582 0.612735 0.112892
H3    H     H_    0.838694 0.765057 0.264777 0.077528
H4    H     H_    0.161306 0.265060 0.735223 0.077528
H5    H     H_    0.878256 0.835805 0.614743 0.111637
H6    H     H_    0.121744 0.335802 0.385257 0.111637
H7    H     H_    0.485325 0.896312 0.691156 0.117266
H8    H     H_    0.514674 0.396317 0.308844 0.117266
H9    H     H_    0.766173 0.779717 0.682180 0.105499
H10   H     H_    0.233828 0.279715 0.317820 0.105499
C41   C     C_3   0.224230 0.728457 0.926553 0.273707
C42   C     C_3   0.775770 0.228457 0.073447 0.273708
C43   C     C_3   0.297942 0.721218 0.919747 0.134625
C44   C     C_3   0.702058 0.221218 0.080253 0.134624
C45   C     C_3   0.195586 0.811713 0.101012 0.318927
C46   C     C_3   0.804414 0.311713 0.898988 0.318926
C47   C     C_3   0.220391 0.050751 0.970459 0.200347
C48   C     C_3   0.779609 0.550751 0.029541 0.200348
C49   C     C_3   0.186255 0.865810 0.003170 -0.261375
C50   C     C_3   0.813744 0.365810 0.996830 -0.261376
H11   H     H_    0.215539 0.067959 0.898065 0.046880
H12   H     H_    0.784461 0.567959 0.101935 0.046879
C51   C     C_3   0.313927 0.854497 0.991276 -0.250457
C52   C     C_3   0.686072 0.354497 0.008724 -0.250457
C53   C     C_3   0.269552 0.821618 0.094142 0.191226
C54   C     C_3   0.730448 0.321618 0.905859 0.191226
C55   C     C_3   0.294408 0.039286 0.956855 0.223894
C56   C     C_3   0.705592 0.539286 0.043145 0.223894
H13   H     H_    0.274809 0.949295 0.129155 0.117187
H14   H     H_    0.725191 0.449295 0.870845 0.117187
O11   O     O_R   0.913210 0.208550 0.002110 -0.489231
O12   O     O_R   0.086790 0.708550 0.997890 -0.489231
O13   O     O_R   0.032060 0.539960 0.861980 -0.545847
O14   O     O_R   0.967940 0.039960 0.138020 -0.545847
C57   C     C_R   0.043785 0.372536 0.826155 0.625772
C58   C     C_R   0.956215 0.872536 0.173845 0.625773
O15   O     O_R   0.910290 0.538020 0.993280 -0.534729
O16   O     O_R   0.089710 0.038020 0.006720 -0.534729
O17   O     O_R   0.964160 0.712340 0.130090 -0.540250
O18   O     O_R   0.035840 0.212340 0.869910 -0.540251
C59   C     C_R   0.885018 0.370573 0.996422 0.718030
C60   C     C_R   0.114981 0.870573 0.003578 0.718030
O19   O     O_3   0.017820 0.379210 0.044690 -0.378696
O20   O     O_3   0.982180 0.879210 0.955310 -0.378696
V3    V     V_3+5 0.996690 0.652500 0.991710 1.459558
V4    V     V_3+5 0.003310 0.152500 0.008290 1.459558
H15   H     H_    0.968687 0.914994 0.479633 0.115302
H16   H     H_    0.031313 0.414990 0.520366 0.115302
O21   O     O_3   0.197322 0.555460 0.946429 -0.497790
C61   C     C_3   0.190313 0.474026 0.864326 -0.034694
H17   H     H_    0.238017 0.434670 0.818060 0.075921
H18   H     H_    0.164364 0.560586 0.826061 0.082093
H19   H     H_    0.160508 0.352731 0.884562 0.165889
O22   O     O_3   0.802678 0.055460 0.053571 -0.497790
C62   C     C_3   0.809687 0.974026 0.135674 -0.034694
H20   H     H_    0.761982 0.934672 0.181941 0.075922
H21   H     H_    0.835636 0.060586 0.173940 0.082093
H22   H     H_    0.839491 0.852730 0.115440 0.165887
H23   H     H_    0.220009 0.780690 0.857785 0.059178
H24   H     H_    0.779991 0.280690 0.142215 0.059178
O23   O     O_3   0.334191 0.765999 0.825847 -0.575951
C63   C     C_3   0.373985 0.627252 0.778209 -0.304386
H25   H     H_    0.344705 0.517885 0.761366 0.138964
H26   H     H_    0.407742 0.580837 0.817407 0.144659
H27   H     H_    0.403643 0.679194 0.709697 0.170067
O24   O     O_3   0.665809 0.265998 0.174153 -0.575951
C64   C     C_3   0.626014 0.127253 0.221791 -0.304386
H28   H     H_    0.655293 0.017885 0.238634 0.138964
H29   H     H_    0.592258 0.080839 0.182592 0.144659
H30   H     H_    0.596356 0.179196 0.290302 0.170067
H31   H     H_    0.308683 0.589670 0.939421 0.129483
H32   H     H_    0.691317 0.089670 0.060579 0.129483
O25   O     O_3   0.167057 0.643747 0.129807 -0.529342
C65   C     C_3   0.110339 0.659393 0.206202 -0.202593
H33   H     H_    0.076489 0.758068 0.190809 0.108232
H34   H     H_    0.122818 0.696920 0.271462 0.128401
H35   H     H_    0.084503 0.530046 0.218975 0.135142
O26   O     O_3   0.832943 0.143747 0.870193 -0.529342
C66   C     C_3   0.889661 0.159393 0.793798 -0.202591
H36   H     H_    0.923510 0.258068 0.809191 0.108231
H37   H     H_    0.877182 0.196919 0.728538 0.128401
H38   H     H_    0.915497 0.030046 0.781025 0.135142
O27   O     O_3   0.293553 0.701157 0.150374 -0.556077
C67   C     C_3   0.284764 0.519324 0.134587 -0.069493
H39   H     H_    0.266915 0.489673 0.073845 0.204134
H40   H     H_    0.249542 0.464909 0.197580 0.129414
H41   H     H_    0.331155 0.449106 0.125301 0.136214
O28   O     O_3   0.706447 0.201157 0.849626 -0.556077
C68   C     C_3   0.715236 0.019324 0.865413 -0.069493
H42   H     H_    0.733085 0.989673 0.926156 0.204134
H43   H     H_    0.750457 0.964908 0.802420 0.129414
H44   H     H_    0.668844 0.949106 0.874700 0.136214
O29   O     O_3   0.191960 0.212017 0.014126 -0.499731
C69   C     C_3   0.172210 0.212139 0.112601 -0.053766
H45   H     H_    0.211554 0.177816 0.143420 0.074447
H46   H     H_    0.126090 0.139928 0.140998 0.081483
H47   H     H_    0.159111 0.346365 0.135883 0.198065
O30   O     O_3   0.808040 0.712017 0.985874 -0.499731
C70   C     C_3   0.827789 0.712139 0.887399 -0.053766
H48   H     H_    0.788446 0.677816 0.856580 0.074447
H49   H     H_    0.873909 0.639928 0.859002 0.081483
H50   H     H_    0.840888 0.846365 0.864117 0.198064
H51   H     H_    0.315401 0.043108 0.878698 0.109052
H52   H     H_    0.684599 0.543108 0.121302 0.109052
O31   O     O_3   0.316048 0.184441 0.999981 -0.548760
C71   C     C_3   0.357367 0.288233 0.929168 -0.185178
H53   H     H_    0.330878 0.335418 0.880071 0.100699
H54   H     H_    0.399790 0.212139 0.886708 0.147961
H55   H     H_    0.374783 0.399016 0.962702 0.179416
O32   O     O_3   0.683952 0.684441 0.000019 -0.548760
C72   C     C_3   0.642632 0.788232 0.070832 -0.185177
H56   H     H_    0.669122 0.835417 0.119929 0.100698
H57   H     H_    0.600210 0.712138 0.113293 0.147960
H58   H     H_    0.625217 0.899016 0.037298 0.179415
H59   H     H_    0.173758 0.907803 0.156349 0.003913
H60   H     H_    0.826242 0.407803 0.843651 0.003913
H61   H     H_    0.014474 0.950021 0.309424 0.092810
H62   H     H_    0.985525 0.450019 0.690576 0.092810
H63   H     H_    0.533239 0.864941 0.521114 0.118226
H64   H     H_    0.466761 0.364948 0.478886 0.118226
H65   H     H_    0.667041 0.792968 0.739602 0.088156
H66   H     H_    0.332959 0.292963 0.260398 0.088157
H67   H     H_    0.739129 0.781277 0.319520 0.106932
H68   H     H_    0.260871 0.281280 0.680480 0.106932

loop_
_geom_bond_atom_site_label_1
_geom_bond_atom_site_label_2
_ccdc_geom_bond_type
C32   C36   A    
C41   C43   S    
C3    C6    S    
C65   H33   S    
C15   C17   A    
C21   C33   A    
C72   H56   S    
O1    C3    A    
C41   O21   S    
C66   H38   S    
O2    C4    A    
C30   H6    S    
C2    O7    A    
O29   C69   S    
O19   V4    S    
O18   V4    S    
C2    C51   S    
C27   C29   A    
C49   C60   S    
O5    C3    A    
C5    C11   A    
C6    C12   A    
O12   V3    S    
C10   C12   A    
C23   C25   A    
C52   C54   S    
O32   C72   S    
C45   O25   S    
O14   C58   A    
C42   H24   S    
C45   C49   S    
O22   C62   S    
C33   C39   A    
O11   C59   A    
C8    C57   S    
C34   C40   A    
C35   H15   S    
C18   C26   A    
C61   H19   S    
C70   H50   S    
C47   C49   S    
C54   H14   S    
O24   C64   S    
C8    C38   A    
C71   H55   S    
O31   C71   S    
C48   O30   S    
O11   V4    S    
C6    C14   A    
C4    C5    S    
C48   H12   S    
C70   H48   S    
C19   C21   A    
C47   H11   S    
C22   C34   A    
O27   C67   S    
C22   C24   A    
C46   C50   S    
C25   H1    S    
C62   H21   S    
C36   C38   A    
C28   H10   S    
O6    V2    S    
C57   O18   A    
C70   H49   S    
C71   H54   S    
C29   C31   A    
C30   C32   A    
C67   H41   S    
C27   H9    S    
C32   C34   A    
O16   C60   A    
C69   H46   S    
C64   H29   S    
C46   C54   S    
C36   H16   S    
C69   H45   S    
O13   C57   A    
C15   C19   A    
O21   C61   S    
C16   C20   A    
C72   H58   S    
O28   C68   S    
C35   C37   A    
C7    C58   S    
C68   H44   S    
C41   H23   S    
C67   H39   S    
C65   H35   S    
O3    C1    A    
C9    H63   S    
C9    C17   A    
O15   V3    S    
C42   C44   S    
O4    V2    S    
C11   H7    S    
C47   O29   S    
C13   H65   S    
C45   C53   S    
C69   H47   S    
C51   C53   S    
C7    C37   A    
C26   H2    S    
C58   O17   A    
C53   H13   S    
O6    C4    A    
C44   C52   S    
O20   V3    S    
C38   H62   S    
O1    V2    S    
O12   C60   A    
O17   V3    S    
C61   H18   S    
O2    V1    S    
C31   C33   A    
C56   O32   S    
C50   C59   S    
C46   H60   S    
C67   H40   S    
C41   C49   S    
C24   H68   S    
C9    C11   A    
C71   H53   S    
C62   H22   S    
C44   H32   S    
C47   C55   S    
O4    C2    A    
C62   H20   S    
C66   H36   S    
C20   C28   A    
O3    V1    S    
O23   C63   S    
C64   H30   S    
C45   H59   S    
C56   H52   S    
C65   H34   S    
C10   C18   A    
C72   H57   S    
O30   C70   S    
C43   O23   S    
C52   C56   S    
C28   C30   A    
C66   H37   S    
C54   O28   S    
C55   O31   S    
C63   H26   S    
C64   H28   S    
C42   O22   S    
C13   C15   A    
C55   H51   S    
C14   C16   A    
C43   C51   S    
C5    C13   A    
C1    C52   S    
C68   H43   S    
O26   C66   S    
O7    V1    S    
C23   H67   S    
C16   C18   A    
C8    C40   A    
O8    V2    S    
C68   H42   S    
C24   C26   A    
C37   H61   S    
O25   C65   S    
C48   C56   S    
C31   C35   A    
O5    V1    S    
C21   C23   A    
C19   C27   A    
C39   H3    S    
C63   H25   S    
C43   H31   S    
O15   C59   A    
C61   H17   S    
O14   V4    S    
C63   H27   S    
O13   V3    S    
C29   H5    S    
C7    C39   A    
C1    O8    A    
C44   O24   S    
O9    V2    S    
C17   C25   A    
C14   H66   S    
O10   V1    S    
C46   O26   S    
C48   C50   S    
C12   H8    S    
C53   O27   S    
C51   C55   S    
O16   V4    S    
C10   H64   S    
C40   H4    S    
C42   C50   S    
C20   C22   A    
