data_str_m3_o41_o41_f0_fof.sym.75
_audit_creation_date              2012-12-10T16:39:38-0500
_audit_creation_method            fapswitch 2.2
_symmetry_space_group_name_H-M    P1
_symmetry_Int_Tables_number       1
_space_group_crystal_system       triclinic
_cell_length_a                    16.689077
_cell_length_b                    16.886363
_cell_length_c                    16.680254
_cell_angle_alpha                 65.163433
_cell_angle_beta                  65.643597
_cell_angle_gamma                 65.393509
_cell_volume                      3714.43484275

loop_
_atom_site_label
_atom_site_type_symbol
_atom_type_description
_atom_site_fract_x
_atom_site_fract_y
_atom_site_fract_z
_atom_type_partial_charge
C1    C     C_R   0.291058 0.040151 0.430092 0.026942
C2    C     C_R   0.325007 0.459531 0.951736 0.023634
C3    C     C_R   0.524525 0.400600 0.036203 0.031279
C4    C     C_R   0.018044 0.452062 0.586196 0.028713
C5    C     C_R   0.983171 0.547211 0.414195 0.028203
C6    C     C_3   0.240664 0.094011 0.217696 -0.331414
C7    C     C_3   0.194274 0.050061 0.191903 -0.727673
C8    C     C_3   0.703597 0.142392 0.693973 -0.348063
C9    C     C_3   0.722155 0.224641 0.610621 -0.854175
C10   C     C_3   0.852156 0.301478 0.303614 -0.361274
C11   C     C_3   0.762463 0.376688 0.292332 -0.888353
C12   C     C_3   0.143765 0.699012 0.702237 -0.363049
C13   C     C_R   0.054053 0.673930 0.538887 0.017990
C14   C     C_3   0.229793 0.720696 0.626685 -0.845729
C15   C     C_3   0.310187 0.300918 0.856945 -0.360081
C16   C     C_3   0.295364 0.378846 0.769155 -0.894495
C17   C     C_3   0.702857 0.699267 0.144074 -0.357396
C18   C     C_3   0.628030 0.715640 0.232196 -0.892035
C19   C     C_R   0.946614 0.325609 0.461747 0.037054
C20   C     C_R   0.435284 0.011128 0.456586 -0.042306
C21   C     C_R   0.531475 0.024951 0.553000 -0.041741
C22   C     C_R   0.974558 0.458469 0.459645 -0.043349
C23   C     C_R   0.026860 0.540744 0.540652 -0.044233
C24   C     C_R   0.446695 0.451551 0.003560 -0.039939
C25   C     C_R   0.534970 0.538201 0.040738 -0.042026
C26   C     C_R   0.961778 0.180036 0.437720 0.852005
C27   C     C_R   0.677103 0.008397 0.570273 0.003487
C28   C     C_R   0.038161 0.819921 0.562512 0.939792
C29   C     C_R   0.179784 0.438558 0.961243 0.900864
C30   C     C_R   0.820034 0.560917 0.040793 0.889203
C31   C     C_R   0.432141 0.972662 0.179331 0.886776
C32   C     C_R   0.557980 0.046028 0.820732 0.907381
C33   C     C_R   0.562493 0.820117 0.038329 0.936861
C34   C     C_R   0.431854 0.177819 0.975416 0.874987
C35   C     C_R   0.040407 0.561104 0.820088 0.891348
C36   C     C_R   0.960174 0.438486 0.180007 0.899686
C37   C     C_R   0.821314 0.024889 0.568736 0.925442
C38   C     C_R   0.940799 0.461578 0.328286 0.021315
C39   C     C_R   0.158828 0.010410 0.423705 0.959118
C40   C     C_R   0.387646 0.008248 0.405265 0.073542
C41   C     C_R   0.580035 0.036295 0.597643 0.069992
C42   C     C_R   0.952863 0.415549 0.417021 0.055978
C43   C     C_R   0.048663 0.583654 0.583230 0.060780
C44   C     C_R   0.403484 0.408419 0.983453 0.060017
C45   C     C_R   0.580739 0.582810 0.055843 0.062299
C46   C     C_R   0.245507 0.032295 0.379719 -0.186702
C47   C     C_R   0.722756 0.037845 0.604627 -0.137836
C48   C     C_R   0.931756 0.412540 0.281429 -0.139204
C49   C     C_R   0.061350 0.537372 0.671669 0.041537
C50   C     C_R   0.070398 0.586295 0.718584 -0.189823
C51   C     C_R   0.397848 0.274025 0.966653 -0.170627
C52   C     C_R   0.588957 0.720051 0.065483 -0.138481
C53   C     C_R   0.583377 0.076039 0.719736 -0.194023
C54   C     C_R   0.386281 0.985932 0.269993 -0.154340
C55   C     C_R   0.718410 0.586526 0.071847 -0.192650
C56   C     C_R   0.280264 0.412351 0.937627 -0.126921
C57   C     C_R   0.065277 0.719464 0.588406 -0.135353
C58   C     C_R   0.934722 0.280379 0.412479 -0.164438
C59   C     C_R   0.434701 0.101948 0.698843 -0.227882
C60   C     C_R   0.434982 0.313219 0.000494 0.020577
C61   C     C_R   0.531845 0.928521 0.314936 -0.251457
C62   C     C_R   0.049421 0.714163 0.446211 -0.234339
C63   C     C_R   0.950678 0.285553 0.554605 -0.247359
C64   C     C_R   0.701947 0.440385 0.083888 -0.237363
C65   C     C_R   0.292484 0.554911 0.937939 -0.220891
C66   C     C_R   0.242752 0.079027 0.503448 -0.226864
C67   C     C_R   0.723472 0.954899 0.508450 -0.237909
C68   C     C_R   0.503818 0.262373 0.048000 -0.231614
C69   C     C_R   0.447150 0.715795 0.048367 -0.220452
C70   C     C_R   0.937155 0.555313 0.290219 -0.221748
C71   C     C_R   0.538783 0.674473 0.055791 0.016135
C72   C     C_R   0.064547 0.443752 0.709936 -0.226491
C73   C     C_R   0.290847 0.028852 0.290945 0.065030
C74   C     C_R   0.671152 0.083136 0.672432 0.079363
C75   C     C_R   0.909626 0.330773 0.331396 0.072042
C76   C     C_R   0.091174 0.668655 0.669439 0.067855
C77   C     C_R   0.329740 0.328986 0.921722 0.065913
C78   C     C_R   0.670514 0.669694 0.090517 0.080202
C79   C     C_R   0.675804 0.943894 0.463201 0.110165
C80   C     C_R   0.289934 0.084545 0.552832 0.108920
C81   C     C_R   0.037279 0.403325 0.671284 0.112933
C82   C     C_R   0.531843 0.072032 0.672679 0.047475
C83   C     C_R   0.963624 0.596049 0.329254 0.112636
C84   C     C_R   0.408812 0.677278 0.019199 0.102779
C85   C     C_R   0.553293 0.305368 0.058427 0.102071
C86   C     C_R   0.579670 0.930623 0.366136 0.117202
C87   C     C_R   0.386112 0.096331 0.650718 0.113897
C88   C     C_R   0.331131 0.596489 0.963948 0.111318
C89   C     C_R   0.652417 0.394452 0.077149 0.109350
C90   C     C_R   0.978643 0.324622 0.594021 0.104580
C91   C     C_R   0.021196 0.675206 0.406961 0.104880
C92   C     C_R   0.722968 0.897010 0.396689 -0.206087
C93   C     C_R   0.435946 0.971951 0.329985 0.012626
C94   C     C_R   0.242090 0.123672 0.625316 -0.204883
C95   C     C_R   0.026826 0.315458 0.717604 -0.207462
C96   C     C_R   0.972536 0.684536 0.283642 -0.209572
C97   C     C_R   0.327161 0.727284 0.993421 -0.202650
C98   C     C_R   0.631092 0.254617 0.091016 -0.202599
C99   C     C_R   0.675372 0.890740 0.348351 -0.214788
C100  C     C_R   0.289677 0.129382 0.673984 -0.210819
C101  C     C_R   0.290455 0.688151 0.962740 -0.203922
C102  C     C_R   0.681672 0.298972 0.097919 -0.210395
C103  C     C_R   0.995199 0.277529 0.680517 -0.230680
C104  C     C_R   0.668926 0.536212 0.069061 0.046400
C105  C     C_R   0.003232 0.722920 0.321117 -0.221960
C106  C     C_R   0.531528 0.974642 0.435230 0.027926
C107  C     C_R   0.434731 0.057040 0.577877 0.025448
C108  C     C_R   0.991065 0.411487 0.546246 0.035674
C109  C     C_R   0.009834 0.587908 0.454284 0.033275
C110  C     C_R   0.410380 0.545165 0.994034 0.026976
C111  C     C_R   0.571428 0.444655 0.050081 0.031011
C112  C     C_R   0.579644 0.981640 0.483443 0.029694
C113  C     C_R   0.386621 0.050597 0.529295 0.026994
C114  C     C_R   0.452007 0.587170 0.016924 0.029850
H1    H     H_    0.251036 0.159936 0.729610 0.135698
H2    H     H_    0.293236 0.797417 0.994473 0.134016
H3    H     H_    0.957983 0.723170 0.217885 0.131129
H4    H     H_    0.040868 0.276996 0.783608 0.130419
H5    H     H_    0.396885 0.132965 0.754152 0.146535
H6    H     H_    0.570601 0.893302 0.263369 0.168956
H7    H     H_    0.070870 0.774108 0.400767 0.179805
H8    H     H_    0.929098 0.225631 0.599901 0.184105
H9    H     H_    0.763281 0.399622 0.105901 0.172827
H10   H     H_    0.237699 0.598121 0.906073 0.159841
H11   H     H_    0.168592 0.108154 0.520204 0.164488
H12   H     H_    0.713660 0.855784 0.296127 0.138538
H13   H     H_    0.796335 0.920227 0.494963 0.178308
H14   H     H_    0.520595 0.189428 0.078794 0.184359
H15   H     H_    0.401205 0.775979 0.068468 0.175907
H16   H     H_    0.911721 0.599022 0.231240 0.163269
H17   H     H_    0.089657 0.400121 0.769145 0.171595
H18   H     H_    0.204271 0.076344 0.116273 0.217279
H19   H     H_    0.222675 0.974497 0.211864 0.262032
H20   H     H_    0.119018 0.068311 0.226254 0.234659
H21   H     H_    0.187136 0.152481 0.241974 0.171955
H22   H     H_    0.288860 0.126360 0.154892 0.201474
H23   H     H_    0.010977 0.790766 0.283895 0.131361
H24   H     H_    0.743558 0.267125 0.629337 0.246323
H25   H     H_    0.658687 0.267038 0.588836 0.257306
H26   H     H_    0.777469 0.203186 0.551597 0.252680
H27   H     H_    0.649243 0.171175 0.749566 0.200190
H28   H     H_    0.764101 0.102405 0.720786 0.226773
H29   H     H_    0.723334 0.396933 0.356526 0.268103
H30   H     H_    0.776354 0.437561 0.233997 0.244415
H31   H     H_    0.719321 0.351161 0.278649 0.250847
H32   H     H_    0.891380 0.280784 0.239920 0.224560
H33   H     H_    0.830975 0.241682 0.358112 0.216297
H34   H     H_    0.986202 0.210210 0.718326 0.131292
H35   H     H_    0.274623 0.661043 0.600677 0.256368
H36   H     H_    0.211685 0.780919 0.568267 0.271296
H37   H     H_    0.269079 0.736081 0.655442 0.247303
H38   H     H_    0.098866 0.758059 0.728867 0.231819
H39   H     H_    0.169191 0.643288 0.759888 0.197133
H40   H     H_    0.231495 0.434354 0.784945 0.244519
H41   H     H_    0.288922 0.352632 0.721824 0.249016
H42   H     H_    0.354827 0.407047 0.733386 0.267368
H43   H     H_    0.369992 0.246375 0.832116 0.203911
H44   H     H_    0.249876 0.274100 0.893335 0.223176
H45   H     H_    0.742899 0.258556 0.120588 0.136464
H46   H     H_    0.567758 0.773982 0.216155 0.248304
H47   H     H_    0.605234 0.653590 0.275572 0.267365
H48   H     H_    0.655975 0.730930 0.272260 0.242431
H49   H     H_    0.761907 0.644645 0.167552 0.200231
H50   H     H_    0.726905 0.760380 0.100777 0.227637
H51   H     H_    0.228686 0.728571 0.941020 0.133899
H52   H     H_    0.167791 0.149570 0.644529 0.151036
H53   H     H_    0.796969 0.866771 0.380663 0.148480
H54   H     H_    0.654358 0.180802 0.108620 0.140180
O1    O     O_R   0.982940 0.138950 0.510160 -0.661456
O2    O     O_R   0.982940 0.510160 0.138950 -0.634305
O3    O     O_R   0.861050 0.017060 0.489840 -0.640672
O4    O     O_R   0.138950 0.982940 0.510160 -0.631965
O5    O     O_R   0.867700 0.025880 0.612340 -0.624396
O6    O     O_R   0.132300 0.974120 0.387660 -0.617792
O7    O     O_R   0.025880 0.612340 0.867700 -0.625447
O8    O     O_R   0.974120 0.387660 0.132300 -0.624133
O9    O     O_R   0.612340 0.867700 0.025880 -0.615279
O10   O     O_R   0.387660 0.132300 0.974120 -0.651153
O11   O     O_R   0.387660 0.974120 0.132300 -0.615413
O12   O     O_R   0.017060 0.861050 0.489840 -0.648459
O13   O     O_R   0.612340 0.025880 0.867700 -0.616827
O14   O     O_R   0.132300 0.387660 0.974120 -0.621551
O15   O     O_R   0.867700 0.612340 0.025880 -0.626299
O16   O     O_R   0.974120 0.132300 0.387660 -0.649492
O17   O     O_R   0.025880 0.867700 0.612340 -0.614091
O18   O     O_R   0.138950 0.510160 0.982940 -0.633905
O19   O     O_R   0.861050 0.489840 0.017060 -0.617518
O20   O     O_R   0.510160 0.982940 0.138950 -0.641858
O21   O     O_R   0.489840 0.017060 0.861050 -0.612676
O22   O     O_R   0.489840 0.861050 0.017060 -0.636363
O23   O     O_R   0.510160 0.138950 0.982940 -0.640668
O24   O     O_R   0.017060 0.489840 0.861050 -0.622269
Zn1   Zn    Zn3+2 0.004880 0.004880 0.583590 0.904139
Zn2   Zn    Zn3+2 0.995120 0.995120 0.416410 0.885059
Zn3   Zn    Zn3+2 0.004880 0.583590 0.004880 0.912398
Zn4   Zn    Zn3+2 0.995120 0.416410 0.995120 0.917594
Zn5   Zn    Zn3+2 0.583590 0.004880 0.004880 0.916543
Zn6   Zn    Zn3+2 0.416410 0.995120 0.995120 0.903471

loop_
_geom_bond_atom_site_label_1
_geom_bond_atom_site_label_2
_ccdc_geom_bond_type
O21   Zn6   S    
C96   C105  A    
C38   C70   A    
C35   O24   A    
O20   Zn5   S    
O19   Zn4   S    
C3    C85   A    
C18   H48   S    
C30   O15   A    
C91   C105  A    
C53   C74   A    
C59   C82   A    
C12   H39   S    
C2    C65   A    
O13   Zn5   S    
C94   H52   S    
C88   C101  A    
C3    C24   A    
C22   C108  A    
C106  C112  A    
C28   C57   S    
C33   C52   S    
C4    C108  A    
C34   C51   S    
C39   O4    A    
C79   C112  A    
C72   H17   S    
C84   C97   A    
O24   Zn4   S    
C57   C76   A    
C59   H5    S    
C34   O23   A    
C45   C104  A    
C15   H43   S    
C50   C76   A    
O3    Zn2   S    
O2    Zn3   S    
C81   C95   A    
C9    H26   S    
C61   C93   A    
C1    C46   A    
C13   C57   A    
C83   C96   A    
C15   C16   S    
C70   H16   S    
C23   C43   A    
C29   O18   A    
C63   C90   A    
C64   C104  A    
C9    H24   S    
C65   H10   S    
C69   C71   A    
C12   H38   S    
C107  C113  A    
C54   C93   A    
C6    H22   S    
C85   C98   A    
C17   H49   S    
C1    C40   A    
C5    C22   A    
C26   O1    A    
C19   C63   A    
C8    C9    S    
C49   C72   A    
C31   O20   A    
C16   H42   S    
O15   Zn3   S    
C8    H27   S    
C37   C47   S    
C11   H30   S    
C68   H14   S    
C38   C48   A    
C72   C81   A    
C19   C42   A    
C10   H33   S    
C88   C110  A    
C27   C41   A    
O10   Zn6   S    
C15   C77   S    
C95   H4    S    
O9    Zn5   S    
C61   H6    S    
C68   C85   A    
C48   C75   A    
O4    Zn1   S    
C86   C106  A    
C100  H1    S    
C64   C89   A    
C16   H41   S    
C39   O6    A    
C52   C78   A    
O7    Zn3   S    
C95   C103  A    
C103  H34   S    
C1    C66   A    
C99   H12   S    
C20   C106  A    
C19   C58   A    
C23   C109  A    
C29   O14   A    
C13   C62   A    
C33   O9    A    
C32   O13   A    
C24   C110  A    
C15   H44   S    
C10   C11   S    
C2    C44   A    
C55   C78   A    
C11   H31   S    
O1    Zn1   S    
C98   C102  A    
C37   O5    A    
C55   C104  A    
C56   C77   A    
C31   O11   A    
C33   O22   A    
C14   H37   S    
C51   C77   A    
C6    H21   S    
C86   C99   A    
C17   H50   S    
C67   H13   S    
C54   C73   A    
C28   O12   A    
C10   C75   S    
C96   H3    S    
C89   C102  A    
C40   C93   A    
C94   C100  A    
C97   C101  A    
C62   C91   A    
C14   H36   S    
C35   C50   S    
C8    C74   S    
C17   C18   S    
C7    H18   S    
C67   C79   A    
O8    Zn4   S    
C97   H2    S    
C101  H51   S    
C70   C83   A    
C26   C58   S    
C79   C92   A    
C21   C107  A    
C10   H32   S    
C39   C46   S    
C21   C41   A    
O11   Zn6   S    
C12   C14   S    
O6    Zn2   S    
C12   C76   S    
C16   H40   S    
C24   C44   A    
C3    C111  A    
C34   O10   A    
C36   O8    A    
O14   Zn4   S    
C80   C94   A    
C25   C45   A    
C32   C53   S    
C13   C43   A    
C21   C112  A    
O12   Zn2   S    
C45   C71   A    
O22   Zn6   S    
C6    C73   S    
C87   C100  A    
C27   C47   A    
C4    C23   A    
C110  C114  A    
C84   C114  A    
C7    H20   S    
C20   C40   A    
C43   C49   A    
O23   Zn5   S    
C47   C74   A    
O17   Zn1   S    
C102  H45   S    
C37   O3    A    
C5    C83   A    
C7    H19   S    
C6    C7    S    
C29   C56   S    
O18   Zn3   S    
C64   H9    S    
C66   C80   A    
C30   C55   S    
C89   C111  A    
C36   O2    A    
C66   H11   S    
C35   O7    A    
C30   O19   A    
C91   C109  A    
C90   C108  A    
C69   C84   A    
C2    C56   A    
C25   C114  A    
O5    Zn1   S    
C63   H8    S    
C9    H25   S    
C92   H53   S    
C22   C42   A    
C5    C109  A    
C65   C88   A    
C44   C60   A    
O16   Zn2   S    
C41   C82   A    
C4    C81   A    
C14   H35   S    
C17   C78   S    
C18   H47   S    
C32   O21   A    
C36   C48   S    
C62   H7    S    
C31   C54   S    
C20   C113  A    
C59   C87   A    
C90   C103  A    
C27   C67   A    
C61   C86   A    
C25   C111  A    
C105  H23   S    
C38   C42   A    
C87   C107  A    
C80   C113  A    
C60   C68   A    
C69   H15   S    
C49   C50   A    
C52   C71   A    
C53   C82   A    
C8    H28   S    
C51   C60   A    
C28   O17   A    
C11   H29   S    
C46   C73   A    
C98   H54   S    
C18   H46   S    
C92   C99   A    
C58   C75   A    
C26   O16   A    
