data_str_m9_o4_o2_f0_sra.sym.108
_audit_creation_date              2012-12-11T17:07:24-0500
_audit_creation_method            fapswitch 2.2
_symmetry_space_group_name_H-M    P1
_symmetry_Int_Tables_number       1
_space_group_crystal_system       triclinic
_cell_length_a                    6.953275
_cell_length_b                    14.518755
_cell_length_c                    16.126378
_cell_angle_alpha                 90.19468
_cell_angle_beta                  89.65188
_cell_angle_gamma                 90.12111
_cell_volume                      1627.96155048

loop_
_atom_site_label
_atom_site_type_symbol
_atom_type_description
_atom_site_fract_x
_atom_site_fract_y
_atom_site_fract_z
_atom_type_partial_charge
O1    O     O_R   0.505720 0.583900 0.413310 -0.537330
O2    O     O_R   0.175940 0.594920 0.586080 -0.544632
O3    O     O_R   0.005640 0.416100 0.586690 -0.535766
C1    C     C_R   0.344427 0.617873 0.614046 0.698649
O4    O     O_R   0.176000 0.594930 0.413930 -0.543813
O5    O     O_R   0.005700 0.416110 0.413310 -0.542273
C2    C     C_R   0.345172 0.616976 0.385157 0.691673
O6    O     O_R   0.505660 0.583890 0.586690 -0.538209
O7    O     O_3   0.339200 0.441330 0.500000 -0.365676
V1    V     V_3+5 0.064350 0.510880 0.500000 1.382555
O8    O     O_R   0.675980 0.405080 0.413920 -0.538321
C3    C     C_R   0.844502 0.386980 0.382159 0.694462
O9    O     O_R   0.675920 0.405070 0.586070 -0.539510
C4    C     C_R   0.844107 0.382118 0.614764 0.738173
V2    V     V_3+5 0.564340 0.489120 0.500000 1.391526
O10   O     O_3   0.839360 0.558670 0.500000 -0.372556
H1    H     H_    0.977889 0.053947 0.513867 0.110765
C5    C     C_R   0.793821 0.438625 0.795103 0.095783
C6    C     C_R   0.800616 0.464157 0.879300 -0.101541
C7    C     C_R   0.831995 0.399862 0.940954 0.175866
C8    C     C_R   0.855554 0.308322 0.919121 -0.151820
C9    C     C_R   0.857066 0.279205 0.835254 0.001639
C10   C     C_R   0.833641 0.344745 0.769901 0.046779
C11   C     C_R   0.885836 0.185236 0.817654 -0.146466
C12   C     C_R   0.913835 0.155176 0.735531 0.045833
C13   C     C_R   0.890187 0.216902 0.667350 0.048896
C14   C     C_R   0.851172 0.313531 0.684411 -0.164335
C15   C     C_R   0.968343 0.062485 0.721164 -0.158856
C16   C     C_R   0.994351 0.028331 0.642120 -0.184294
C17   C     C_R   0.960776 0.084070 0.575056 -0.089745
C18   C     C_R   0.906431 0.176602 0.585440 0.153531
H2    H     H_    0.775701 0.535056 0.897718 0.114117
H3    H     H_    0.876866 0.260246 0.969398 0.105735
H4    H     H_    0.994036 0.014656 0.771130 0.115762
H5    H     H_    0.037534 0.957390 0.632770 0.127829
C19   C     C_R   0.724761 0.186946 0.238588 0.096076
C20   C     C_R   0.880865 0.185130 0.183359 -0.109315
C21   C     C_R   0.032660 0.247392 0.198148 -0.180854
H6    H     H_    0.155694 0.248865 0.156960 0.135128
C22   C     C_R   0.021347 0.312529 0.263015 -0.178563
H7    H     H_    0.136749 0.361845 0.270377 0.126869
C23   C     C_R   0.857361 0.317708 0.314574 -0.103803
C24   C     C_R   0.712946 0.251811 0.302261 0.104835
C25   C     C_3   0.503048 0.265433 0.289514 -0.406587
C26   C     C_3   0.515687 0.194483 0.220294 -0.399105
H8    H     H_    0.470160 0.335942 0.267108 0.164113
H9    H     H_    0.416252 0.241844 0.343558 0.179295
H10   H     H_    0.489460 0.223622 0.157712 0.170885
H11   H     H_    0.436517 0.129734 0.234349 0.168668
C27   C     C_R   0.491851 0.757454 0.682938 0.101695
C28   C     C_R   0.350544 0.688576 0.680372 -0.108536
C29   C     C_R   0.205297 0.692726 0.741965 -0.176699
H12   H     H_    0.087297 0.644057 0.741143 0.128054
C30   C     C_R   0.217518 0.756189 0.808474 -0.183140
H13   H     H_    0.107532 0.754947 0.856276 0.124190
C31   C     C_R   0.376109 0.816667 0.815572 -0.112063
C32   C     C_R   0.504962 0.818388 0.748768 0.110360
C33   C     C_3   0.717971 0.824765 0.742056 -0.421558
C34   C     C_3   0.703761 0.759574 0.667744 -0.405798
H14   H     H_    0.791238 0.793921 0.796283 0.175468
H15   H     H_    0.765376 0.895040 0.725049 0.176497
H16   H     H_    0.774991 0.692545 0.677637 0.182043
H17   H     H_    0.740810 0.793477 0.608027 0.166004
C35   C     C_R   0.506903 0.682452 0.257839 0.100054
C36   C     C_R   0.353395 0.682513 0.314577 -0.112413
C37   C     C_R   0.201811 0.744476 0.299504 -0.177368
H18   H     H_    0.079621 0.746929 0.341146 0.131299
C38   C     C_R   0.212458 0.808444 0.233942 -0.177868
H19   H     H_    0.097840 0.857989 0.227073 0.126177
C39   C     C_R   0.375291 0.812714 0.181503 -0.110836
C40   C     C_R   0.517891 0.746007 0.193239 0.103034
C41   C     C_3   0.729240 0.757864 0.203666 -0.406579
C42   C     C_3   0.717330 0.688286 0.273712 -0.400131
H20   H     H_    0.766789 0.828452 0.225026 0.166348
H21   H     H_    0.811900 0.732488 0.149005 0.173968
H22   H     H_    0.748688 0.718257 0.335695 0.170076
H23   H     H_    0.792330 0.622529 0.259377 0.168082
O11   O     O_R   0.229140 0.916090 0.913340 -0.541150
O12   O     O_R   0.558860 0.905090 0.086080 -0.540170
O13   O     O_R   0.729100 0.083920 0.086690 -0.537520
C43   C     C_R   0.389436 0.883056 0.114915 0.690285
O14   O     O_R   0.558860 0.905090 0.913930 -0.540288
O15   O     O_R   0.729100 0.083920 0.913310 -0.533399
C44   C     C_R   0.389883 0.882845 0.885388 0.702371
O16   O     O_R   0.229140 0.916080 0.086720 -0.540842
O17   O     O_3   0.395570 0.058660 0.000020 -0.366587
V3    V     V_3+5 0.670450 0.989140 0.000000 1.403495
O18   O     O_R   0.058810 0.094980 0.913910 -0.540188
C45   C     C_R   0.890988 0.117143 0.886162 0.699905
O19   O     O_R   0.058810 0.094980 0.086060 -0.544713
C46   C     C_R   0.889691 0.117859 0.114131 0.684939
V4    V     V_3+5 0.170450 0.010950 0.999970 1.402241
O20   O     O_3   0.895460 0.941370 0.999990 -0.373042
C47   C     C_3   0.725086 0.513232 0.738294 -0.754753
H24   H     H_    0.589672 0.489963 0.709339 0.227353
H25   H     H_    0.687706 0.577578 0.772126 0.183612
H26   H     H_    0.837712 0.532303 0.692691 0.201874
C48   C     C_3   0.835902 0.427571 0.030869 -0.806828
H27   H     H_    0.813339 0.502786 0.039066 0.203429
H28   H     H_    0.720799 0.390501 0.065346 0.212367
H29   H     H_    0.977280 0.409352 0.057904 0.212622
C49   C     C_3   0.866767 0.226013 0.506412 -0.793072
H30   H     H_    0.867644 0.179466 0.451598 0.188188
H31   H     H_    0.721571 0.257091 0.508488 0.215913
H32   H     H_    0.984071 0.275902 0.496216 0.221528

loop_
_geom_bond_atom_site_label_1
_geom_bond_atom_site_label_2
_ccdc_geom_bond_type
C37   C38   A    
O15   V3    S    
C6    C7    A    
C1    O6    A    
C11   C45   S    
O12   V3    S    
C32   C33   S    
C29   H12   S    
C12   C15   A    
C13   C14   A    
C16   C17   A    
C27   C34   S    
C15   C16   A    
O13   V3    S    
O5    C3    A    
C17   C18   A    
C8    H3    S    
C33   H14   S    
O14   V3    S    
C31   C32   A    
C49   H32   S    
C5    C6    A    
C35   C40   A    
C39   C43   S    
C3    C23   S    
O8    V2    S    
O18   V4    S    
C25   H8    S    
C38   H19   S    
C35   C42   S    
C39   C40   A    
O1    V2    S    
C10   C14   A    
C4    C14   S    
O7    V1    S    
C25   H9    S    
C47   H25   S    
C33   H15   S    
C22   C23   A    
C37   H18   S    
C15   H4    S    
C13   C18   A    
O9    C4    A    
H1    C17   S    
C49   H30   S    
C41   H21   S    
C6    H2    S    
O16   V4    S    
C29   C30   A    
C31   C44   S    
O15   C45   A    
C30   C31   A    
C20   C46   S    
C1    C28   S    
C5    C10   A    
C18   C49   S    
C11   C12   A    
C41   H20   S    
O12   C43   A    
O17   V3    S    
C47   H26   S    
O11   V4    S    
C33   C34   S    
C28   C29   A    
O2    C1    A    
C24   C25   S    
C20   C21   A    
C2    C36   S    
O19   V4    S    
C26   H11   S    
C27   C28   A    
C19   C26   S    
C7    C8    A    
C49   H31   S    
O3    C4    A    
C22   H7    S    
C36   C37   A    
O6    V2    S    
O14   C44   A    
O9    V2    S    
C5    C47   S    
C42   H22   S    
C9    C11   A    
C23   C24   A    
O2    V1    S    
C25   C26   S    
O4    C2    A    
C26   H10   S    
C30   H13   S    
C19   C20   A    
C34   H16   S    
O1    C2    A    
C27   C32   A    
C34   H17   S    
C41   C42   S    
O5    V1    S    
O8    C3    A    
C48   H29   S    
C16   H5    S    
C48   H28   S    
C35   C36   A    
O13   C46   A    
C12   C13   A    
O4    V1    S    
O3    V1    S    
V1    O10   S    
C21   C22   A    
O19   C46   A    
C21   H6    S    
V3    O20   S    
V4    O20   S    
O7    V2    S    
C47   H24   S    
O11   C44   A    
C40   C41   S    
C7    C48   S    
O18   C45   A    
C38   C39   A    
C48   H27   S    
C42   H23   S    
C9    C10   A    
C19   C24   A    
O17   V4    S    
C8    C9    A    
C43   O16   A    
V2    O10   S    
