data_str_m2_o10_o29_f0_pcu.sym.99
_audit_creation_date              2013-03-05T15:42:04-0500
_audit_creation_method            fapswitch 2.2
_symmetry_space_group_name_H-M    P1
_symmetry_Int_Tables_number       1
_space_group_crystal_system       triclinic
_cell_length_a                    27.734161
_cell_length_b                    8.716244
_cell_length_c                    7.502976
_cell_angle_alpha                 101.88888
_cell_angle_beta                  95.319455
_cell_angle_gamma                 92.272859
_cell_volume                      1763.98530631

loop_
_atom_site_label
_atom_site_type_symbol
_atom_site_description
_atom_site_fract_x
_atom_site_fract_y
_atom_site_fract_z
_atom_type_partial_charge
O1    O     O_R   0.503500 0.286120 0.619780 -0.531130
O2    O     O_R   0.496500 0.713880 0.380220 -0.533188
O3    O     O_R   0.494410 0.256780 0.308360 -0.595603
O4    O     O_R   0.505590 0.743220 0.691640 -0.597899
C1    C     C_R   0.497947 0.200337 0.454300 0.853183
C2    C     C_R   0.501571 0.799624 0.545704 0.867298
O5    O     O_R   0.434810 0.514700 0.655690 -0.551301
O6    O     O_R   0.565190 0.485300 0.344310 -0.552490
O7    O     O_R   0.425720 0.485350 0.344280 -0.631801
O8    O     O_R   0.574280 0.514650 0.655720 -0.626842
C3    C     C_R   0.407763 0.494192 0.499709 0.828913
C4    C     C_R   0.592275 0.505882 0.500182 0.833071
Cu1   Cu    Cu3+1 0.505380 0.517380 0.684380 1.023187
Cu2   Cu    Cu3+1 0.494620 0.482620 0.315620 1.020712
C5    C     C_R   0.180019 0.429619 0.633672 0.540615
C6    C     C_R   0.820026 0.580413 0.368581 0.573737
O9    O     O_2   0.206483 0.367710 0.758716 -0.546235
O10   O     O_2   0.793013 0.630470 0.235072 -0.530965
N1    N     N_R   0.202501 0.488539 0.505552 -0.436661
N2    N     N_R   0.797987 0.529940 0.503308 -0.436590
C7    C     C_R   0.176743 0.547395 0.373134 0.580626
C8    C     C_R   0.824179 0.480564 0.642159 0.554566
C9    C     C_R   0.282948 0.626879 0.590305 0.231247
C10   C     C_R   0.718338 0.390763 0.402071 0.234369
C11   C     C_R   0.333508 0.628765 0.580217 0.128585
C12   C     C_R   0.667764 0.383644 0.408370 0.128896
C13   C     C_R   0.325687 0.355134 0.412161 0.176019
C14   C     C_R   0.673422 0.651221 0.595805 0.176387
C15   C     C_R   0.275304 0.356090 0.420241 -0.180845
C16   C     C_R   0.724095 0.653356 0.593949 -0.186126
C17   C     C_R   0.254253 0.489360 0.509977 0.255480
C18   C     C_R   0.746192 0.525401 0.497431 0.250581
C19   C     C_R   0.102214 0.496912 0.503198 -0.043647
C20   C     C_R   0.898342 0.524308 0.506643 -0.043427
C21   C     C_R   0.129582 0.434739 0.636511 -0.024221
C22   C     C_R   0.870637 0.579750 0.368573 -0.031562
C23   C     C_R   0.106231 0.379765 0.769899 -0.149962
C24   C     C_R   0.893848 0.632472 0.233426 -0.154641
C25   C     C_R   0.126151 0.551953 0.368935 -0.035354
C26   C     C_R   0.874690 0.474640 0.644923 -0.037321
C27   C     C_R   0.354857 0.490965 0.499911 -0.158449
C28   C     C_R   0.645275 0.515047 0.500062 -0.169095
H1    H     H_    0.251611 0.254325 0.356180 0.165764
H2    H     H_    0.747203 0.754076 0.665931 0.165066
H3    H     H_    0.126453 0.331253 0.873798 0.191172
H4    H     H_    0.873395 0.676531 0.126344 0.193916
C29   C     C_R   0.976696 0.459377 0.645217 0.038303
C30   C     C_R   0.023992 0.564670 0.366403 0.037068
C31   C     C_R   0.972827 0.571083 0.366958 0.037009
C32   C     C_R   0.027701 0.449934 0.642497 0.036227
C33   C     C_R   0.949524 0.518285 0.506296 0.072802
C34   C     C_R   0.051071 0.503896 0.504046 0.071167
C35   C     C_R   0.951613 0.412003 0.782841 -0.220500
C36   C     C_R   0.049323 0.616578 0.232069 -0.216907
C37   C     C_R   0.901721 0.419335 0.782069 -0.164337
C38   C     C_R   0.099302 0.610845 0.234189 -0.157959
O11   O     O_2   0.801300 0.436277 0.776234 -0.534856
O12   O     O_2   0.200095 0.601395 0.246214 -0.547000
C39   C     C_R   0.056425 0.387019 0.773200 -0.218538
C40   C     C_R   0.943830 0.629194 0.232836 -0.221781
H5    H     H_    0.884356 0.380626 0.890043 0.193756
H6    H     H_    0.116846 0.652868 0.128660 0.188440
H7    H     H_    0.969265 0.369442 0.895327 0.147311
H8    H     H_    0.031879 0.663039 0.122239 0.146197
H9    H     H_    0.041779 0.340838 0.880490 0.148118
H10   H     H_    0.958306 0.672726 0.123472 0.149479
C41   C     C_2   0.496431 0.032979 0.428293 -0.395278
C42   C     C_2   0.502571 0.966879 0.571718 -0.380585
H11   H     H_    0.490720 0.963620 0.289072 0.213603
H12   H     H_    0.508261 0.036242 0.710939 0.211548
N3    N     N_2   0.486510 0.456430 0.038510 0.123329
N4    N     N_2   0.513490 0.543570 0.961490 0.122701
N5    N     N_2   0.347497 0.221776 0.313724 -0.433304
H13   H     H_    0.379071 0.187920 0.374122 0.228123
C43   C     C_3   0.318162 0.101387 0.182189 -0.718827
H14   H     H_    0.293678 0.035343 0.252332 0.230634
H15   H     H_    0.342180 0.017928 0.106674 0.221737
H16   H     H_    0.296335 0.155048 0.081968 0.255554
N6    N     N_2   0.650207 0.782119 0.693600 -0.432428
H17   H     H_    0.617922 0.809322 0.631186 0.227952
C44   C     C_3   0.678779 0.914037 0.810013 -0.717670
H18   H     H_    0.654263 0.997834 0.882128 0.220038
H19   H     H_    0.700608 0.976407 0.727161 0.227467
H20   H     H_    0.703005 0.873180 0.914874 0.252089
O13   O     O_3   0.466142 0.326249 0.924218 -0.484351
C45   C     C_3   0.419217 0.301962 0.972683 0.220834
H21   H     H_    0.399210 0.411680 0.988345 0.151868
H22   H     H_    0.420687 0.255059 0.099131 0.185712
C46   C     C_3   0.391536 0.179319 0.822577 -0.888633
H23   H     H_    0.408760 0.066311 0.818982 0.253779
H24   H     H_    0.353093 0.166154 0.849214 0.227581
H25   H     H_    0.392822 0.214186 0.689251 0.248548
O14   O     O_3   0.533288 0.674707 0.075683 -0.485168
C47   C     C_3   0.580177 0.701169 0.028220 0.225082
H26   H     H_    0.578538 0.747409 0.901462 0.185763
H27   H     H_    0.600701 0.592539 0.013394 0.151805
C48   C     C_3   0.607297 0.825453 0.178348 -0.889772
H28   H     H_    0.606852 0.789930 0.311721 0.247514
H29   H     H_    0.645503 0.841877 0.149998 0.225534
H30   H     H_    0.589298 0.937452 0.184052 0.259769
N7    N     N_2   0.640113 0.238381 0.346625 -0.418270
H31   H     H_    0.648367 0.169998 0.225405 0.249936
C49   C     C_3   0.633665 0.151666 0.489151 -0.674582
H32   H     H_    0.657187 0.050896 0.473710 0.231045
H33   H     H_    0.595452 0.106736 0.477543 0.235867
H34   H     H_    0.642543 0.225730 0.629020 0.234094
N8    N     N_2   0.362822 0.771450 0.633051 -0.428010
H35   H     H_    0.353503 0.847072 0.747511 0.255251
C50   C     C_3   0.369473 0.846881 0.481350 -0.686844
H36   H     H_    0.398995 0.939980 0.520423 0.233207
H37   H     H_    0.335511 0.899481 0.441550 0.230133
H38   H     H_    0.379757 0.761900 0.360969 0.243492
N9    N     N_2   0.741815 0.262331 0.303741 -0.416871
H39   H     H_    0.726330 0.216149 0.172322 0.250464
C51   C     C_3   0.757769 0.145788 0.405261 -0.624434
H40   H     H_    0.797044 0.131335 0.394839 0.239425
H41   H     H_    0.737665 0.030995 0.346461 0.212976
H42   H     H_    0.751918 0.180029 0.552491 0.247967
N10   N     N_2   0.260115 0.764141 0.670690 -0.427506
H43   H     H_    0.273780 0.867080 0.642166 0.262739
C52   C     C_3   0.254226 0.777616 0.862707 -0.642154
H44   H     H_    0.235944 0.886733 0.913871 0.230847
H45   H     H_    0.290097 0.781965 0.943385 0.212866
H46   H     H_    0.231452 0.676609 0.883373 0.283776

loop_
_geom_bond_atom_site_label_1
_geom_bond_atom_site_label_2
_geom_bond_distance
_ccdc_geom_bond_type
N7    H31   1.030020 S    
C13   C15   1.404542 A    
N8    C50   1.448953 S    
N5    H13   1.030184 S    
C43   H14   1.108848 S    
N1    C17   1.432282 S    
C44   H20   1.110695 S    
C8    O11   1.350001 S    
C48   H28   1.107727 S    
O13   C45   1.402985 S    
C19   C34   1.422642 A    
C30   C36   1.417081 A    
C11   N8    1.421887 S    
C20   C33   1.422744 A    
O14   C47   1.402532 S    
C31   C40   1.417117 A    
C1    C41   1.429711 S    
O1    C1    1.302779 A    
C32   C39   1.417181 A    
N1    C7    1.366787 A    
C10   C12   1.407141 A    
C50   H37   1.106831 S    
C12   N7    1.421712 S    
C9    N10   1.424693 S    
C45   H22   1.105822 S    
C51   H40   1.109557 S    
Cu2   N3    2.034509 S    
C14   C28   1.416128 A    
O4    Cu1   1.957741 S    
C14   N6    1.433732 S    
C52   H46   1.108322 S    
C4    C28   1.469023 S    
C48   H29   1.109414 S    
N3    O13   1.341791 S    
C51   H41   1.111262 S    
C32   C34   1.422115 A    
N8    H35   1.029678 S    
C46   H24   1.108664 S    
C6    N2    1.365809 A    
C29   C35   1.416610 A    
C26   C37   1.394007 A    
C2    C42   1.429232 S    
C40   H10   1.075055 S    
C10   N9    1.424086 S    
N7    C49   1.450720 S    
Cu1   Cu2   2.707464 S    
C15   H1    1.081259 S    
N5    C43   1.446970 S    
C16   H2    1.081193 S    
O2    C2    1.302652 A    
C5    C21   1.403291 A    
C44   H19   1.109689 S    
C44   H18   1.110561 S    
C29   C32   1.422012 A    
C35   C37   1.387238 A    
C36   C38   1.387729 A    
C24   H4    1.083805 S    
C41   C42   1.322209 D    
O4    C2    1.287076 A    
C50   H38   1.111152 S    
C11   C27   1.407349 A    
N6    C44   1.448633 S    
C45   H21   1.115410 S    
C29   C33   1.422518 A    
C47   C48   1.511144 S    
C31   C33   1.422102 A    
C45   C46   1.509650 S    
C41   H11   1.087760 S    
C9    C17   1.403958 A    
C5    N1    1.365931 A    
O7    Cu2   1.943186 S    
C10   C18   1.401978 A    
O7    C3    1.299100 A    
C13   C27   1.411997 A    
O5    C3    1.305641 A    
C25   C38   1.394498 A    
C7    C25   1.402879 A    
C30   C34   1.422788 A    
O6    C4    1.305435 A    
C51   H42   1.112179 S    
C8    C26   1.402273 A    
C49   H33   1.104578 S    
C19   C25   1.408387 A    
C46   H25   1.106948 S    
C47   H27   1.115330 S    
C43   H15   1.110177 S    
C52   H44   1.110373 S    
C23   C39   1.387555 A    
N10   C52   1.446205 S    
O8    C4    1.300405 A    
C24   C40   1.388056 A    
N4    O14   1.342217 S    
C6    O10   1.349796 S    
C30   C31   1.422690 A    
N2    C8    1.366536 A    
C38   H6    1.083798 S    
O1    Cu1   1.971089 S    
C23   H3    1.083796 S    
C48   H30   1.108786 S    
C12   C28   1.409139 A    
N9    H39   1.031002 S    
N2    C18   1.431798 S    
C5    O9    1.349976 S    
O6    Cu2   1.947742 S    
C21   C23   1.394197 A    
O3    C1    1.287059 A    
O8    Cu1   1.943188 S    
N10   H43   1.030370 S    
Cu1   N4    2.034508 S    
O3    Cu2   1.957741 S    
C22   C24   1.394043 A    
C7    O12   1.350070 S    
C15   C17   1.395685 A    
C50   H36   1.104352 S    
C6    C22   1.403884 A    
C16   C18   1.395574 A    
C35   H7    1.075369 S    
C36   H8    1.075290 S    
C37   H5    1.083587 S    
C14   C16   1.406156 A    
C19   C21   1.409082 A    
C3    C27   1.466605 S    
C49   H34   1.113120 S    
C20   C22   1.408985 A    
C9    C11   1.410900 A    
C47   H26   1.104720 S    
O2    Cu2   1.971090 S    
C43   H16   1.110689 S    
C52   H45   1.110620 S    
N6    H17   1.030586 S    
O5    Cu1   1.947742 S    
N3    N4    1.298724 D    
C42   H12   1.087762 S    
C49   H32   1.108142 S    
C20   C26   1.408156 A    
C46   H23   1.108110 S    
C13   N5    1.430866 S    
C39   H9    1.075269 S    
N9    C51   1.449074 S    
