data_str_m9_o16_o20_f0_sra.sym.5
_audit_creation_date              2012-12-11T15:10:48-0500
_audit_creation_method            fapswitch 2.2
_symmetry_space_group_name_H-M    P1
_symmetry_Int_Tables_number       1
_space_group_crystal_system       triclinic
_cell_length_a                    21.069361
_cell_length_b                    7.234295
_cell_length_c                    18.273651
_cell_angle_alpha                 89.997087
_cell_angle_beta                  93.602547
_cell_angle_gamma                 90.002207
_cell_volume                      2779.80199053

loop_
_atom_site_label
_atom_site_type_symbol
_atom_type_description
_atom_site_fract_x
_atom_site_fract_y
_atom_site_fract_z
_atom_type_partial_charge
O1    O     O_R   0.448880 0.506250 0.415280 -0.532551
O2    O     O_R   0.551120 0.006250 0.584720 -0.532545
O3    O     O_R   0.434830 0.174000 0.557310 -0.522416
O4    O     O_R   0.565170 0.674000 0.442690 -0.522414
C1    C     C_R   0.417002 0.344557 0.579690 0.693932
C2    C     C_R   0.582998 0.844565 0.420310 0.693941
O5    O     O_R   0.441680 0.176440 0.414130 -0.528797
O6    O     O_R   0.558320 0.676440 0.585870 -0.528821
O7    O     O_R   0.558020 0.007570 0.440520 -0.516365
O8    O     O_R   0.441980 0.507570 0.559480 -0.516367
C3    C     C_R   0.428090 0.344940 0.388130 0.686863
C4    C     C_R   0.571910 0.844939 0.611869 0.686889
O9    O     O_3   0.538160 0.339670 0.508820 -0.363322
O10   O     O_3   0.461840 0.839670 0.491180 -0.363324
V1    V     V_3+5 0.492920 0.064260 0.498360 1.406757
V2    V     V_3+5 0.507080 0.564260 0.501640 1.406729
C5    C     C_R   0.881423 0.949649 0.681913 0.131278
C6    C     C_R   0.118592 0.449989 0.318084 0.131282
C7    C     C_R   0.890310 0.940694 0.816460 -0.096085
C8    C     C_R   0.109691 0.440708 0.183539 -0.096112
C9    C     C_R   0.582129 0.834620 0.748759 0.135426
C10   C     C_R   0.417852 0.334258 0.251244 0.135425
C11   C     C_R   0.619181 0.839601 0.814863 -0.145263
C12   C     C_R   0.380790 0.339043 0.185145 -0.145244
C13   C     C_R   0.684770 0.863773 0.816353 -0.196929
C14   C     C_R   0.315208 0.363338 0.183654 -0.196949
C15   C     C_R   0.716779 0.883412 0.751089 0.101500
C16   C     C_R   0.283216 0.383327 0.248912 0.101503
C17   C     C_R   0.679226 0.876577 0.683153 0.042094
C18   C     C_R   0.320779 0.376697 0.316844 0.042112
C19   C     C_R   0.784746 0.908343 0.751230 0.054480
C20   C     C_R   0.215255 0.408377 0.248770 0.054471
C21   C     C_R   0.814027 0.924048 0.683244 0.076806
C22   C     C_R   0.185987 0.424352 0.316752 0.076848
C23   C     C_R   0.775106 0.913351 0.617580 -0.190465
C24   C     C_R   0.224919 0.413890 0.382414 -0.190462
C25   C     C_R   0.709732 0.891439 0.617602 -0.184657
C26   C     C_R   0.290288 0.391893 0.382391 -0.184678
C27   C     C_R   0.824335 0.918128 0.816857 -0.258703
C28   C     C_R   0.175662 0.418028 0.183143 -0.258695
C29   C     C_R   0.919667 0.955477 0.749220 0.102494
C30   C     C_R   0.080343 0.455704 0.250779 0.102442
C31   C     C_R   0.611843 0.852968 0.681902 -0.115768
C32   C     C_R   0.388156 0.352943 0.318097 -0.115810
H1    H     H_    0.683200 0.885053 0.564952 0.106424
H2    H     H_    0.316829 0.385701 0.435039 0.106456
C33   C     C_1   0.864627 0.939058 0.132232 -0.209912
C34   C     C_1   0.135374 0.439078 0.867768 -0.209915
C35   C     C_1   0.821827 0.925011 0.176059 -0.008544
C36   C     C_1   0.178173 0.425028 0.823940 -0.008532
C37   C     C_1   0.771291 0.905852 0.228206 -0.005333
C38   C     C_1   0.228710 0.405858 0.771794 -0.005338
C39   C     C_1   0.728704 0.889187 0.272179 -0.005484
C40   C     C_1   0.271296 0.389182 0.727822 -0.005490
C41   C     C_1   0.678120 0.870009 0.324265 -0.007842
C42   C     C_1   0.321879 0.369994 0.675736 -0.007833
C43   C     C_1   0.635261 0.855911 0.368009 -0.208022
C44   C     C_1   0.364739 0.355892 0.631992 -0.208032
O11   O     O_R   0.058070 0.289240 0.940580 -0.518643
O12   O     O_R   0.941930 0.789240 0.059420 -0.518643
O13   O     O_R   0.058330 0.616740 0.085880 -0.531192
O14   O     O_R   0.941670 0.116740 0.914120 -0.531208
C45   C     C_R   0.071520 0.448720 0.112362 0.708056
C46   C     C_R   0.928481 0.948722 0.887637 0.708073
O15   O     O_R   0.065180 0.619040 0.942700 -0.522950
O16   O     O_R   0.934820 0.119040 0.057300 -0.522944
O17   O     O_R   0.948870 0.787780 0.915270 -0.533014
O18   O     O_R   0.051130 0.287780 0.084730 -0.533017
C47   C     C_R   0.083176 0.450361 0.920168 0.701561
C48   C     C_R   0.916825 0.950354 0.079832 0.701566
O19   O     O_3   0.961870 0.453310 0.991210 -0.364381
O20   O     O_3   0.038130 0.953310 0.008790 -0.364384
V3    V     V_3+5 0.007070 0.728770 0.001630 1.400063
V4    V     V_3+5 0.992930 0.228770 0.998370 1.400050
C49   C     C_3   0.991900 0.974685 0.750301 -0.363371
C50   C     C_3   0.012122 0.177675 0.750508 -0.745146
H3    H     H_    0.990538 0.252129 0.702064 0.212469
H4    H     H_    0.997304 0.247922 0.800582 0.236726
H5    H     H_    0.064666 0.186597 0.749590 0.219198
H6    H     H_    0.015427 0.906051 0.799089 0.170867
H7    H     H_    0.011643 0.900777 0.703700 0.182586
C51   C     C_3   0.008113 0.475014 0.249702 -0.363268
C52   C     C_3   0.987928 0.678040 0.249488 -0.745068
H8    H     H_    0.009542 0.752492 0.297914 0.212446
H9    H     H_    0.002738 0.748246 0.199398 0.236714
H10   H     H_    0.935387 0.687043 0.250433 0.219166
H11   H     H_    0.984568 0.406407 0.200916 0.170817
H12   H     H_    0.988361 0.401115 0.296305 0.182533
H13   H     H_    0.794046 0.920261 0.564200 0.138921
H14   H     H_    0.205992 0.421069 0.435794 0.138906
C53   C     C_3   0.912446 0.969663 0.608836 -0.365310
C54   C     C_3   0.923828 0.781104 0.574277 -0.768993
H15   H     H_    0.956636 0.697412 0.610855 0.223194
H16   H     H_    0.878595 0.703976 0.564336 0.230201
H17   H     H_    0.945663 0.800248 0.521053 0.218624
H18   H     H_    0.883667 0.059404 0.570398 0.168435
H19   H     H_    0.958283 0.044064 0.614158 0.190123
C55   C     C_3   0.087572 0.470083 0.391164 -0.365324
C56   C     C_3   0.076236 0.281554 0.425789 -0.768897
H20   H     H_    0.043485 0.197668 0.389211 0.223197
H21   H     H_    0.121497 0.204604 0.435798 0.230198
H22   H     H_    0.054353 0.300732 0.478987 0.218600
H23   H     H_    0.116331 0.559961 0.429567 0.168420
H24   H     H_    0.041715 0.544359 0.385829 0.190135
H25   H     H_    0.805472 0.908868 0.870127 0.110017
H26   H     H_    0.194518 0.408611 0.129874 0.110020
C57   C     C_3   0.510974 0.807919 0.751822 -0.367517
C58   C     C_3   0.494443 0.603253 0.757531 -0.727740
H27   H     H_    0.510327 0.526455 0.709347 0.231970
H28   H     H_    0.517636 0.542982 0.808346 0.219794
H29   H     H_    0.442151 0.587126 0.759293 0.215906
H30   H     H_    0.493850 0.881985 0.800128 0.173630
H31   H     H_    0.484417 0.868143 0.703118 0.173088
C59   C     C_3   0.488999 0.307396 0.248180 -0.367483
C60   C     C_3   0.505475 0.102694 0.242496 -0.727765
H32   H     H_    0.489604 0.026003 0.290711 0.232002
H33   H     H_    0.482240 0.042398 0.191716 0.219788
H34   H     H_    0.557757 0.086456 0.240692 0.215886
H35   H     H_    0.506137 0.381388 0.199861 0.173632
H36   H     H_    0.515576 0.367590 0.296871 0.173062
H37   H     H_    0.708834 0.865282 0.870037 0.118703
H38   H     H_    0.291133 0.364640 0.129975 0.118705
H39   H     H_    0.596876 0.824455 0.866378 0.122526
H40   H     H_    0.403081 0.323626 0.133635 0.122546

loop_
_geom_bond_atom_site_label_1
_geom_bond_atom_site_label_2
_ccdc_geom_bond_type
C15   C17   A    
C57   H30   S    
O1    C3    A    
C50   H5    S    
C34   C47   S    
O2    C4    A    
C2    O7    A    
C59   C60   S    
C33   C35   T    
C11   C13   A    
O5    C3    A    
C30   C51   S    
C1    C44   S    
C23   C25   A    
C12   C14   A    
C4    C31   S    
C6    C30   A    
C8    C28   A    
C51   H12   S    
O18   V4    S    
C51   H11   S    
O16   V4    S    
O12   V3    S    
C12   H40   S    
O15   V3    S    
C58   H27   S    
C18   C26   A    
O13   C45   A    
C57   H31   S    
O14   C46   A    
C53   H18   S    
C9    C31   A    
C10   C32   A    
C56   H20   S    
C42   C44   T    
C35   C37   S    
C5    C53   S    
C36   C38   S    
C57   C58   S    
C19   C21   A    
O17   V3    S    
C49   H6    S    
C59   H35   S    
C34   C36   T    
O6    V2    S    
C17   C31   A    
C2    C43   S    
C18   C32   A    
C5    C21   A    
C38   C40   T    
C39   C41   S    
C40   C42   S    
C15   C19   A    
C46   O17   A    
C16   C20   A    
C50   H3    S    
O4    C2    A    
C53   C54   S    
C49   H7    S    
C11   H39   S    
C60   H33   S    
C54   H17   S    
C37   C39   T    
C20   C22   A    
O4    V2    S    
C49   C50   S    
C33   C48   S    
C29   C49   S    
C52   H8    S    
O12   C48   A    
C7    C46   S    
O6    C4    A    
C60   H34   S    
C56   H22   S    
C54   H16   S    
C3    C32   S    
O1    V2    S    
C53   H19   S    
O2    V1    S    
C6    C22   A    
O11   V4    S    
C9    C57   S    
C7    C27   A    
O11   C47   A    
C23   H13   S    
C52   H9    S    
C55   C56   S    
C41   C43   T    
C10   C12   A    
C25   H1    S    
C24   C26   A    
O3    V1    S    
C28   H26   S    
C24   H14   S    
C27   H25   S    
C45   O18   A    
C56   H21   S    
C50   H4    S    
O20   V3    S    
O3    C1    A    
O19   V4    S    
C8    C30   A    
C13   C15   A    
C6    C55   S    
C10   C59   S    
C14   C16   A    
C58   H29   S    
O13   V3    S    
C8    C45   S    
C9    C11   A    
O7    V1    S    
C16   C18   A    
O8    V2    S    
C60   H32   S    
O16   C48   A    
O15   C47   A    
O5    V1    S    
C54   H15   S    
C21   C23   A    
C58   H28   S    
C22   C24   A    
C20   C28   A    
C5    C29   A    
C26   H2    S    
C7    C29   A    
C1    O8    A    
C52   H10   S    
C51   C52   S    
O9    V2    S    
C17   C25   A    
C19   C27   A    
O10   V1    S    
O14   V4    S    
C14   H38   S    
C13   H37   S    
C55   H24   S    
C59   H36   S    
C55   H23   S    
