data_str_m2_o9_o21_f0_pcu.sym.36
_audit_creation_date              2013-03-05T16:48:55-0500
_audit_creation_method            fapswitch 2.2
_symmetry_space_group_name_H-M    P1
_symmetry_Int_Tables_number       1
_space_group_crystal_system       triclinic
_cell_length_a                    10.833832
_cell_length_b                    10.82606
_cell_length_c                    12.728394
_cell_angle_alpha                 92.936965
_cell_angle_beta                  93.045444
_cell_angle_gamma                 89.873441
_cell_volume                      1488.81754825

loop_
_atom_site_label
_atom_site_type_symbol
_atom_site_description
_atom_site_fract_x
_atom_site_fract_y
_atom_site_fract_z
_atom_type_partial_charge
O1    O     O_R   0.313000 0.493330 0.412070 -0.587213
O2    O     O_R   0.687000 0.506670 0.587930 -0.587212
O3    O     O_R   0.326280 0.506660 0.587930 -0.561622
O4    O     O_R   0.673720 0.493340 0.412070 -0.561625
C1    C     C_R   0.261945 0.496871 0.500442 0.800523
C2    C     C_R   0.738055 0.503127 0.499558 0.800525
O5    O     O_R   0.493370 0.312980 0.412070 -0.574085
O6    O     O_R   0.506630 0.687020 0.587930 -0.574081
O7    O     O_R   0.506650 0.326310 0.587930 -0.581585
O8    O     O_R   0.493350 0.673690 0.412070 -0.581586
C3    C     C_R   0.502308 0.261958 0.500858 0.811343
C4    C     C_R   0.497694 0.738042 0.499142 0.811327
Cu1   Cu    Cu3+1 0.492140 0.492110 0.395880 0.996507
Cu2   Cu    Cu3+1 0.507860 0.507890 0.604120 0.996509
H1    H     H_    0.848164 0.268821 0.906305 0.149108
H2    H     H_    0.151829 0.731169 0.093706 0.149105
C5    C     C_R   0.848083 0.195364 0.746041 -0.217422
C6    C     C_R   0.151916 0.804627 0.253973 -0.217424
H3    H     H_    0.946712 0.207665 0.742690 0.187841
H4    H     H_    0.053290 0.792319 0.257324 0.187846
C7    C     C_R   0.777399 0.146802 0.657429 0.337084
C8    C     C_R   0.222601 0.853191 0.342581 0.337083
C9    C     C_R   0.648478 0.129413 0.666047 0.006383
C10   C     C_R   0.351521 0.870590 0.333959 0.006386
C11   C     C_R   0.594768 0.162238 0.761610 -0.153729
C12   C     C_R   0.405228 0.837768 0.238389 -0.153739
H5    H     H_    0.497608 0.146432 0.770329 0.133707
H6    H     H_    0.502385 0.853579 0.229666 0.133703
C13   C     C_R   0.665995 0.213875 0.847163 -0.127300
C14   C     C_R   0.333999 0.786126 0.152839 -0.127301
H7    H     H_    0.623213 0.239572 0.920046 0.141042
H8    H     H_    0.376776 0.760432 0.079956 0.141045
C15   C     C_R   0.792593 0.230066 0.839487 -0.175784
C16   C     C_R   0.207404 0.769927 0.160522 -0.175783
C17   C     C_R   0.566555 0.937429 0.577736 -0.210260
C18   C     C_R   0.433453 0.062572 0.422263 -0.210250
H9    H     H_    0.619566 0.888703 0.637363 0.151505
H10   H     H_    0.380443 0.111296 0.362635 0.151503
C19   C     C_R   0.497769 0.871541 0.497464 -0.053760
C20   C     C_R   0.502236 0.128459 0.502535 -0.053764
C21   C     C_R   0.430048 0.934374 0.418825 0.061058
C22   C     C_R   0.569959 0.065626 0.581174 0.061039
H11   H     H_    0.288205 0.169487 0.877675 0.126621
H12   H     H_    0.711792 0.830495 0.122315 0.126619
C23   C     C_R   0.249648 0.188242 0.711507 -0.091272
C24   C     C_R   0.750341 0.811741 0.288484 -0.091288
H13   H     H_    0.295963 0.103201 0.688469 0.160877
H14   H     H_    0.704022 0.896780 0.311520 0.160841
C25   C     C_R   0.194238 0.260544 0.634435 -0.043498
C26   C     C_R   0.805751 0.739442 0.365558 -0.043465
H15   H     H_    0.198272 0.230471 0.552186 0.138123
H16   H     H_    0.801709 0.769513 0.447807 0.138110
C27   C     C_R   0.131388 0.369562 0.663636 0.097686
C28   C     C_R   0.868611 0.630428 0.336360 0.097701
C29   C     C_R   0.125927 0.405947 0.770778 -0.153178
C30   C     C_R   0.874079 0.594044 0.229218 -0.153197
H17   H     H_    0.077189 0.489366 0.794575 0.134226
H18   H     H_    0.922823 0.510629 0.205423 0.134226
C31   C     C_R   0.183178 0.334260 0.847634 -0.153043
C32   C     C_R   0.816827 0.665728 0.152360 -0.153042
H19   H     H_    0.178968 0.362623 0.930145 0.131087
H20   H     H_    0.821043 0.637366 0.069849 0.131089
C33   C     C_R   0.244712 0.225333 0.818047 -0.149854
C34   C     C_R   0.755285 0.774651 0.181945 -0.149841
C35   C     C_R   0.938523 0.449727 0.581294 -0.176680
C36   C     C_R   0.061476 0.550267 0.418704 -0.176679
H21   H     H_    0.890293 0.408303 0.643002 0.154764
H22   H     H_    0.109706 0.591690 0.356996 0.154763
C37   C     C_R   0.871765 0.505406 0.499370 -0.076328
C38   C     C_R   0.128235 0.494590 0.500630 -0.076335
C39   C     C_R   0.933480 0.558088 0.417901 0.012208
C40   C     C_R   0.066519 0.441906 0.582097 0.012195
N1    N     N_1   0.480320 0.480250 0.239400 -0.153591
N2    N     N_1   0.519680 0.519750 0.760600 -0.153592
C41   C     C_2   0.471407 0.460760 0.030698 -0.279383
C42   C     C_2   0.528593 0.539240 0.969302 -0.279380
C43   C     C_1   0.522904 0.526669 0.852916 0.217163
C44   C     C_1   0.477096 0.473331 0.147083 0.217165
H23   H     H_    0.581016 0.616333 0.006658 0.156880
H24   H     H_    0.418983 0.383667 0.993342 0.156878
N3    N     N_R   0.838223 0.114981 0.561584 0.115049
O9    O     O_R   0.777293 0.108527 0.470591 -0.381099
O10   O     O_R   0.957860 0.103340 0.563673 -0.320032
N4    N     N_R   0.161782 0.884999 0.438428 0.115042
O11   O     O_R   0.222746 0.891545 0.529420 -0.381109
O12   O     O_R   0.042125 0.896574 0.436351 -0.320073

loop_
_geom_bond_atom_site_label_1
_geom_bond_atom_site_label_2
_geom_bond_distance
_ccdc_geom_bond_type
C2    C37   1.448991 S    
C36   H22   1.082496 S    
C29   C31   1.398281 A    
C42   H23   1.085335 S    
C41   C42   1.355797 D    
N3    O9    1.301037 A    
H11   C33   1.082294 S    
C19   C21   1.411542 A    
H12   C34   1.082293 S    
O5    C3    1.282102 A    
C26   C28   1.404683 A    
C9    C22   1.481896 S    
O1    C1    1.278383 A    
Cu2   N2    1.986624 S    
C17   H9    1.085124 S    
C10   C12   1.405188 A    
C25   C27   1.404682 A    
C13   C15   1.392286 A    
C32   H20   1.082286 S    
O4    Cu1   1.967054 S    
C37   C39   1.408397 A    
C17   C22   1.386834 A    
H2    C16   1.082581 S    
C28   C39   1.479127 S    
C35   H21   1.082498 S    
N2    C43   1.172255 T    
C26   H16   1.083410 S    
N1    C44   1.172257 T    
C41   H24   1.085335 S    
C23   H13   1.082265 S    
Cu1   Cu2   2.643752 S    
C10   C21   1.481877 S    
C18   C21   1.386830 A    
O2    C2    1.278384 A    
C5    C15   1.395150 A    
N3    O10   1.300963 A    
C24   H14   1.082265 S    
C27   C29   1.404239 A    
C11   C13   1.394286 A    
C28   C30   1.404239 A    
C31   H19   1.082285 S    
C14   C16   1.392274 A    
C18   C20   1.398139 A    
C42   C43   1.478701 S    
O4    C2    1.281733 A    
C25   H15   1.083410 S    
C23   C33   1.398168 A    
C5    C7    1.408606 A    
C30   C32   1.398283 A    
C24   C34   1.398167 A    
C8    N4    1.443069 S    
C17   C19   1.398147 A    
O7    Cu2   1.966038 S    
C1    C38   1.448994 S    
O7    C3    1.277247 A    
C36   C39   1.388612 A    
C23   C25   1.396232 A    
O6    C4    1.282100 A    
N4    O11   1.301207 A    
C6    C16   1.395193 A    
O3    Cu2   1.967057 S    
O8    C4    1.277250 A    
Cu1   N1    1.986624 S    
C12   C14   1.394290 A    
C29   H17   1.083043 S    
C8    C10   1.420516 A    
O1    Cu1   1.962485 S    
O6    Cu2   1.960603 S    
C6    C8    1.408587 A    
C12   H6    1.079223 S    
C7    N3    1.443102 S    
C20   C22   1.411548 A    
O3    C1    1.281735 A    
O8    Cu1   1.966038 S    
C11   H5    1.079229 S    
C35   C40   1.388611 A    
C24   C26   1.396230 A    
C31   C33   1.398058 A    
C32   C34   1.398057 A    
C4    C19   1.446523 S    
C7    C9    1.420506 A    
C13   H7    1.082351 S    
C14   H8    1.082319 S    
C36   C38   1.398621 A    
C35   C37   1.398622 A    
C18   H10   1.085116 S    
C5    H3    1.080443 S    
C30   H18   1.083043 S    
C6    H4    1.080428 S    
C9    C11   1.405143 A    
C3    C20   1.446520 S    
O2    Cu2   1.962484 S    
C41   C44   1.478701 S    
O5    Cu1   1.960603 S    
N4    O12   1.301103 A    
C38   C40   1.408398 A    
C27   C40   1.479122 S    
H1    C15   1.082571 S    
