data_str_m2_o12_o17_f0_pcu.sym.58
_audit_creation_date              2012-10-26T19:02:59-0400
_audit_creation_method            fapswitch 2.2
_symmetry_space_group_name_H-M    P1
_symmetry_Int_Tables_number       1
_space_group_crystal_system       triclinic
_cell_length_a                    15.03639
_cell_length_b                    11.037062
_cell_length_c                    9.8414
_cell_angle_alpha                 111.447434
_cell_angle_beta                  97.663214
_cell_angle_gamma                 90.939217
_cell_volume                      1502.81859709

loop_
_atom_site_label
_atom_site_type_symbol
_atom_type_description
_atom_site_fract_x
_atom_site_fract_y
_atom_site_fract_z
_atom_type_partial_charge
C1    C     C_R   0.493599 0.253986 0.440383 0.557619
C2    C     C_2   0.488384 0.496099 0.920200 0.098855
C3    C     C_R   0.329153 0.500539 0.502055 0.567830
C4    C     C_R   0.670985 0.496827 0.497287 0.577431
C5    C     C_R   0.823888 0.590923 0.606974 -0.183507
C6    C     C_R   0.178455 0.391400 0.408101 -0.196326
C7    C     C_R   0.767559 0.493508 0.493992 0.008680
C8    C     C_R   0.233091 0.499641 0.506170 0.002725
C9    C     C_R   0.803561 0.392630 0.384515 0.248357
C10   C     C_R   0.196190 0.606822 0.605013 0.256836
C11   C     C_R   0.898141 0.385698 0.397514 0.012119
C12   C     C_R   0.508008 0.745981 0.559565 0.541296
C13   C     C_R   0.103572 0.599377 0.613637 0.016452
C14   C     C_R   0.954181 0.489677 0.506439 0.022555
C15   C     C_R   0.048003 0.491884 0.509861 0.021308
C16   C     C_R   0.916663 0.591872 0.611655 0.002716
C17   C     C_R   0.085966 0.387369 0.408074 0.002817
C18   C     C_R   0.938169 0.277648 0.305605 -0.135126
C19   C     C_R   0.065240 0.696363 0.722705 -0.134507
C20   C     C_3   0.758247 0.293590 0.131513 -0.012830
C21   C     C_3   0.670121 0.313768 0.049219 -0.229549
C22   C     C_3   0.676572 0.284124 0.886799 -0.453177
C23   C     C_R   0.031043 0.279329 0.309517 -0.141181
C24   C     C_3   0.235030 0.820612 0.639979 -0.010303
C25   C     C_3   0.261781 0.793631 0.486711 -0.267539
C26   C     C_3   0.258976 0.915986 0.448814 -0.481167
C27   C     C_3   0.632125 0.734470 0.947290 0.071150
C28   C     C_3   0.699318 0.814282 0.083106 -0.303882
C29   C     C_3   0.716422 0.953225 0.090186 -0.479792
C30   C     C_3   0.339174 0.305899 0.065346 0.075396
C31   C     C_3   0.288451 0.197456 0.929573 -0.297622
C32   C     C_3   0.194767 0.163978 0.955283 -0.496817
C33   C     C_R   0.972526 0.692790 0.721328 -0.141713
C34   C     C_2   0.491183 0.114270 0.406637 -0.127714
C35   C     C_2   0.512019 0.885693 0.593143 -0.139394
C36   C     C_2   0.502270 0.069464 0.516057 -0.167162
C37   C     C_2   0.501193 0.930293 0.483511 -0.169638
C38   C     C_2   0.500827 0.518878 0.083207 0.082844
Cu1   Cu    Cu3+1 0.515770 0.521810 0.644910 0.969927
Cu2   Cu    Cu3+1 0.484230 0.478190 0.355090 0.950959
H1    H     H_    0.794940 0.668076 0.689789 0.109261
H2    H     H_    0.480955 0.047694 0.291839 0.099547
H3    H     H_    0.430771 0.433987 0.849305 0.132634
H4    H     H_    0.542784 0.603622 0.159368 0.124375
H5    H     H_    0.779191 0.195429 0.068214 0.131105
H6    H     H_    0.810435 0.367335 0.132534 0.122150
H7    H     H_    0.614766 0.249782 0.057176 0.207856
H8    H     H_    0.655366 0.417080 0.101761 0.199316
H9    H     H_    0.730618 0.348589 0.876332 0.173393
H10   H     H_    0.611895 0.301380 0.830629 0.186615
H11   H     H_    0.690644 0.180473 0.831120 0.127384
H12   H     H_    0.208305 0.310434 0.331622 0.101019
H13   H     H_    0.276108 0.907947 0.720079 0.153871
H14   H     H_    0.163913 0.846303 0.639168 0.119864
H15   H     H_    0.330512 0.759822 0.484339 0.199210
H16   H     H_    0.214971 0.715878 0.401139 0.149916
H17   H     H_    0.189714 0.949418 0.446089 0.145155
H18   H     H_    0.279731 0.893983 0.338592 0.152273
H19   H     H_    0.305743 0.995511 0.531784 0.156640
H20   H     H_    0.568190 0.784929 0.953148 0.144440
H21   H     H_    0.660410 0.729852 0.847111 0.174010
H22   H     H_    0.672605 0.817873 0.184483 0.165203
H23   H     H_    0.898444 0.190958 0.230472 0.123457
H24   H     H_    0.763995 0.766603 0.079406 0.169166
H25   H     H_    0.744266 0.951880 0.990644 0.126253
H26   H     H_    0.765692 0.008362 0.189595 0.176042
H27   H     H_    0.652975 0.003917 0.097294 0.169839
H28   H     H_    0.300725 0.395085 0.087977 0.142504
H29   H     H_    0.343374 0.273018 0.159620 0.182199
H30   H     H_    0.282196 0.228595 0.833479 0.162264
H31   H     H_    0.327352 0.109200 0.903971 0.164876
H32   H     H_    0.199757 0.128283 0.047766 0.138810
H33   H     H_    0.159357 0.086088 0.854014 0.141615
H34   H     H_    0.106643 0.775736 0.808940 0.137525
H35   H     H_    0.154753 0.251207 0.981598 0.153160
H36   H     H_    0.059883 0.196341 0.234587 0.104426
H37   H     H_    0.944373 0.770042 0.804939 0.104587
H38   H     H_    0.490462 0.863861 0.368586 0.152125
H39   H     H_    0.511783 0.135653 0.630912 0.156049
H40   H     H_    0.522840 0.952391 0.707905 0.101133
N1    N     N_2   0.460520 0.445420 0.137370 -0.084185
N2    N     N_2   0.539480 0.554580 0.862630 -0.081278
O1    O     O_R   0.508410 0.332340 0.577400 -0.516135
O2    O     O_3   0.252030 0.717067 0.691113 -0.570004
O3    O     O_3   0.619051 0.607878 0.946889 -0.520743
O4    O     O_3   0.426025 0.328293 0.037258 -0.524204
O5    O     O_R   0.491590 0.667660 0.422600 -0.527866
O6    O     O_R   0.481780 0.295500 0.332650 -0.484127
O7    O     O_R   0.518220 0.704500 0.667350 -0.516232
O8    O     O_R   0.383570 0.518390 0.622380 -0.480951
O9    O     O_R   0.616430 0.481610 0.377620 -0.482711
O10   O     O_R   0.356940 0.481550 0.377630 -0.545718
O11   O     O_R   0.643060 0.518450 0.622370 -0.495658
O12   O     O_3   0.745219 0.297870 0.273618 -0.570377

loop_
_geom_bond_atom_site_label_1
_geom_bond_atom_site_label_2
_ccdc_geom_bond_type
C11   C18   A    
C34   H2    S    
C25   H16   S    
C23   H36   S    
C33   H37   S    
C32   H35   S    
C32   H32   S    
C17   C23   A    
C3    O8    A    
Cu2   O5    S    
C28   C29   S    
C35   C37   D    
C27   H20   S    
C30   C31   S    
C11   C14   A    
C18   H23   S    
C24   H14   S    
C35   H40   S    
C7    C9    A    
C27   O3    S    
Cu1   O11   S    
C5    C16   A    
C20   O12   S    
C27   H21   S    
C29   H27   S    
C31   H30   S    
C30   O4    S    
C26   H19   S    
Cu1   O8    S    
N1    O4    S    
C22   H10   S    
C21   H8    S    
C1    O6    A    
C31   H31   S    
C21   C22   S    
C4    C7    S    
C25   C26   S    
C1    C34   S    
C13   C19   A    
C18   C23   A    
C12   O7    A    
C24   C25   S    
C3    C8    S    
C19   C33   A    
C20   H5    S    
C32   H33   S    
C5    C7    A    
C6    C8    A    
C24   H13   S    
C10   C13   A    
C29   H26   S    
C3    O10   A    
C38   H4    S    
C16   C33   A    
C9    C11   A    
C2    C38   S    
C31   C32   S    
C2    H3    S    
Cu2   O10   S    
C12   C35   S    
C26   H18   S    
C22   H9    S    
C29   H25   S    
C28   H24   S    
C13   C15   A    
C38   N1    D    
C14   C16   A    
C2    N2    D    
Cu1   Cu2   S    
C30   H29   S    
C15   C17   A    
C6    C17   A    
C5    H1    S    
C36   C37   S    
C12   O5    A    
Cu2   N1    S    
C19   H34   S    
C25   H15   S    
Cu1   N2    S    
C36   H39   S    
C1    O1    A    
N2    O3    S    
C37   H38   S    
C4    O9    A    
C24   O2    S    
Cu1   O1    S    
Cu2   O6    S    
C10   O2    S    
C34   C36   D    
Cu2   O9    S    
C26   H17   S    
C30   H28   S    
C4    O11   A    
C20   C21   S    
C8    C10   A    
C27   C28   S    
C14   C15   A    
C6    H12   S    
C9    O12   S    
Cu1   O7    S    
C20   H6    S    
C22   H11   S    
C21   H7    S    
C28   H22   S    
