data_str_m3_o10_o28_f0_pcu.sym.27
_audit_creation_date              2012-12-10T16:58:29-0500
_audit_creation_method            fapswitch 2.2
_symmetry_space_group_name_H-M    P1
_symmetry_Int_Tables_number       1
_space_group_crystal_system       triclinic
_cell_length_a                    7.740907
_cell_length_b                    8.571371
_cell_length_c                    23.413354
_cell_angle_alpha                 91.052505
_cell_angle_beta                  85.654529
_cell_angle_gamma                 93.796152
_cell_volume                      1545.47676618

loop_
_atom_site_label
_atom_site_type_symbol
_atom_type_description
_atom_site_fract_x
_atom_site_fract_y
_atom_site_fract_z
_atom_type_partial_charge
Br1   Br    Br    0.135528 0.371871 0.681572 -0.496260
Br2   Br    Br    0.864484 0.628075 0.318420 -0.496281
C1    C     C_R   0.545995 0.794894 0.498502 0.970847
C2    C     C_R   0.336589 0.471103 0.303052 -0.212482
C3    C     C_R   0.673198 0.525221 0.755805 -0.048490
C4    C     C_R   0.326785 0.474776 0.244197 -0.048486
C5    C     C_R   0.524726 0.483182 0.791133 0.238256
C6    C     C_R   0.475257 0.516798 0.208867 0.238259
C7    C     C_2   0.570246 0.958381 0.497618 -0.349383
C8    C     C_2   0.429754 0.041619 0.502382 -0.349379
C9    C     C_R   0.501049 0.496350 0.610672 0.910605
C10   C     C_R   0.498950 0.503648 0.389328 0.910602
C11   C     C_R   0.439839 0.373020 0.120909 0.514461
C12   C     C_R   0.454005 0.205106 0.501497 0.970849
C13   C     C_R   0.560128 0.626962 0.879092 0.514460
C14   C     C_R   0.505258 0.649783 0.118750 0.518444
C15   C     C_R   0.494715 0.350198 0.881251 0.518441
C16   C     C_R   0.519601 0.647056 0.058964 -0.018277
C17   C     C_R   0.480366 0.352926 0.941036 -0.018275
C18   C     C_R   0.492161 0.502995 0.030070 -0.019079
C19   C     C_R   0.507804 0.496987 0.969931 -0.019078
C20   C     C_R   0.449665 0.364844 0.061164 -0.015009
C21   C     C_R   0.550299 0.635138 0.938837 -0.015008
C22   C     C_R   0.563260 0.783877 0.027613 -0.166744
C23   C     C_R   0.367272 0.442132 0.767632 -0.124313
C24   C     C_R   0.436705 0.216105 0.972388 -0.166744
C25   C     C_R   0.578622 0.777943 0.968026 -0.160570
C26   C     C_R   0.421342 0.222039 0.031975 -0.160569
C27   C     C_R   0.632719 0.557833 0.232365 -0.124313
C28   C     C_R   0.356045 0.443097 0.708752 0.250436
C29   C     C_R   0.643953 0.556873 0.291245 0.250445
C30   C     C_R   0.505204 0.489466 0.672822 -0.123915
C31   C     C_R   0.494792 0.510524 0.327178 -0.123922
C32   C     C_R   0.663400 0.528899 0.696950 -0.212484
H1    H     H_    0.586860 0.895513 0.048977 0.193078
H2    H     H_    0.204578 0.443407 0.225949 0.172168
H3    H     H_    0.702822 0.009697 0.493060 0.186558
H4    H     H_    0.297178 0.990303 0.506940 0.186558
H5    H     H_    0.014227 0.382933 0.456769 0.198753
H6    H     H_    0.985773 0.617067 0.543231 0.198752
H7    H     H_    0.413106 0.104469 0.951024 0.193078
H8    H     H_    0.612824 0.885285 0.944962 0.196645
H9    H     H_    0.387140 0.114698 0.055038 0.196644
H10   H     H_    0.253086 0.409188 0.795528 0.173696
H11   H     H_    0.746905 0.590763 0.204467 0.173689
H12   H     H_    0.779435 0.564389 0.670331 0.197583
H13   H     H_    0.220554 0.435627 0.329672 0.197596
H14   H     H_    0.795399 0.556601 0.774055 0.172162
N1    N     N_R   0.468980 0.513726 0.148217 -0.354736
N2    N     N_R   0.530994 0.486255 0.851784 -0.354735
N3    N     N_2   0.950330 0.457950 0.484560 -0.152563
N4    N     N_2   0.049670 0.542050 0.515440 -0.152563
O1    O     O_R   0.389250 0.738570 0.503790 -0.615041
O2    O     O_2   0.594586 0.758744 0.848450 -0.521921
O3    O     O_2   0.528331 0.786814 0.147397 -0.515613
O4    O     O_2   0.471648 0.213166 0.852604 -0.515616
O5    O     O_R   0.610750 0.261430 0.496210 -0.615041
O6    O     O_R   0.678390 0.711620 0.493890 -0.620862
O7    O     O_R   0.321610 0.288380 0.506110 -0.620859
O8    O     O_R   0.355400 0.513520 0.588790 -0.573479
O9    O     O_R   0.644600 0.486480 0.411210 -0.573476
O10   O     O_R   0.644550 0.486570 0.578900 -0.630804
O11   O     O_R   0.355450 0.513430 0.421100 -0.630806
O12   O     O_2   0.405379 0.241238 0.151551 -0.521918
Zn1   Zn    Zn3+2 0.306930 0.518000 0.506610 0.998014
Zn2   Zn    Zn3+2 0.693070 0.482000 0.493390 0.998015

loop_
_geom_bond_atom_site_label_1
_geom_bond_atom_site_label_2
_ccdc_geom_bond_type
C15   N2    A    
C9    C30   S    
H5    N3    S    
O11   Zn1   S    
C1    O6    A    
C32   H12   S    
C21   C25   A    
O1    Zn1   S    
C7    C8    D    
C26   H9    S    
C24   C26   A    
C5    C23   A    
C22   C25   A    
O5    Zn2   S    
C8    H4    S    
C9    O10   A    
C3    C32   A    
C13   C21   A    
C14   O3    S    
C3    C5    A    
C27   C29   A    
C20   C26   A    
O7    Zn1   S    
C28   C30   A    
C10   O9    A    
C1    O1    A    
C25   H8    S    
C11   O12   S    
C11   C20   A    
C11   N1    A    
C6    C27   A    
O9    Zn2   S    
C23   H10   S    
C2    C4    A    
Br1   C28   S    
C17   C19   A    
C4    H2    S    
O8    Zn1   S    
C15   O4    S    
C19   C21   A    
C3    H14   S    
C16   C22   A    
C1    C7    S    
C22   H1    S    
C29   C31   A    
O10   Zn2   S    
C9    O8    A    
C13   O2    S    
C14   N1    A    
C18   C19   A    
C17   C24   A    
C16   C18   A    
C14   C16   A    
C7    H3    S    
C8    C12   S    
C13   N2    A    
C27   H11   S    
C23   C28   A    
C12   O5    A    
C10   O11   A    
C2    C31   A    
C2    H13   S    
C4    C6    A    
C15   C17   A    
C10   C31   S    
H6    N4    S    
C5    N2    S    
C6    N1    S    
O6    Zn2   S    
C12   O7    A    
N4    Zn1   S    
N3    N4    D    
C24   H7    S    
C18   C20   A    
Br2   C29   S    
N3    Zn2   S    
C30   C32   A    
