data_str_m3_o5_o13_f0_pcu.sym.123
_audit_creation_date              2012-12-10T20:46:49-0500
_audit_creation_method            fapswitch 2.2
_symmetry_space_group_name_H-M    P1
_symmetry_Int_Tables_number       1
_space_group_crystal_system       triclinic
_cell_length_a                    12.675039
_cell_length_b                    8.907253
_cell_length_c                    8.259976
_cell_angle_alpha                 89.957876
_cell_angle_beta                  96.895007
_cell_angle_gamma                 90.009659
_cell_volume                      925.80483566

loop_
_atom_site_label
_atom_site_type_symbol
_atom_type_description
_atom_site_fract_x
_atom_site_fract_y
_atom_site_fract_z
_atom_type_partial_charge
C1    C     C_R   0.499918 0.218650 0.500023 0.940900
C2    C     C_R   0.500025 0.781348 0.499971 0.929323
C3    C     C_R   0.298127 0.515813 0.467742 0.931616
C4    C     C_R   0.701879 0.484058 0.532313 0.924906
C5    C     C_R   0.815593 0.458705 0.556306 -0.272992
C6    C     C_R   0.184441 0.540907 0.443968 -0.284546
C7    C     C_R   0.021267 0.474774 0.285572 -0.132832
C8    C     C_R   0.978749 0.525692 0.714674 -0.132247
C9    C     C_R   0.125823 0.521502 0.291782 0.322541
C10   C     C_R   0.874227 0.478646 0.708430 0.318063
C11   C     C_R   0.131399 0.582875 0.574179 0.409775
C12   C     C_R   0.868680 0.417572 0.425969 0.400455
C13   C     C_R   0.026780 0.532315 0.572313 -0.103396
C14   C     C_R   0.973285 0.468074 0.427948 -0.102502
C15   C     C_1   0.499917 0.065383 0.500049 -0.105445
C16   C     C_1   0.499947 0.934612 0.499949 -0.114619
N1    N     N_1   0.500020 0.500000 0.073640 0.039978
N2    N     N_1   0.499980 0.500000 0.926360 0.041368
O1    O     O_R   0.499990 0.285340 0.636850 -0.600236
O2    O     O_R   0.500010 0.714660 0.363150 -0.607054
O3    O     O_R   0.500010 0.285340 0.363150 -0.605575
O4    O     O_R   0.499990 0.714660 0.636850 -0.612433
O5    O     O_R   0.346350 0.500000 0.614250 -0.581048
O6    O     O_R   0.653650 0.500000 0.385750 -0.592565
O7    O     O_R   0.346360 0.500000 0.340500 -0.569439
O8    O     O_R   0.653640 0.500000 0.659500 -0.569712
Zn1   Zn    Zn3+2 0.499990 0.500000 0.682780 1.121162
Zn2   Zn    Zn3+2 0.500010 0.500000 0.317220 1.121319
S1    S     S_3+6 0.823953 0.250691 0.322207 0.095928
O9    O     O_2   0.736220 0.284586 0.188576 -0.205394
O10   O     O_2   0.913802 0.172279 0.254125 -0.214058
O11   O     O_3   0.775569 0.135489 0.457022 -0.563028
H1    H     H_    0.745213 0.049239 0.391563 0.378228
S2    S     S_3+6 0.175649 0.751047 0.676171 0.093961
O12   O     O_2   0.213644 0.856110 0.552799 -0.316366
O13   O     O_2   0.086753 0.826042 0.750044 -0.207133
O14   O     O_3   0.277979 0.716646 0.820116 -0.457064
H2    H     H_    0.309081 0.816438 0.849410 0.387266
S3    S     S_3+6 0.836199 0.387734 0.880198 0.092846
O15   O     O_2   0.808593 0.504756 0.999064 -0.268372
O16   O     O_2   0.743102 0.284413 0.838104 -0.220788
O17   O     O_3   0.940231 0.283477 0.959641 -0.507606
H3    H     H_    0.951330 0.209564 0.873765 0.388827
S4    S     S_3+6 0.163440 0.614535 0.120971 0.083219
O18   O     O_2   0.255911 0.718561 0.164839 -0.248026
O19   O     O_2   0.191889 0.499319 0.000764 -0.250724
O20   O     O_3   0.058814 0.718091 0.042462 -0.508648
H4    H     H_    0.047204 0.790985 0.129138 0.386264
H5    H     H_    0.975001 0.459990 0.170122 0.272361
H6    H     H_    0.024831 0.541407 0.830203 0.273539

loop_
_geom_bond_atom_site_label_1
_geom_bond_atom_site_label_2
_ccdc_geom_bond_type
C2    O4    A    
C4    O8    A    
C1    O3    A    
C8    C13   A    
C1    C15   S    
O5    Zn1   S    
C12   S1    S    
S1    O11   S    
S2    O14   S    
O1    Zn1   S    
C3    O5    A    
O20   H4    S    
S4    O20   S    
C3    C6    S    
O11   H1    S    
C6    C9    A    
N1    N2    T    
C5    C10   A    
S1    O10   D    
C13   C14   A    
O7    Zn2   S    
C11   C13   A    
O8    Zn1   S    
S1    O9    D    
C8    C10   A    
O14   H2    S    
C12   C14   A    
S3    O17   S    
S2    O13   D    
O4    Zn1   S    
C6    C11   A    
C4    O6    A    
C1    O1    A    
O17   H3    S    
C2    O2    A    
C15   C16   T    
C8    H6    S    
C3    O7    A    
C2    C16   S    
S4    O18   D    
C7    H5    S    
C5    C12   A    
S3    O16   D    
S2    O12   D    
S3    O15   D    
C7    C9    A    
C4    C5    S    
C9    S4    S    
O2    Zn2   S    
N1    Zn2   S    
O3    Zn2   S    
C11   S2    S    
C7    C14   A    
N2    Zn1   S    
O6    Zn2   S    
S4    O19   D    
C10   S3    S    
