data_str_m9_o1_o16_f0_sra.sym.3
_audit_creation_date              2013-03-05T15:55:32-0500
_audit_creation_method            fapswitch 2.2
_symmetry_space_group_name_H-M    P1
_symmetry_Int_Tables_number       1
_space_group_crystal_system       triclinic
_cell_length_a                    20.101623
_cell_length_b                    7.243668
_cell_length_c                    13.52416
_cell_angle_alpha                 90.000732
_cell_angle_beta                  102.541102
_cell_angle_gamma                 89.998877
_cell_volume                      1922.2607048

loop_
_atom_site_label
_atom_site_type_symbol
_atom_site_description
_atom_site_fract_x
_atom_site_fract_y
_atom_site_fract_z
_atom_type_partial_charge
O1    O     O_R   0.449560 0.506810 0.599700 -0.588193
O2    O     O_R   0.550440 0.006810 0.400300 -0.588183
O3    O     O_R   0.587960 0.180060 0.595760 -0.596510
O4    O     O_R   0.412040 0.680060 0.404240 -0.596332
C1    C     C_R   0.614537 0.343060 0.619238 0.973640
C2    C     C_R   0.385470 0.843070 0.380744 0.973691
O5    O     O_R   0.452380 0.177430 0.611700 -0.581947
O6    O     O_R   0.547620 0.677430 0.388300 -0.581958
O7    O     O_R   0.413900 0.001890 0.416350 -0.594036
O8    O     O_R   0.586100 0.501890 0.583650 -0.594008
C3    C     C_R   0.436716 0.345404 0.638595 0.983619
C4    C     C_R   0.563294 0.845404 0.361411 0.983424
O9    O     O_3   0.487530 0.337490 0.435890 -0.290661
O10   O     O_3   0.512470 0.837490 0.564110 -0.290713
V1    V     V_3+5 0.502310 0.064660 0.511890 1.179187
V2    V     V_3+5 0.497690 0.564660 0.488110 1.179277
C5    C     C_R   0.609451 0.788653 0.105975 0.267582
C6    C     C_R   0.390600 0.288379 0.894025 0.267417
C7    C     C_R   0.601149 0.848095 0.279869 -0.213931
C8    C     C_R   0.398885 0.348071 0.720154 -0.214013
C9    C     C_R   0.927609 0.904996 0.315215 -0.243742
C10   C     C_R   0.072434 0.405054 0.684823 -0.243683
C11   C     C_R   0.894147 0.885213 0.394996 0.336076
C12   C     C_R   0.105901 0.385301 0.605046 0.336042
C13   C     C_R   0.823946 0.840128 0.374079 0.197147
C14   C     C_R   0.176101 0.340217 0.625966 0.197187
C15   C     C_R   0.786870 0.824607 0.271092 -0.054170
C16   C     C_R   0.213171 0.324650 0.728952 -0.054167
C17   C     C_R   0.825025 0.813082 0.194256 0.037626
C18   C     C_R   0.175012 0.313073 0.805780 0.037634
C19   C     C_R   0.713744 0.820125 0.240580 0.063645
C20   C     C_R   0.286296 0.320128 0.759461 0.063647
C21   C     C_R   0.681764 0.770683 0.139012 0.022305
C22   C     C_R   0.318278 0.270541 0.861002 0.022313
C23   C     C_R   0.723619 0.707884 0.073949 0.286481
C24   C     C_R   0.276415 0.207705 0.926047 0.286628
C25   C     C_R   0.793113 0.746751 0.098195 -0.229791
C26   C     C_R   0.206922 0.246645 0.901821 -0.229767
C27   C     C_R   0.671444 0.872128 0.306442 -0.206660
C28   C     C_R   0.328593 0.372209 0.693615 -0.206686
C29   C     C_R   0.569009 0.808730 0.179010 0.273402
C30   C     C_R   0.431038 0.308490 0.820981 0.273459
C31   C     C_R   0.895000 0.860374 0.216260 -0.213325
C32   C     C_R   0.105034 0.360379 0.783775 -0.213410
H1    H     H_    0.691573 0.929596 0.380171 0.180346
H2    H     H_    0.308459 0.429789 0.619915 0.180362
H3    H     H_    0.981260 0.940783 0.331464 0.200594
H4    H     H_    0.018783 0.440851 0.668572 0.200634
H5    H     H_    0.822697 0.713380 0.042645 0.149036
H6    H     H_    0.177329 0.213192 0.957347 0.148971
C33   C     C_R   0.209651 0.002587 0.244999 -0.135731
C34   C     C_R   0.790256 0.502879 0.755250 -0.135854
H7    H     H_    0.177177 0.119439 0.251214 0.188166
H8    H     H_    0.822647 0.620018 0.749244 0.188000
C35   C     C_R   0.274983 0.998556 0.306743 -0.124704
C36   C     C_R   0.724923 0.498835 0.693514 -0.124825
H9    H     H_    0.291068 0.113648 0.357420 0.185441
H10   H     H_    0.708768 0.614214 0.643068 0.185086
C37   C     C_R   0.317476 0.844465 0.308020 -0.229209
C38   C     C_R   0.682536 0.344423 0.691949 -0.228993
C39   C     C_R   0.293484 0.693946 0.240611 0.290492
C40   C     C_R   0.706644 0.193558 0.759065 0.290358
C41   C     C_R   0.231455 0.712990 0.167315 0.298999
C42   C     C_R   0.768632 0.212603 0.832427 0.298834
C43   C     C_R   0.186332 0.859223 0.176250 -0.219748
C44   C     C_R   0.813667 0.359196 0.823746 -0.219813
O11   O     O_R   0.913920 0.203370 0.916260 -0.572359
O12   O     O_R   0.086080 0.703370 0.083740 -0.572269
O13   O     O_R   0.047620 0.535540 0.888290 -0.584718
O14   O     O_R   0.952380 0.035540 0.111710 -0.584702
C45   C     C_R   0.064984 0.368408 0.862979 0.962933
C46   C     C_R   0.935037 0.868408 0.137045 0.962829
O15   O     O_R   0.912040 0.532780 0.904220 -0.608248
O16   O     O_R   0.087960 0.032780 0.095780 -0.608182
O17   O     O_R   0.949550 0.708160 0.099720 -0.588047
O18   O     O_R   0.050450 0.208160 0.900280 -0.588002
C47   C     C_R   0.884612 0.365318 0.886030 0.949508
C48   C     C_R   0.115384 0.865319 0.113981 0.949292
O19   O     O_3   0.012480 0.375300 0.064060 -0.277517
O20   O     O_3   0.987520 0.875300 0.935940 -0.277629
V3    V     V_3+5 0.997690 0.648180 0.988110 1.200070
V4    V     V_3+5 0.002310 0.148180 0.011890 1.200102
C49   C     C_3   0.491936 0.795182 0.151153 -1.051638
H11   H     H_    0.471155 0.761681 0.070522 0.271857
H12   H     H_    0.475093 0.683494 0.195959 0.250360
H13   H     H_    0.469082 0.927548 0.168589 0.243982
C50   C     C_3   0.508121 0.294896 0.848807 -1.051349
H14   H     H_    0.528902 0.261362 0.929433 0.271800
H15   H     H_    0.525004 0.183271 0.803968 0.250464
H16   H     H_    0.530967 0.427308 0.831425 0.243845
C51   C     C_3   0.331366 0.511021 0.248063 -0.907095
H17   H     H_    0.335175 0.450462 0.324452 0.270140
H18   H     H_    0.304858 0.403276 0.196432 0.229651
H19   H     H_    0.382556 0.530028 0.231689 0.238014
C52   C     C_3   0.668990 0.010194 0.751184 -0.906384
H20   H     H_    0.665073 0.950595 0.674543 0.270136
H21   H     H_    0.695795 0.902007 0.802260 0.229428
H22   H     H_    0.617854 0.028327 0.767971 0.238020
C53   C     C_3   0.216930 0.587859 0.075180 -0.991835
H23   H     H_    0.264769 0.554069 0.050602 0.248465
H24   H     H_    0.191771 0.459108 0.092641 0.262124
H25   H     H_    0.184793 0.656976 0.008352 0.244904
C54   C     C_3   0.783202 0.087088 0.924399 -0.991201
H26   H     H_    0.735326 0.051748 0.948516 0.248415
H27   H     H_    0.808896 0.959140 0.907014 0.262273
H28   H     H_    0.814904 0.156657 0.991475 0.244643
C55   C     C_3   0.699008 0.579498 0.985480 -0.998998
H29   H     H_    0.735260 0.462746 0.989314 0.254732
H30   H     H_    0.649183 0.515954 0.987409 0.269762
H31   H     H_    0.696372 0.652707 0.912829 0.249114
C56   C     C_3   0.301003 0.079085 0.014413 -0.999120
H32   H     H_    0.264759 0.962282 0.010410 0.254872
H33   H     H_    0.350849 0.015638 0.012496 0.269787
H34   H     H_    0.303583 0.152026 0.087130 0.249095
C57   C     C_3   0.576136 0.815931 0.995060 -1.010352
H35   H     H_    0.613301 0.856757 0.949427 0.263337
H36   H     H_    0.548561 0.689176 0.963349 0.260070
H37   H     H_    0.539421 0.932340 0.986549 0.262518
C58   C     C_3   0.423933 0.315506 0.004943 -1.010406
H38   H     H_    0.386772 0.356121 0.050626 0.263481
H39   H     H_    0.451544 0.188749 0.036573 0.260088
H40   H     H_    0.460615 0.431997 0.013494 0.262550
N1    N     N_R   0.793642 0.789145 0.456988 0.240639
O21   O     O_R   0.764401 0.628919 0.457317 -0.393100
O22   O     O_R   0.794724 0.902733 0.531933 -0.389324
N2    N     N_R   0.206411 0.289239 0.543060 0.240597
O23   O     O_R   0.235643 0.128994 0.542726 -0.393320
O24   O     O_R   0.205328 0.402824 0.468113 -0.389327
N3    N     N_R   0.933105 0.902286 0.497275 0.272791
O25   O     O_R   0.982337 0.022136 0.518645 -0.345912
O26   O     O_R   0.926686 0.781059 0.565610 -0.317212
N4    N     N_R   0.066948 0.402394 0.502765 0.272786
O27   O     O_R   0.017721 0.522254 0.481396 -0.345923
O28   O     O_R   0.073356 0.281154 0.434432 -0.317297

loop_
_geom_bond_atom_site_label_1
_geom_bond_atom_site_label_2
_geom_bond_distance
_ccdc_geom_bond_type
C42   C54   1.517025 S    
C10   H4    1.084291 S    
C50   H14   1.106641 S    
C41   C43   1.416669 A    
N2    O23   1.301465 A    
C35   C37   1.403330 A    
C15   C17   1.421666 A    
C52   H20   1.109717 S    
O11   C47   1.336328 A    
O2    C4    1.330163 A    
C2    O7    1.327585 A    
C52   H22   1.107598 S    
O3    V1    2.025224 S    
N1    O21   1.301434 A    
C11   C13   1.415857 A    
O5    C3    1.327265 A    
C18   C26   1.402937 A    
C31   C46   1.474194 S    
C49   H11   1.106647 S    
O12   V3    1.997875 S    
C23   C25   1.392594 A    
C12   C14   1.415834 A    
C6    C30   1.416534 A    
C14   N2    1.435759 S    
C45   O18   1.323370 A    
C8    C28   1.391277 A    
N1    O22   1.301993 A    
C57   H35   1.107573 S    
C29   C49   1.516038 S    
C11   N3    1.439268 S    
C32   C45   1.474243 S    
C38   C40   1.435964 A    
C33   C43   1.404768 A    
O13   C45   1.325348 A    
C40   C42   1.420981 A    
C9    C31   1.394345 A    
C10   C32   1.394350 A    
C56   H32   1.110174 S    
C36   H10   1.083150 S    
N4    O27   1.300895 A    
C57   H36   1.109494 S    
O1    C3    1.330163 A    
C41   C53   1.517048 S    
C55   H29   1.110203 S    
C19   C21   1.429990 A    
C56   H34   1.107630 S    
C33   C35   1.395204 A    
C27   H1    1.075197 S    
O5    V1    2.021145 S    
O6    V2    2.021174 S    
C40   C52   1.521005 S    
C17   C31   1.415168 A    
C55   H30   1.107712 S    
C18   C32   1.415225 A    
C5    C21   1.430908 A    
O16   V4    2.025308 S    
C46   O17   1.323355 A    
O15   V3    2.025327 S    
C34   H8    1.083284 S    
C58   H39   1.109495 S    
O12   C48   1.336350 A    
C3    C8    1.469560 S    
C37   C39   1.435807 A    
C15   C19   1.438294 A    
C16   C20   1.438280 A    
C23   C55   1.511317 S    
C56   H33   1.107757 S    
O18   V4    2.009465 S    
C51   H17   1.109608 S    
O17   V3    2.009450 S    
C36   C38   1.403466 A    
C33   H7    1.083255 S    
C42   C44   1.416712 A    
O4    V2    2.025209 S    
C28   H2    1.075197 S    
C51   H18   1.104109 S    
C25   H5    1.081901 S    
C12   N4    1.439263 S    
C53   H23   1.110829 S    
O6    C4    1.327322 A    
C57   H37   1.109976 S    
C49   H13   1.110409 S    
C24   C56   1.511305 S    
C39   C41   1.421119 A    
C7    C29   1.405915 A    
C54   H27   1.110739 S    
O1    V2    2.005824 S    
O2    V1    2.005808 S    
C13   N1    1.435747 S    
C7    C27   1.391277 A    
O4    C2    1.306442 A    
C53   H24   1.110508 S    
C35   H9    1.083079 S    
C55   H31   1.107628 S    
C10   C12   1.397260 A    
O9    V2    1.784836 S    
C34   C44   1.404821 A    
C5    C57   1.517023 S    
N3    O25   1.300940 A    
C58   H40   1.110006 S    
C44   C47   1.491164 S    
N2    O24   1.302016 A    
C43   C48   1.491147 S    
C1    C38   1.500565 S    
C49   H12   1.107018 S    
C2    C37   1.500581 S    
O20   V3    1.784265 S    
O3    C1    1.306402 A    
O19   V4    1.784256 S    
C8    C30   1.405912 A    
C58   H38   1.107553 S    
C52   H21   1.104526 S    
C16   C18   1.421667 A    
C26   H6    1.081905 S    
C13   C15   1.434305 A    
C14   C16   1.434278 A    
C9    C11   1.397261 A    
O7    V1    2.009336 S    
C1    O8    1.327629 A    
O8    V2    2.009324 S    
C51   H19   1.107152 S    
C6    C22   1.430983 A    
C4    C7    1.469681 S    
C24   C26   1.392676 A    
C21   C23   1.417935 A    
C19   C27   1.409671 A    
C54   H28   1.109916 S    
C22   C24   1.417966 A    
C20   C28   1.409634 A    
O14   V4    2.020899 S    
C5    C29   1.416467 A    
O13   V3    2.020869 S    
C34   C36   1.395175 A    
C53   H25   1.109629 S    
O11   V4    1.997871 S    
N4    O28   1.301382 A    
O16   C48   1.333034 A    
C50   H16   1.110428 S    
C17   C25   1.402933 A    
C54   H26   1.111061 S    
C50   H15   1.107280 S    
O15   C47   1.333076 A    
O10   V1    1.784844 S    
O14   C46   1.325332 A    
C30   C50   1.516244 S    
C9    H3    1.084298 S    
C6    C58   1.517010 S    
C39   C51   1.520664 S    
C20   C22   1.429949 A    
N3    O26   1.301407 A    
