data_str_m3_o10_o17_f0_pcu.sym.47
_audit_creation_date              2012-12-10T16:52:08-0500
_audit_creation_method            fapswitch 2.2
_symmetry_space_group_name_H-M    P1
_symmetry_Int_Tables_number       1
_space_group_crystal_system       triclinic
_cell_length_a                    7.932154
_cell_length_b                    8.572676
_cell_length_c                    14.950697
_cell_angle_alpha                 94.064146
_cell_angle_beta                  84.707604
_cell_angle_gamma                 92.892782
_cell_volume                      1008.77642107

loop_
_atom_site_label
_atom_site_type_symbol
_atom_type_description
_atom_site_fract_x
_atom_site_fract_y
_atom_site_fract_z
_atom_type_partial_charge
C1    C     C_R   0.544419 0.793906 0.498557 0.951312
C2    C     C_R   0.648969 0.544760 0.809021 -0.263204
C3    C     C_R   0.499730 0.499535 0.231256 -0.060214
C4    C     C_R   0.500270 0.500465 0.768744 -0.060214
C5    C     C_R   0.648556 0.543941 0.180102 -0.260695
C6    C     C_R   0.351444 0.456059 0.819898 -0.260695
C7    C     C_R   0.649599 0.545191 0.087603 0.112340
C8    C     C_R   0.350401 0.454809 0.912397 0.112340
C9    C     C_R   0.499944 0.499893 0.046515 0.064913
C10   C     C_R   0.500055 0.500107 0.953484 0.064913
C11   C     C_R   0.350164 0.454441 0.098474 0.117531
C12   C     C_R   0.455581 0.206094 0.501442 0.951312
C13   C     C_R   0.649836 0.545559 0.901526 0.117531
C14   C     C_R   0.797317 0.591245 0.035731 -0.223982
C15   C     C_R   0.202683 0.408755 0.964269 -0.223982
C16   C     C_3   0.928336 0.233413 0.373096 -0.717875
C17   C     C_3   0.071664 0.766587 0.626904 -0.717875
C18   C     C_R   0.797503 0.591286 0.942791 -0.226347
C19   C     C_R   0.202496 0.408714 0.057209 -0.226347
C20   C     C_2   0.567531 0.957427 0.500696 -0.374854
C21   C     C_2   0.432469 0.042572 0.499304 -0.374854
C22   C     C_R   0.500201 0.500581 0.672833 0.870025
C23   C     C_R   0.499799 0.499419 0.327167 0.870025
C24   C     C_R   0.351031 0.455240 0.190978 -0.263204
H1    H     H_    0.236806 0.419718 0.231439 0.167887
H2    H     H_    0.304741 0.992681 0.494981 0.173962
H3    H     H_    0.145429 0.340731 0.409295 0.278600
H4    H     H_    0.000051 0.172074 0.314747 0.193760
H5    H     H_    0.806814 0.263539 0.350231 0.280660
H6    H     H_    0.907699 0.152082 0.427892 0.227592
H7    H     H_    0.854571 0.659269 0.590705 0.278600
H8    H     H_    0.999949 0.827925 0.685253 0.193760
H9    H     H_    0.092301 0.847918 0.572108 0.227592
H10   H     H_    0.193186 0.736461 0.649769 0.280660
H11   H     H_    0.763194 0.580282 0.768561 0.167887
H12   H     H_    0.762826 0.579187 0.212336 0.167254
H13   H     H_    0.237174 0.420813 0.787664 0.167254
H14   H     H_    0.912228 0.627146 0.067018 0.159471
H15   H     H_    0.087772 0.372854 0.932982 0.159471
H16   H     H_    0.912713 0.626814 0.903248 0.154556
H17   H     H_    0.087287 0.373186 0.096752 0.154556
H18   H     H_    0.695259 0.007319 0.505019 0.173962
N1    N     N_2   0.950330 0.457950 0.475660 0.024496
N2    N     N_2   0.049670 0.542050 0.524340 0.024496
N3    N     N_2   0.025657 0.370927 0.402779 -0.232966
N4    N     N_2   0.974342 0.629073 0.597221 -0.232966
O1    O     O_R   0.389250 0.738570 0.505970 -0.613506
O2    O     O_R   0.610750 0.261430 0.494030 -0.613506
O3    O     O_R   0.678390 0.711620 0.490370 -0.653094
O4    O     O_R   0.321610 0.288380 0.509630 -0.653094
O5    O     O_R   0.355420 0.513510 0.639950 -0.625002
O6    O     O_R   0.644580 0.486490 0.360050 -0.625002
O7    O     O_R   0.644560 0.486560 0.624350 -0.644237
O8    O     O_R   0.355440 0.513440 0.375650 -0.644237
Zn1   Zn    Zn3+2 0.306940 0.517990 0.510420 0.951615
Zn2   Zn    Zn3+2 0.693060 0.482010 0.489580 0.951615

loop_
_geom_bond_atom_site_label_1
_geom_bond_atom_site_label_2
_ccdc_geom_bond_type
C2    H11   S    
C16   H4    S    
C2    C4    A    
C21   H2    S    
C5    C7    A    
C14   H14   S    
O3    Zn2   S    
N1    N3    S    
C9    C10   A    
C14   C18   A    
C12   O4    A    
O4    Zn1   S    
C12   O2    A    
N1    N2    D    
N1    Zn2   S    
C11   C19   A    
H3    N3    S    
C3    C24   A    
C6    H13   S    
C24   H1    S    
C15   C19   A    
C20   H18   S    
C9    C11   A    
N2    Zn1   S    
C15   H15   S    
C23   O6    A    
C17   H9    S    
C13   C18   A    
O1    Zn1   S    
N2    N4    S    
C22   O7    A    
O5    Zn1   S    
C17   H8    S    
C8    C10   A    
C17   H10   S    
C16   N3    S    
C16   H6    S    
C5    H12   S    
C7    C9    A    
C11   C24   A    
C4    C22   S    
C17   N4    S    
C16   H5    S    
C23   O8    A    
C4    C6    A    
O7    Zn2   S    
O2    Zn2   S    
C2    C13   A    
C18   H16   S    
O8    Zn1   S    
C1    O1    A    
C1    C20   S    
C6    C8    A    
C8    C15   A    
C20   C21   D    
O6    Zn2   S    
C3    C23   S    
C12   C21   S    
C10   C13   A    
C7    C14   A    
C19   H17   S    
C22   O5    A    
C3    C5    A    
H7    N4    S    
C1    O3    A    
