data_str_m3_o5_o27_f0_pcu.sym.34
_audit_creation_date              2012-12-10T20:50:09-0500
_audit_creation_method            fapswitch 2.2
_symmetry_space_group_name_H-M    P1
_symmetry_Int_Tables_number       1
_space_group_crystal_system       triclinic
_cell_length_a                    19.182767
_cell_length_b                    8.919289
_cell_length_c                    8.107182
_cell_angle_alpha                 90.000051
_cell_angle_beta                  90.0
_cell_angle_gamma                 89.999957
_cell_volume                      1387.1116219

loop_
_atom_site_label
_atom_site_type_symbol
_atom_type_description
_atom_site_fract_x
_atom_site_fract_y
_atom_site_fract_z
_atom_type_partial_charge
C1    C     C_R   0.500000 0.218019 0.500000 0.934481
C2    C     C_R   0.254850 0.391810 0.409584 -0.230419
C3    C     C_R   0.182412 0.612518 0.587789 0.428135
C4    C     C_R   0.817588 0.612515 0.412206 0.428134
C5    C     C_R   0.817587 0.387475 0.587787 0.428134
C6    C     C_R   0.182413 0.387474 0.412214 0.428134
C7    C     C_R   0.145709 0.499995 0.500001 -0.206101
C8    C     C_R   0.854291 0.499995 0.499996 -0.206101
C9    C     C_R   0.290484 0.499999 0.500000 -0.162562
C10   C     C_R   0.709516 0.499999 0.500000 -0.162563
C11   C     C_R   0.929940 0.499994 0.499997 0.435930
C12   C     C_R   0.500000 0.781981 0.500000 0.934481
C13   C     C_R   0.070060 0.499994 0.500000 0.435930
C14   C     C_R   0.365488 0.500000 0.500000 0.917722
C15   C     C_R   0.634511 0.500000 0.500000 0.917722
C16   C     C_1   0.500000 0.065221 0.500000 -0.156953
C17   C     C_1   0.500000 0.934779 0.500000 -0.156953
C18   C     C_R   0.254849 0.608186 0.590417 -0.230417
C19   C     C_R   0.745151 0.608183 0.409579 -0.230418
C20   C     C_R   0.745150 0.391811 0.590417 -0.230419
H1    H     H_    0.283919 0.691816 0.658767 0.194226
H2    H     H_    0.716081 0.691812 0.341228 0.194228
H3    H     H_    0.716080 0.308183 0.658769 0.194227
H4    H     H_    0.283920 0.308180 0.341235 0.194227
H5    H     H_    0.049302 0.900469 0.645890 0.406485
H6    H     H_    0.950680 0.900511 0.354120 0.406491
H7    H     H_    0.950680 0.099478 0.645862 0.406488
H8    H     H_    0.049334 0.099438 0.354165 0.406495
N1    N     N_1   0.500000 0.500000 0.073640 -0.017269
N2    N     N_1   0.500000 0.500000 0.926360 -0.017269
N3    N     N_R   0.034569 0.500539 0.355676 -0.055192
N4    N     N_R   0.965431 0.500544 0.644321 -0.055206
N5    N     N_R   0.965432 0.499444 0.355675 -0.055188
N6    N     N_R   0.034568 0.499449 0.644322 -0.055202
O1    O     O_R   0.500000 0.285350 0.636850 -0.613915
O2    O     O_2   0.190661 0.889715 0.719084 -0.243081
O3    O     O_3   0.073539 0.826659 0.574910 -0.521624
O4    O     O_2   0.886985 0.709095 0.146694 -0.229309
O5    O     O_2   0.809338 0.889706 0.280897 -0.243100
O6    O     O_3   0.926459 0.826659 0.425079 -0.521619
O7    O     O_2   0.886985 0.290885 0.853294 -0.229306
O8    O     O_2   0.809336 0.110280 0.719086 -0.243105
O9    O     O_3   0.926457 0.173328 0.574903 -0.521591
O10   O     O_2   0.113016 0.290876 0.146708 -0.229295
O11   O     O_2   0.190665 0.110275 0.280924 -0.243116
O12   O     O_R   0.500000 0.714650 0.363150 -0.613915
O13   O     O_3   0.073543 0.173327 0.425102 -0.521586
O14   O     O_R   0.500000 0.714650 0.636850 -0.613915
O15   O     O_R   0.500000 0.285350 0.363150 -0.613915
O16   O     O_R   0.398140 0.500000 0.636920 -0.610895
O17   O     O_R   0.601860 0.500000 0.363080 -0.610896
O18   O     O_R   0.601860 0.500000 0.636920 -0.610895
O19   O     O_R   0.398140 0.500000 0.363080 -0.610895
O20   O     O_2   0.113016 0.709107 0.853299 -0.229325
S1    S     S_3+6 0.140249 0.763362 0.690017 0.090368
S2    S     S_3+6 0.859751 0.763356 0.309973 0.090369
S3    S     S_3+6 0.859749 0.236630 0.690014 0.090371
S4    S     S_3+6 0.140251 0.236626 0.309991 0.090376
Zn1   Zn    Zn3+2 0.500000 0.500000 0.682780 1.025189
Zn2   Zn    Zn3+2 0.500000 0.500000 0.317220 1.025189

loop_
_geom_bond_atom_site_label_1
_geom_bond_atom_site_label_2
_ccdc_geom_bond_type
C12   C17   S    
C5    C8    A    
C9    C14   S    
N3    N5    A    
H8    O13   S    
C6    C7    A    
O18   Zn1   S    
C15   O17   A    
C18   H1    S    
C6    S4    S    
O10   S4    D    
O5    S2    D    
C20   H3    S    
C5    S3    S    
C10   C19   A    
C12   O14   A    
H5    O3    S    
N2    Zn1   S    
C19   H2    S    
O7    S3    D    
C13   N6    A    
O2    S1    D    
C14   O16   A    
C15   O18   A    
C4    S2    S    
O13   S4    S    
C4    C19   A    
H6    O6    S    
C2    C6    A    
O15   Zn2   S    
C1    O15   A    
O14   Zn1   S    
C8    C11   S    
O16   Zn1   S    
O8    S3    D    
O1    Zn1   S    
O19   Zn2   S    
C11   N4    A    
C3    C7    A    
C10   C15   S    
C2    H4    S    
C5    C20   A    
O11   S4    D    
O9    S3    S    
N1    N2    T    
O3    S1    S    
H7    O9    S    
C9    C18   A    
C7    C13   S    
C14   O19   A    
O4    S2    D    
C1    O1    A    
C3    C18   A    
C12   O12   A    
C11   N5    A    
C4    C8    A    
C1    C16   S    
O20   S1    D    
N1    Zn2   S    
O17   Zn2   S    
O12   Zn2   S    
C2    C9    A    
C3    S1    S    
C13   N3    A    
C10   C20   A    
C16   C17   T    
O6    S2    S    
N4    N6    A    
