data_str_m2_o14_o22_f0_pcu.sym.21
_audit_creation_date              2012-10-26T20:19:31-0400
_audit_creation_method            fapswitch 2.2
_symmetry_space_group_name_H-M    P1
_symmetry_Int_Tables_number       1
_space_group_crystal_system       triclinic
_cell_length_a                    10.763969
_cell_length_b                    10.799429
_cell_length_c                    9.623765
_cell_angle_alpha                 90.59904
_cell_angle_beta                  90.104887
_cell_angle_gamma                 93.106218
_cell_volume                      1117.0039686

loop_
_atom_site_label
_atom_site_type_symbol
_atom_type_description
_atom_site_fract_x
_atom_site_fract_y
_atom_site_fract_z
_atom_type_partial_charge
C1    C     C_R   0.495776 0.262613 0.499448 0.603787
C2    C     C_R   0.399598 0.061208 0.581904 -0.008684
C3    C     C_R   0.487898 0.128132 0.498351 0.042896
C4    C     C_R   0.260074 0.500878 0.499706 0.574404
C5    C     C_R   0.571486 0.066522 0.413820 0.220576
C6    C     C_R   0.570236 0.937775 0.416225 -0.147694
C7    C     C_R   0.488100 0.870307 0.502225 -0.028801
C8    C     C_R   0.660395 0.670956 0.145856 -0.053829
C9    C     C_R   0.738382 0.754894 0.074769 -0.158117
C10   C     C_R   0.738253 0.754816 0.931486 -0.157689
C11   C     C_R   0.660223 0.670707 0.858430 -0.073112
C12   C     C_3   0.877879 0.498206 0.496767 0.001902
C13   C     C_R   0.577209 0.585363 0.926468 0.160968
C14   C     C_R   0.576860 0.585738 0.075887 0.168591
C15   C     C_R   0.432987 0.412375 0.070486 0.154602
C16   C     C_R   0.495669 0.736908 0.500753 0.514683
C17   C     C_R   0.431565 0.415088 0.923319 0.005637
C18   C     C_R   0.739846 0.499128 0.499446 0.528072
C19   C     C_3   0.065586 0.377411 0.561693 0.111566
C20   C     C_3   0.921761 0.380093 0.568032 -0.182133
C21   C     C_3   0.076787 0.611492 0.584105 -0.298321
C22   C     C_3   0.073029 0.513328 0.347230 -0.187987
C23   C     C_3   0.933427 0.612333 0.580072 -0.286386
C24   C     C_3   0.121806 0.500240 0.498278 0.075320
C25   C     C_2   0.370209 0.302298 0.133673 0.596707
C26   C     C_2   0.882523 0.403501 0.245556 0.610370
C27   C     C_3   0.930022 0.506888 0.344039 -0.048833
C28   C     C_R   0.307909 0.121066 0.659199 -0.082831
C29   C     C_R   0.222019 0.053387 0.740356 -0.112773
C30   C     C_R   0.223760 0.924998 0.744295 -0.118130
C31   C     C_R   0.311185 0.863662 0.666797 -0.099239
C32   C     C_R   0.400527 0.930414 0.584937 0.016145
Cu1   Cu    Cu3+1 0.499990 0.499990 0.640660 0.919957
Cu2   Cu    Cu3+1 0.500010 0.500010 0.359340 1.034502
H1    H     H_    0.102086 0.368713 0.669600 0.101053
H2    H     H_    0.672659 0.674246 0.255274 0.164994
H3    H     H_    0.801232 0.818808 0.131574 0.106958
H4    H     H_    0.800851 0.818806 0.876209 0.114990
H5    H     H_    0.671042 0.674586 0.748940 0.177861
H6    H     H_    0.376273 0.345446 0.865420 0.124707
H7    H     H_    0.876147 0.295257 0.520205 0.192965
H8    H     H_    0.892358 0.379776 0.678899 0.105070
H9    H     H_    0.108589 0.605940 0.693868 0.127774
H10   H     H_    0.897565 0.611625 0.688468 0.142737
H11   H     H_    0.108697 0.603672 0.303923 0.082595
H12   H     H_    0.901027 0.596039 0.300030 0.090559
H13   H     H_    0.109738 0.440473 0.279025 0.231990
H14   H     H_    0.706801 0.076687 0.279281 0.321733
H15   H     H_    0.357076 0.115522 0.143935 0.340071
H16   H     H_    0.076080 0.199875 0.535372 0.319256
H17   H     H_    0.880199 0.222608 0.190851 0.342161
H18   H     H_    0.116933 0.699982 0.540910 0.117711
H19   H     H_    0.904870 0.699561 0.531609 0.108255
H20   H     H_    0.299024 0.220042 0.655582 0.142948
H21   H     H_    0.152655 0.100759 0.798776 0.109694
H22   H     H_    0.155865 0.872437 0.805972 0.108491
H23   H     H_    0.305789 0.763778 0.670459 0.140956
H24   H     H_    0.636173 0.889815 0.353179 0.095927
N1    N     N_R   0.501200 0.501210 0.147910 -0.264714
N2    N     N_R   0.501250 0.501290 0.852040 -0.264654
O1    O     O_R   0.499990 0.319640 0.618810 -0.522919
O2    O     O_2   0.283655 0.312499 0.213592 -0.490289
O3    O     O_R   0.406912 0.184560 0.095230 -0.687379
O4    O     O_3   0.100875 0.275349 0.481988 -0.652273
O5    O     O_2   0.820992 0.428637 0.143720 -0.511174
O6    O     O_R   0.913585 0.281132 0.266777 -0.650351
O7    O     O_R   0.500000 0.319660 0.381240 -0.409888
O8    O     O_R   0.317680 0.499970 0.618790 -0.539203
O9    O     O_R   0.317700 0.499990 0.381210 -0.470656
O10   O     O_R   0.500000 0.680340 0.618760 -0.534532
O11   O     O_R   0.500010 0.680360 0.381190 -0.535558
O12   O     O_R   0.682300 0.500010 0.618790 -0.522452
O13   O     O_R   0.682320 0.500030 0.381210 -0.495922
O14   O     O_3   0.655968 0.134315 0.332835 -0.655616

loop_
_geom_bond_atom_site_label_1
_geom_bond_atom_site_label_2
_ccdc_geom_bond_type
H15   O3    S    
H16   O4    S    
C6    H24   S    
C19   C20   S    
C20   H7    S    
C13   N2    A    
C14   N1    A    
C12   C23   S    
C26   C27   S    
C28   C29   A    
C8    H2    S    
C5    C6    A    
C4    C24   S    
C15   C25   S    
C2    C32   A    
C25   O3    S    
C5    O14   S    
Cu1   O12   S    
C21   H9    S    
C8    C9    A    
C9    C10   A    
C22   H13   S    
C13   C14   A    
C16   O11   A    
C4    O9    A    
C23   H19   S    
C18   O12   A    
C12   C27   S    
C26   O6    S    
H14   O14   S    
C16   O10   A    
C4    O8    A    
C28   H20   S    
C29   H21   S    
Cu2   O13   S    
C30   H22   S    
C23   H10   S    
C1    C3    S    
H17   O6    S    
C29   C30   A    
C31   C32   A    
C19   O4    S    
C12   C20   S    
C9    H3    S    
Cu1   Cu2   S    
C11   H5    S    
Cu2   O9    S    
Cu1   O10   S    
C27   H12   S    
C7    C16   S    
C18   O13   A    
C22   C27   S    
C21   C23   S    
Cu2   N1    S    
C22   C24   S    
C15   C17   A    
C8    C14   A    
C7    C32   A    
C26   O5    D    
C15   N1    A    
C3    C5    A    
C1    O1    A    
Cu2   O7    S    
C20   H8    S    
C6    C7    A    
Cu1   N2    S    
C10   H4    S    
C31   H23   S    
C19   C24   S    
C19   H1    S    
C11   C13   A    
C30   C31   A    
C1    O7    A    
C2    C3    A    
C25   O2    D    
C10   C11   A    
C17   N2    A    
C22   H11   S    
Cu1   O1    S    
C21   C24   S    
C12   C18   S    
C2    C28   A    
Cu2   O11   S    
C17   H6    S    
C21   H18   S    
Cu1   O8    S    
