data_str_m2_o10_o28_f0_pcu.sym.88
_audit_creation_date              2012-12-10T16:50:19-0500
_audit_creation_method            fapswitch 2.2
_symmetry_space_group_name_H-M    P1
_symmetry_Int_Tables_number       1
_space_group_crystal_system       triclinic
_cell_length_a                    23.492715
_cell_length_b                    8.690419
_cell_length_c                    7.549818
_cell_angle_alpha                 103.644475
_cell_angle_beta                  94.361397
_cell_angle_gamma                 93.862229
_cell_volume                      1487.74622968

loop_
_atom_site_label
_atom_site_type_symbol
_atom_type_description
_atom_site_fract_x
_atom_site_fract_y
_atom_site_fract_z
_atom_type_partial_charge
C1    C     C_R   0.498207 0.199771 0.452788 0.867641
C2    C     C_R   0.501793 0.800229 0.547212 0.867639
C3    C     C_R   0.236912 0.569737 0.381564 -0.133534
C4    C     C_R   0.763089 0.430277 0.618445 -0.133538
C5    C     C_R   0.296518 0.571570 0.377735 0.126417
C6    C     C_R   0.703483 0.428442 0.622273 0.126418
C7    C     C_R   0.328844 0.507493 0.504880 -0.044753
C8    C     C_R   0.671156 0.492509 0.495121 -0.044749
C9    C     C_R   0.300843 0.445433 0.633960 -0.272381
C10   C     C_R   0.699157 0.554563 0.366036 -0.272385
C11   C     C_R   0.241721 0.446032 0.637481 -0.093027
C12   C     C_R   0.758279 0.553966 0.362515 -0.093031
C13   C     C_R   0.209553 0.507457 0.510899 0.314685
C14   C     C_R   0.790447 0.492549 0.489104 0.314692
C15   C     C_2   0.497448 0.031070 0.427227 -0.373127
C16   C     C_2   0.502552 0.968930 0.572773 -0.373127
C17   C     C_R   0.391270 0.502047 0.501814 0.796954
C18   C     C_R   0.608730 0.497953 0.498186 0.796958
C19   C     C_R   0.883954 0.637913 0.530477 0.538110
C20   C     C_R   0.116046 0.362093 0.469523 0.538109
C21   C     C_R   0.876194 0.353696 0.449154 0.537509
C22   C     C_R   0.123807 0.646311 0.550849 0.537510
C23   C     C_R   0.935930 0.352827 0.453696 -0.012840
C24   C     C_R   0.064070 0.647179 0.546306 -0.012840
C25   C     C_R   0.969903 0.498953 0.497177 -0.018052
C26   C     C_R   0.030097 0.501054 0.502824 -0.018052
C27   C     C_R   0.943832 0.642979 0.535177 -0.013295
C28   C     C_R   0.056168 0.357028 0.464824 -0.013294
C29   C     C_R   0.962364 0.209857 0.416225 -0.163028
C30   C     C_R   0.037636 0.790150 0.583777 -0.163028
C31   C     C_R   0.021885 0.211933 0.421775 -0.174602
C32   C     C_R   0.978115 0.788074 0.578226 -0.174602
Cu1   Cu    Cu3+1 0.506340 0.517380 0.684380 0.950716
Cu2   Cu    Cu3+1 0.493660 0.482620 0.315620 0.950715
H1    H     H_    0.937189 0.095982 0.382580 0.194069
H2    H     H_    0.062811 0.904025 0.617422 0.194069
H3    H     H_    0.040885 0.099599 0.392000 0.186827
H4    H     H_    0.959115 0.900408 0.608001 0.186827
H5    H     H_    0.211502 0.616948 0.284189 0.146649
H6    H     H_    0.788500 0.383072 0.715825 0.146646
H7    H     H_    0.324384 0.392647 0.729467 0.151663
H8    H     H_    0.675615 0.607342 0.270524 0.151664
H9    H     H_    0.220757 0.397419 0.737694 0.157922
H10   H     H_    0.779242 0.602574 0.262298 0.157918
H11   H     H_    0.492719 0.957788 0.287800 0.182986
H12   H     H_    0.507281 0.042212 0.712200 0.182986
N1    N     N_R   0.851514 0.494787 0.488202 -0.466666
N2    N     N_R   0.148486 0.505220 0.511800 -0.466665
N3    N     N_2   0.484110 0.456420 0.038520 -0.055875
N4    N     N_2   0.515890 0.543580 0.961480 -0.055875
O1    O     O_R   0.504120 0.286130 0.619770 -0.585188
O2    O     O_R   0.495880 0.713870 0.380230 -0.585188
O3    O     O_R   0.493410 0.256770 0.308360 -0.582505
O4    O     O_R   0.506590 0.743230 0.691640 -0.582505
O5    O     O_R   0.423230 0.514630 0.655730 -0.607424
O6    O     O_R   0.576770 0.485370 0.344270 -0.607425
O7    O     O_R   0.412530 0.485280 0.344320 -0.560121
O8    O     O_R   0.587470 0.514720 0.655680 -0.560119
O9    O     O_2   0.858351 0.774767 0.570050 -0.522589
O10   O     O_2   0.141649 0.225239 0.429948 -0.522591
O11   O     O_2   0.842957 0.214791 0.405265 -0.522789
O12   O     O_2   0.157043 0.785215 0.594742 -0.522791
N5    N     N_3   0.324257 0.640078 0.247448 -0.573343
H13   H     H_    0.348177 0.744681 0.320404 0.222385
H14   H     H_    0.293987 0.672953 0.157531 0.219595
N6    N     N_3   0.675744 0.359942 0.752568 -0.573346
H15   H     H_    0.651831 0.255326 0.679620 0.222387
H16   H     H_    0.706016 0.327092 0.842502 0.219593
C33   C     C_3   0.428439 0.389091 0.951390 -0.351672
H17   H     H_    0.409989 0.309322 0.031163 0.165738
H18   H     H_    0.399547 0.485151 0.953628 0.188302
H19   H     H_    0.430679 0.311621 0.814332 0.178647
C34   C     C_3   0.571561 0.610908 0.048609 -0.351672
H20   H     H_    0.590011 0.690678 0.968837 0.165739
H21   H     H_    0.569321 0.688379 0.185668 0.178648
H22   H     H_    0.600453 0.514848 0.046371 0.188301

loop_
_geom_bond_atom_site_label_1
_geom_bond_atom_site_label_2
_ccdc_geom_bond_type
Cu1   O5    S    
C22   N2    A    
N5    H14   S    
Cu2   O6    S    
Cu1   O8    S    
C10   H8    S    
C34   H20   S    
N6    H16   S    
C23   C29   A    
C24   C26   A    
C19   N1    A    
C15   C16   D    
C5    N5    S    
C33   H18   S    
C1    O3    A    
Cu2   O2    S    
C18   O8    A    
C4    H6    S    
C7    C17   S    
Cu2   O7    S    
C11   H9    S    
C1    C15   S    
C32   H4    S    
C20   O10   S    
C19   C27   A    
C17   O5    A    
C21   O11   S    
C3    C13   A    
C18   O6    A    
N6    H15   S    
C3    H5    S    
N3    C33   S    
C34   H21   S    
C10   C12   A    
C4    C6    A    
C2    O4    A    
N4    C34   S    
C16   H12   S    
C5    C7    A    
C6    C8    A    
C20   C28   A    
C19   O9    S    
C25   C26   A    
C8    C18   S    
C31   H3    S    
C33   H19   S    
C22   O12   S    
C1    O1    A    
Cu1   Cu2   S    
C9    C11   A    
C20   N2    A    
C2    O2    A    
C12   C14   A    
C21   C23   A    
C34   H22   S    
C22   C24   A    
Cu1   O1    S    
C15   H11   S    
C2    C16   S    
Cu1   O4    S    
C7    C9    A    
Cu2   N3    S    
C27   C32   A    
C26   C28   A    
C28   C31   A    
C3    C5    A    
C13   N2    S    
C14   N1    S    
C25   C27   A    
C29   H1    S    
C9    H7    S    
C30   H2    S    
Cu1   N4    S    
C29   C31   A    
C30   C32   A    
C11   C13   A    
C23   C25   A    
C4    C14   A    
C33   H17   S    
C24   C30   A    
N5    H13   S    
C6    N6    S    
Cu2   O3    S    
C8    C10   A    
N3    N4    D    
C12   H10   S    
C17   O7    A    
C21   N1    A    
