data_str_m4_o4_o22_f0_acs.sym.130
_audit_creation_date              2013-03-05T15:51:49-0500
_audit_creation_method            fapswitch 2.2
_symmetry_space_group_name_H-M    P1
_symmetry_Int_Tables_number       1
_space_group_crystal_system       triclinic
_cell_length_a                    10.961802
_cell_length_b                    11.049112
_cell_length_c                    18.738834
_cell_angle_alpha                 90.384774
_cell_angle_beta                  89.705467
_cell_angle_gamma                 60.422704
_cell_volume                      1973.72364632

loop_
_atom_site_label
_atom_site_type_symbol
_atom_site_description
_atom_site_fract_x
_atom_site_fract_y
_atom_site_fract_z
_atom_type_partial_charge
O1    O     O_R   0.507380 0.255700 0.581440 -0.533247
O2    O     O_R   0.280320 0.527350 0.578930 -0.472259
C1    C     C_R   0.242145 0.644373 0.610982 0.558519
O3    O     O_R   0.260510 0.739590 0.584590 -0.535505
O4    O     O_R   0.532300 0.695080 0.573820 -0.520975
C2    C     C_R   0.652827 0.620327 0.601270 0.548910
O5    O     O_R   0.744840 0.503500 0.576370 -0.455771
O6    O     O_R   0.699120 0.276560 0.571960 -0.504256
C3    C     C_R   0.630455 0.225114 0.601431 0.519401
O7    O     O_R   0.498940 0.256500 0.419860 -0.523295
O8    O     O_R   0.272500 0.528080 0.429150 -0.502819
C4    C     C_R   0.220526 0.649927 0.402326 0.558831
O9    O     O_R   0.252060 0.740380 0.423010 -0.520822
O10   O     O_R   0.524480 0.695810 0.424040 -0.511889
C5    C     C_R   0.640290 0.619531 0.390783 0.552050
O11   O     O_R   0.736390 0.504290 0.414790 -0.510651
O12   O     O_R   0.691300 0.277290 0.422170 -0.508657
C6    C     C_R   0.619709 0.223497 0.396549 0.540708
Cr1   Cr    Cr6+3 0.392960 0.397920 0.502240 1.048594
Cr2   Cr    Cr6+3 0.398340 0.708480 0.501250 1.009104
Cr3   Cr    Cr6+3 0.708670 0.393570 0.496460 1.051853
O13   O     O_3   0.499990 0.499990 0.499980 -0.270477
C7    C     C_3   0.564260 0.801910 0.784309 -0.242813
H1    H     H_    0.562614 0.900495 0.796806 0.171717
H2    H     H_    0.471487 0.805959 0.811134 0.116401
C8    C     C_3   0.553817 0.790128 0.703180 -0.281416
H3    H     H_    0.448315 0.805805 0.690810 0.148895
H4    H     H_    0.564031 0.873927 0.676052 0.128246
H5    H     H_    0.813035 0.718683 0.652494 0.162705
C9    C     C_3   0.829142 0.665671 0.767790 0.109689
C10   C     C_3   0.690821 0.542845 0.799453 -0.280375
C11   C     C_3   0.701360 0.675489 0.811819 0.015422
H6    H     H_    0.790838 0.448927 0.814195 0.162188
H7    H     H_    0.606047 0.545002 0.833386 0.117545
C12   C     C_3   0.670998 0.645261 0.676330 0.007956
C13   C     C_3   0.815113 0.637193 0.687599 0.106101
C14   C     C_3   0.659519 0.532962 0.720844 -0.221519
H8    H     H_    0.552315 0.546213 0.715995 0.108404
H9    H     H_    0.733697 0.427927 0.700308 0.193388
H10   H     H_    0.926062 0.576755 0.789039 0.162623
C15   C     C_R   0.683681 0.149839 0.821746 0.047212
C16   C     C_R   0.778434 0.175666 0.783978 -0.005839
C17   C     C_R   0.773546 0.183071 0.709612 0.017135
C18   C     C_R   0.584408 0.132134 0.708503 -0.125587
C19   C     C_R   0.580503 0.138083 0.781960 -0.125318
C20   C     C_3   0.933973 0.099911 0.785024 -0.247337
C21   C     C_3   0.929928 0.104434 0.704128 -0.250714
C22   C     C_R   0.676889 0.160784 0.670888 0.050164
H11   H     H_    0.504187 0.119549 0.681434 0.124112
H12   H     H_    0.498429 0.125662 0.807138 0.128683
H13   H     H_    0.975310 0.994411 0.806966 0.215857
H14   H     H_    0.976604 0.163391 0.809089 0.139632
H15   H     H_    0.972815 0.167904 0.681048 0.190699
H16   H     H_    0.969889 0.001188 0.677916 0.185796
C23   C     C_R   0.188193 0.665758 0.836931 0.028640
C24   C     C_R   0.173904 0.566000 0.797327 0.049402
C25   C     C_R   0.184233 0.561966 0.723161 0.091820
C26   C     C_R   0.212271 0.764387 0.726350 -0.157069
C27   C     C_R   0.212866 0.762014 0.800404 -0.165660
C28   C     C_3   0.265598 0.412653 0.802268 -0.310134
C29   C     C_3   0.279567 0.409049 0.721979 -0.253958
C30   C     C_R   0.201180 0.662029 0.686269 0.050501
H17   H     H_    0.225853 0.844387 0.700764 0.128505
H18   H     H_    0.221818 0.842881 0.828889 0.123162
H19   H     H_    0.207161 0.360899 0.821984 0.161309
H20   H     H_    0.364549 0.384331 0.830870 0.132264
H21   H     H_    0.385259 0.384911 0.703399 0.140341
H22   H     H_    0.234442 0.350834 0.694784 0.215669
C31   C     C_R   0.640847 0.672697 0.165285 0.002934
C32   C     C_R   0.694162 0.542241 0.195775 0.046351
C33   C     C_R   0.693020 0.527416 0.268613 -0.021827
C34   C     C_R   0.566489 0.775158 0.284359 -0.172959
C35   C     C_R   0.562796 0.789296 0.209776 -0.174485
C36   C     C_3   0.832177 0.412912 0.187169 0.113250
C37   C     C_3   0.829486 0.394814 0.267373 -0.232698
C38   C     C_R   0.643252 0.642514 0.314548 0.012096
H23   H     H_    0.512836 0.867072 0.318010 0.131157
H24   H     H_    0.509213 0.891293 0.187075 0.140583
H25   H     H_    0.915997 0.432348 0.168132 0.216811
H26   H     H_    0.815892 0.306450 0.283276 0.153956
H27   H     H_    0.912101 0.404267 0.296740 0.169151
C39   C     C_R   0.698949 0.052381 0.188462 0.024402
C40   C     C_R   0.581364 0.073453 0.226394 -0.047613
C41   C     C_R   0.564623 0.111604 0.297515 -0.000602
C42   C     C_R   0.795525 0.084711 0.299985 -0.159869
C43   C     C_R   0.811782 0.046274 0.227373 -0.112497
C44   C     C_3   0.432644 0.172127 0.210085 -0.186586
C45   C     C_3   0.412134 0.211173 0.288075 -0.211743
C46   C     C_R   0.664391 0.133540 0.332987 0.022374
H28   H     H_    0.879273 0.090282 0.327427 0.120417
H29   H     H_    0.907000 0.025263 0.200283 0.183471
H30   H     H_    0.372211 0.121568 0.191997 0.178948
H31   H     H_    0.425392 0.256941 0.175922 0.227399
H32   H     H_    0.385050 0.320975 0.297485 0.167292
H33   H     H_    0.345160 0.177244 0.316644 0.159660
C47   C     C_R   0.135944 0.676291 0.186179 0.015725
C48   C     C_R   0.129705 0.787354 0.224303 -0.029190
C49   C     C_R   0.131319 0.791759 0.296436 0.006526
C50   C     C_R   0.136504 0.571423 0.300058 -0.158610
C51   C     C_R   0.134972 0.566033 0.224862 0.171208
C52   C     C_3   0.208687 0.863404 0.214002 -0.266882
C53   C     C_3   0.211234 0.870282 0.294354 -0.254532
C54   C     C_R   0.149239 0.677197 0.335206 -0.018643
H34   H     H_    0.144973 0.484804 0.330599 0.166839
H35   H     H_    0.145299 0.966992 0.189311 0.193590
H36   H     H_    0.313175 0.796273 0.189025 0.156041
H37   H     H_    0.318845 0.810156 0.315298 0.181865
H38   H     H_    0.148908 0.977898 0.316148 0.139162
O14   O     O_R   0.089400 0.825690 0.930570 -0.520484
O15   O     O_R   0.818460 0.054440 0.929850 -0.465074
C55   C     C_R   0.701317 0.102092 0.895872 0.602988
O16   O     O_R   0.606060 0.077150 0.915510 -0.523036
O17   O     O_R   0.646550 0.806680 0.917570 -0.490777
C56   C     C_R   0.723278 0.687957 0.888515 0.580207
O18   O     O_R   0.837170 0.593410 0.915250 -0.514100
O19   O     O_R   0.065200 0.635530 0.931570 -0.474765
C57   C     C_R   0.122136 0.704474 0.907292 0.581838
O20   O     O_R   0.068260 0.828890 0.091840 -0.537692
O21   O     O_R   0.798870 0.057410 0.079340 -0.423462
C58   C     C_R   0.703694 0.038065 0.110500 0.570804
O22   O     O_R   0.584930 0.080350 0.076780 -0.504459
O23   O     O_R   0.626960 0.809650 0.067060 -0.534569
C59   C     C_R   0.693593 0.690465 0.096775 0.536038
O24   O     O_R   0.816040 0.596610 0.076510 -0.502083
O25   O     O_R   0.045610 0.638500 0.081060 -0.452475
C60   C     C_R   0.092722 0.709121 0.112784 0.546680
Cr4   Cr    Cr6+3 0.937650 0.938540 0.007610 1.101621
Cr5   Cr    Cr6+3 0.625330 0.937370 0.994520 1.044363
Cr6   Cr    Cr6+3 0.937940 0.625230 0.001190 1.104484
O26   O     O_3   0.833640 0.833710 0.001100 -0.286544
N1    N     N_R   0.935109 0.504173 0.663943 0.059336
O27   O     O_R   0.006937 0.500307 0.607603 -0.338238
O28   O     O_R   0.976026 0.391197 0.700555 -0.435571
N2    N     N_R   0.823586 0.305445 0.145560 0.073679
O29   O     O_R   0.704709 0.328844 0.118595 -0.322966
O30   O     O_R   0.939431 0.199878 0.122149 -0.347011
N3    N     N_R   0.145244 0.443725 0.190776 0.048594
O31   O     O_R   0.199749 0.404668 0.127235 -0.339287
O32   O     O_R   0.128511 0.354830 0.228769 -0.443753
N4    N     N_R   0.842723 0.791045 0.777324 0.021672
O33   O     O_R   0.865360 0.851651 0.723698 -0.410852
O34   O     O_R   0.857224 0.828266 0.840934 -0.339372

loop_
_geom_bond_atom_site_label_1
_geom_bond_atom_site_label_2
_geom_bond_distance
_ccdc_geom_bond_type
C18   H11   1.083641 S    
C26   C30   1.408266 A    
C50   C54   1.403871 A    
C44   C45   1.504964 S    
C52   C53   1.508214 S    
C23   C27   1.401649 A    
C15   C16   1.396039 A    
C40   C44   1.481459 S    
C12   C13   1.553331 S    
C39   C58   1.466287 S    
C23   C24   1.396733 A    
C48   C49   1.352749 A    
O14   C57   1.276299 A    
C59   O24   1.279292 A    
O17   Cr5   1.963541 S    
C42   C43   1.406613 A    
C2    C12   1.464834 S    
N3    O32   1.300434 A    
H5    C13   1.109885 S    
O8    Cr1   1.964207 S    
C8    H3    1.107583 S    
O11   Cr3   2.078075 S    
C41   C46   1.401285 A    
C12   C14   1.555049 S    
N4    O34   1.294267 A    
Cr6   O26   2.003377 S    
C43   H29   1.074603 S    
C23   C57   1.456892 S    
C33   C38   1.396941 A    
C31   C59   1.459044 S    
C49   C54   1.391762 A    
C20   H14   1.111387 S    
C26   H17   1.080855 S    
O19   C57   1.283695 A    
C16   C20   1.483135 S    
C7    C8    1.534637 S    
O15   C55   1.294987 A    
C34   H23   1.082988 S    
O14   Cr4   2.075925 S    
O19   Cr6   1.949604 S    
C10   C11   1.542038 S    
C16   C17   1.396219 A    
O6    C3    1.271598 A    
C32   C36   1.488961 S    
C7    H1    1.104000 S    
C10   H6    1.113102 S    
C53   H38   1.111786 S    
C32   C33   1.376517 A    
C37   H26   1.100613 S    
O9    Cr2   2.078010 S    
C34   C38   1.405217 A    
O15   Cr4   1.965480 S    
C21   H15   1.107839 S    
C39   C43   1.411931 A    
C50   H34   1.082736 S    
C45   H33   1.111963 S    
C28   H20   1.111240 S    
C33   C37   1.490111 S    
C44   H30   1.109447 S    
C31   C32   1.388726 A    
C56   O18   1.275500 A    
C52   H35   1.110038 S    
C42   H28   1.082224 S    
C45   H32   1.110015 S    
O1    Cr1   2.085622 S    
C9    N4    1.474305 S    
C36   C37   1.519552 S    
C9    H10   1.109808 S    
O10   Cr2   1.952036 S    
C25   C30   1.395170 A    
Cr1   O13   1.989103 S    
O1    C3    1.277292 A    
N4    O33   1.300127 A    
O22   Cr5   2.082690 S    
C13   N1    1.470921 S    
O4    Cr2   1.958601 S    
C42   C46   1.400219 A    
C37   H27   1.109771 S    
N2    O30   1.300282 A    
C26   C27   1.388097 A    
C49   C53   1.507344 S    
C20   H13   1.104590 S    
O12   Cr3   1.960894 S    
C10   C14   1.529553 S    
Cr5   O26   1.991009 S    
C28   C29   1.509783 S    
C14   H8    1.114490 S    
C29   H21   1.106439 S    
C40   C41   1.378805 A    
O7    Cr1   2.081198 S    
C35   H24   1.073121 S    
C17   C22   1.404599 A    
C47   C48   1.387736 A    
O12   C6    1.288470 A    
C27   H18   1.083314 S    
C10   H7    1.113695 S    
C47   C60   1.446158 S    
C53   H37   1.105209 S    
C31   C35   1.406044 A    
N2    O29   1.302373 A    
C4    C54   1.437400 S    
C21   H16   1.109717 S    
Cr2   O13   2.003465 S    
C28   H19   1.111689 S    
C36   H25   1.100028 S    
O25   C60   1.274246 A    
O20   Cr4   2.084573 S    
C1    O3    1.267671 A    
C58   O22   1.313159 A    
O17   C56   1.273232 A    
O18   Cr6   2.081179 S    
C1    C30   1.460607 S    
C52   H36   1.110067 S    
C24   C25   1.392437 A    
C20   C21   1.517212 S    
C55   O16   1.258258 A    
O2    Cr1   1.961100 S    
C6    C46   1.464239 S    
C18   C19   1.377063 A    
C41   C45   1.491963 S    
C34   C35   1.405904 A    
N1    O28   1.300786 A    
O6    Cr3   1.959771 S    
C36   N2    1.457901 S    
O21   C58   1.300250 A    
C25   C29   1.484423 S    
C2    O5    1.266126 A    
N3    O31   1.300842 A    
C47   C51   1.426285 A    
C8    H4    1.111896 S    
C50   C51   1.410470 A    
C9    C13   1.557090 S    
C7    C11   1.555873 S    
O2    C1    1.288615 A    
Cr4   O26   1.989881 S    
C14   H9    1.102419 S    
O5    Cr3   2.081319 S    
C9    C11   1.578426 S    
C29   H22   1.109231 S    
O4    C2    1.275837 A    
C19   H12   1.081323 S    
O7    C6    1.261624 A    
C5    O11   1.273502 A    
C44   H31   1.108771 S    
O24   Cr6   2.069149 S    
C5    C38   1.455620 S    
C7    H2    1.112837 S    
O23   Cr5   1.959756 S    
N1    O27   1.301539 A    
O16   Cr5   2.081785 S    
C51   N3    1.443739 S    
O3    Cr2   2.072582 S    
O25   Cr6   1.959739 S    
C8    C12   1.555001 S    
C24   C28   1.487116 S    
C4    O9    1.267197 A    
C3    C22   1.456159 S    
C39   C40   1.383088 A    
C15   C55   1.468674 S    
C15   C19   1.415727 A    
O10   C5    1.280184 A    
O20   C60   1.278636 A    
C11   C56   1.475065 S    
O23   C59   1.281487 A    
Cr3   O13   1.990415 S    
C17   C21   1.493546 S    
C48   C52   1.487136 S    
C18   C22   1.391838 A    
O8    C4    1.282424 A    
O21   Cr4   1.956739 S    
