data_str_m3_o10_o29_f0_pcu.sym.60
_audit_creation_date              2012-12-10T16:59:21-0500
_audit_creation_method            fapswitch 2.2
_symmetry_space_group_name_H-M    P1
_symmetry_Int_Tables_number       1
_space_group_crystal_system       triclinic
_cell_length_a                    7.733179
_cell_length_b                    8.617758
_cell_length_c                    27.659007
_cell_angle_alpha                 91.281234
_cell_angle_beta                  84.641703
_cell_angle_gamma                 93.865311
_cell_volume                      1830.80115134

loop_
_atom_site_label
_atom_site_type_symbol
_atom_type_description
_atom_site_fract_x
_atom_site_fract_y
_atom_site_fract_z
_atom_type_partial_charge
C1    C     C_R   0.545439 0.794369 0.498641 0.857049
C2    C     C_R   0.629025 0.592440 0.124167 -0.007615
C3    C     C_R   0.498508 0.505757 0.647039 -0.385950
C4    C     C_R   0.501492 0.494247 0.352961 -0.385957
C5    C     C_R   0.604332 0.613509 0.023762 0.153646
C6    C     C_R   0.395664 0.386502 0.976238 0.153646
C7    C     C_R   0.423226 0.365620 0.025591 -0.136447
C8    C     C_R   0.576771 0.634391 0.974408 -0.136447
C9    C     C_R   0.518503 0.485261 0.049673 0.003563
C10   C     C_R   0.481493 0.514751 0.950327 0.003562
C11   C     C_R   0.725071 0.710771 0.047540 -0.165857
C12   C     C_R   0.454561 0.205631 0.501359 0.857051
C13   C     C_R   0.274925 0.289240 0.952459 -0.165855
C14   C     C_R   0.733663 0.703436 0.097180 -0.224290
C15   C     C_R   0.266335 0.296575 0.902820 -0.224289
C16   C     C_R   0.500434 0.500745 0.594104 0.966829
C17   C     C_R   0.499566 0.499256 0.405896 0.966828
C18   C     C_R   0.631294 0.774769 0.949148 0.399390
C19   C     C_R   0.368703 0.225243 0.050851 0.399390
C20   C     C_2   0.567073 0.955838 0.492205 0.203210
C21   C     C_2   0.432926 0.044162 0.507796 0.203207
C22   C     C_R   0.561332 0.641058 0.822334 0.682854
C23   C     C_R   0.469754 0.523450 0.899851 -0.120765
C24   C     C_R   0.438669 0.358952 0.177666 0.682856
C25   C     C_R   0.376224 0.407929 0.825297 0.618962
C26   C     C_R   0.623774 0.592082 0.174703 0.618963
C27   C     C_R   0.341115 0.557138 0.724978 0.691475
C28   C     C_R   0.658893 0.442887 0.275022 0.691479
C29   C     C_R   0.348227 0.551730 0.674753 -0.353239
C30   C     C_R   0.651781 0.448293 0.325247 -0.353243
C31   C     C_R   0.642673 0.465680 0.670497 0.529006
C32   C     C_R   0.357320 0.534308 0.329503 0.529007
C33   C     C_R   0.634712 0.470710 0.721018 0.573908
C34   C     C_R   0.530244 0.476561 0.100149 -0.120766
C35   C     C_R   0.365282 0.529282 0.278982 0.573910
C36   C     C_R   0.483821 0.516072 0.748131 -0.096372
C37   C     C_R   0.516180 0.483938 0.251868 -0.096385
C38   C     C_3   0.519260 0.001217 0.872636 -0.166643
C39   C     C_3   0.480739 0.998793 0.127363 -0.166650
C40   C     C_3   0.813605 0.997203 0.960080 -0.251564
C41   C     C_3   0.186391 0.002809 0.039920 -0.251565
C42   C     C_3   0.717857 0.000972 0.418650 -0.182986
C43   C     C_3   0.282144 0.999027 0.581350 -0.182981
C44   C     C_R   0.554962 0.648083 0.873312 -0.237183
C45   C     C_R   0.445037 0.351927 0.126687 -0.237183
C46   C     C_R   0.621122 0.779671 0.898385 0.447629
C47   C     C_R   0.378876 0.220339 0.101615 0.447631
C48   C     C_R   0.370973 0.407571 0.875832 -0.007614
F1    F     F_    0.789479 0.419868 0.644900 -0.600102
F2    F     F_    0.210506 0.580100 0.355100 -0.600107
F3    F     F_    0.772835 0.430480 0.743775 -0.554546
F4    F     F_    0.227152 0.569496 0.256225 -0.554536
F5    F     F_    0.804349 0.397270 0.248737 -0.574069
F6    F     F_    0.195667 0.602771 0.751262 -0.574084
H1    H     H_    0.014905 0.382273 0.463448 0.218159
H2    H     H_    0.420141 0.938262 0.851478 0.176410
H3    H     H_    0.558561 0.113066 0.854398 0.209397
H4    H     H_    0.579860 0.061749 0.148520 0.176406
H5    H     H_    0.538904 0.971609 0.090077 0.179960
H6    H     H_    0.441439 0.886946 0.145601 0.209397
H7    H     H_    0.789583 0.090256 0.934952 0.225967
H8    H     H_    0.916237 0.922610 0.943394 0.145712
H9    H     H_    0.864386 0.057376 0.992167 0.143798
H10   H     H_    0.083759 0.077402 0.056606 0.145711
H11   H     H_    0.210413 0.909756 0.065048 0.225968
H12   H     H_    0.985095 0.617727 0.536552 0.218155
H13   H     H_    0.135610 0.942636 0.007833 0.143799
H14   H     H_    0.609446 0.064348 0.406345 0.129033
H15   H     H_    0.705915 0.876635 0.406906 0.166650
H16   H     H_    0.841172 0.053715 0.400493 0.208784
H17   H     H_    0.294082 0.123363 0.593094 0.166656
H18   H     H_    0.390559 0.935655 0.593656 0.129030
H19   H     H_    0.158832 0.946280 0.599508 0.208781
H20   H     H_    0.764073 0.415548 0.342361 0.249293
H21   H     H_    0.235941 0.584487 0.657638 0.249279
H22   H     H_    0.821911 0.785853 0.114301 0.197422
H23   H     H_    0.178086 0.214158 0.885698 0.197423
H24   H     H_    0.817843 0.791175 0.028352 0.170717
H25   H     H_    0.182153 0.208837 0.971648 0.170717
H26   H     H_    0.461092 0.028400 0.909922 0.179957
N1    N     N_R   0.475123 0.520836 0.799783 -0.311317
N2    N     N_R   0.524878 0.479174 0.200216 -0.311318
N3    N     N_2   0.950320 0.457960 0.486880 -0.133560
N4    N     N_2   0.049680 0.542040 0.513120 -0.133562
O1    O     O_R   0.389250 0.738570 0.503220 -0.584664
O2    O     O_2   0.346202 0.248174 0.204695 -0.449272
O3    O     O_2   0.713787 0.704939 0.198337 -0.507810
O4    O     O_2   0.286210 0.295073 0.801663 -0.507810
O5    O     O_3   0.668404 0.916217 0.873779 -0.567050
O6    O     O_3   0.331595 0.083793 0.126221 -0.567050
O7    O     O_3   0.655828 0.912573 0.975703 -0.586415
O8    O     O_3   0.344168 0.087438 0.024297 -0.586415
O9    O     O_3   0.724494 0.015794 0.469370 -0.583774
O10   O     O_3   0.275506 0.984206 0.530631 -0.583775
O11   O     O_R   0.610750 0.261430 0.496780 -0.584662
O12   O     O_R   0.678390 0.711630 0.494810 -0.604059
O13   O     O_R   0.321610 0.288370 0.505190 -0.604058
O14   O     O_R   0.355440 0.513440 0.575450 -0.625821
O15   O     O_R   0.644560 0.486560 0.424550 -0.625822
O16   O     O_R   0.644590 0.486500 0.567040 -0.572430
O17   O     O_R   0.355410 0.513500 0.432960 -0.572429
O18   O     O_2   0.653801 0.751835 0.795305 -0.449271
Zn1   Zn    Zn3+2 0.306940 0.517990 0.505620 1.035000
Zn2   Zn    Zn3+2 0.693060 0.482010 0.494380 1.035001

loop_
_geom_bond_atom_site_label_1
_geom_bond_atom_site_label_2
_ccdc_geom_bond_type
C43   H19   S    
C25   N1    A    
C20   O9    S    
C13   H25   S    
C43   H18   S    
C27   C29   A    
C42   O9    S    
C42   H16   S    
C43   O10   S    
C27   F6    S    
C41   H13   S    
C46   O5    S    
C38   O5    S    
C40   H9    S    
C24   C45   A    
C35   C37   A    
C5    C11   A    
C30   H20   S    
C11   C14   A    
C19   C47   A    
C21   O10   S    
O14   Zn1   S    
O16   Zn2   S    
C33   C36   A    
C40   H8    S    
C3    C29   A    
C17   O17   A    
C24   N2    A    
C19   O8    S    
C22   C44   A    
C26   O3    S    
C31   C33   A    
C12   O11   A    
C39   O6    S    
O1    Zn1   S    
C2    C34   A    
O15   Zn2   S    
O17   Zn1   S    
C42   H14   S    
C15   C48   A    
C31   F1    S    
C18   C46   A    
C44   C46   A    
C45   C47   A    
C1    O1    A    
N3    Zn2   S    
C32   C35   A    
C16   O16   A    
C41   H11   S    
C39   H4    S    
C12   C21   S    
C25   O4    S    
C8    C18   A    
C40   H7    S    
C14   H22   S    
C22   N1    A    
C5    C9    A    
C11   H24   S    
C38   H3    S    
N3    N4    D    
C36   N1    S    
C39   H5    S    
C2    C26   A    
C34   C45   A    
O13   Zn1   S    
C3    C31   A    
C17   O15   A    
C25   C48   A    
C32   F2    S    
C12   O13   A    
C4    C32   A    
C4    C17   S    
C8    C10   A    
C7    C19   A    
O12   Zn2   S    
C9    C34   A    
C10   C23   A    
C47   O6    S    
C37   N2    S    
C18   O7    S    
H1    N3    S    
O11   Zn2   S    
C7    C9    A    
C1    C20   S    
C43   H17   S    
C23   C48   A    
C6    C10   A    
C5    C8    A    
C28   F5    S    
C6    C7    A    
C29   H21   S    
C27   C36   A    
C33   F3    S    
C22   O18   S    
C13   C15   A    
C6    C13   A    
C16   O14   A    
C15   H23   S    
C38   H26   S    
C28   C37   A    
C1    O12   A    
C39   H6    S    
C28   C30   A    
C42   H15   S    
C40   O7    S    
C2    C14   A    
C23   C44   A    
H12   N4    S    
C41   O8    S    
C38   H2    S    
C20   C21   D    
C26   N2    A    
C35   F4    S    
N4    Zn1   S    
C41   H10   S    
C24   O2    S    
C4    C30   A    
C3    C16   S    
