data_str_m9_o1_o2_f0_sra.sym.40
_audit_creation_date              2012-12-11T15:54:41-0500
_audit_creation_method            fapswitch 2.2
_symmetry_space_group_name_H-M    P1
_symmetry_Int_Tables_number       1
_space_group_crystal_system       triclinic
_cell_length_a                    6.930606
_cell_length_b                    14.508175
_cell_length_c                    16.105063
_cell_angle_alpha                 89.967091
_cell_angle_beta                  89.970215
_cell_angle_gamma                 89.987623
_cell_volume                      1619.37072303

loop_
_atom_site_label
_atom_site_type_symbol
_atom_type_description
_atom_site_fract_x
_atom_site_fract_y
_atom_site_fract_z
_atom_type_partial_charge
O1    O     O_R   0.638180 0.333920 0.163320 -0.541380
O2    O     O_R   0.361820 0.666080 0.836680 -0.541379
O3    O     O_R   0.308470 0.344960 0.336080 -0.544391
O4    O     O_R   0.691530 0.655040 0.663920 -0.544391
O5    O     O_R   0.138140 0.166110 0.336680 -0.533482
O6    O     O_R   0.861860 0.833890 0.663320 -0.533482
C1    C     C_R   0.477471 0.367122 0.365113 0.688910
C2    C     C_R   0.522529 0.632878 0.634887 0.688911
O7    O     O_R   0.308460 0.344950 0.163930 -0.545003
O8    O     O_R   0.691540 0.655050 0.836070 -0.545003
O9    O     O_R   0.138140 0.166100 0.163310 -0.542978
O10   O     O_R   0.861860 0.833900 0.836690 -0.542979
C3    C     C_R   0.477529 0.367246 0.135025 0.679670
C4    C     C_R   0.522471 0.632754 0.864975 0.679669
O11   O     O_R   0.638180 0.333930 0.336700 -0.542898
O12   O     O_R   0.361820 0.666070 0.663300 -0.542898
O13   O     O_3   0.471670 0.191340 0.250000 -0.364169
O14   O     O_3   0.528330 0.808660 0.750000 -0.364169
V1    V     V_3+5 0.196830 0.260900 0.250000 1.400396
V2    V     V_3+5 0.803170 0.739100 0.750000 1.400396
O15   O     O_R   0.808420 0.155070 0.163920 -0.543317
O16   O     O_R   0.191580 0.844930 0.836080 -0.543317
C5    C     C_R   0.977518 0.132716 0.135055 0.675936
C6    C     C_R   0.022482 0.867284 0.864945 0.675937
O17   O     O_R   0.808420 0.155080 0.336070 -0.536915
O18   O     O_R   0.191580 0.844920 0.663930 -0.536915
C7    C     C_R   0.977294 0.132860 0.364493 0.696893
C8    C     C_R   0.022706 0.867140 0.635507 0.696893
V3    V     V_3+5 0.696830 0.239130 0.250000 1.413361
V4    V     V_3+5 0.303170 0.760870 0.750000 1.413361
O19   O     O_3   0.971850 0.308690 0.250010 -0.373762
O20   O     O_3   0.028150 0.691310 0.749990 -0.373762
H1    H     H_    0.292075 0.851137 0.268232 0.121807
H2    H     H_    0.707926 0.148863 0.731768 0.121807
C9    C     C_R   0.827461 0.174441 0.528172 -0.206826
C10   C     C_R   0.172539 0.825559 0.471828 -0.206826
C11   C     C_R   0.757439 0.198833 0.606446 0.517452
C12   C     C_R   0.242561 0.801166 0.393554 0.517452
C13   C     C_R   0.766835 0.133860 0.671068 -0.217894
C14   C     C_R   0.233166 0.866140 0.328932 -0.217895
C15   C     C_R   0.851499 0.047975 0.658034 -0.208067
C16   C     C_R   0.148501 0.952025 0.341966 -0.208067
C17   C     C_R   0.924975 0.022737 0.579342 0.075398
C18   C     C_R   0.075025 0.977263 0.420658 0.075398
C19   C     C_R   0.912278 0.087226 0.512949 -0.002450
C20   C     C_R   0.087722 0.912774 0.487050 -0.002450
C21   C     C_R   0.012669 0.935413 0.566530 -0.138315
C22   C     C_R   0.987331 0.064587 0.433470 -0.138315
H3    H     H_    0.816541 0.225888 0.479779 0.128737
H4    H     H_    0.183459 0.774111 0.520221 0.128737
H5    H     H_    0.858634 0.001818 0.710699 0.129843
H6    H     H_    0.141366 0.998181 0.289301 0.129843
C23   C     C_R   0.179674 0.973556 0.968438 -0.157018
C24   C     C_R   0.820326 0.026444 0.031562 -0.157018
H7    H     H_    0.320605 0.954144 0.945264 0.116168
H8    H     H_    0.679395 0.045856 0.054736 0.116168
C25   C     C_R   0.168551 0.036990 0.033773 -0.156925
C26   C     C_R   0.831448 0.963010 0.966226 -0.156926
H9    H     H_    0.301465 0.064663 0.058750 0.118618
H10   H     H_    0.698535 0.935336 0.941250 0.118619
C27   C     C_R   0.988718 0.064339 0.066257 -0.045000
C28   C     C_R   0.011282 0.935661 0.933743 -0.045000
C29   C     C_R   0.320491 0.474948 0.467455 -0.133726
C30   C     C_R   0.679509 0.525053 0.532544 -0.133727
H11   H     H_    0.179726 0.456843 0.443336 0.109127
H12   H     H_    0.820274 0.543157 0.556664 0.109127
C31   C     C_R   0.331702 0.538760 0.532460 -0.089768
C32   C     C_R   0.668298 0.461240 0.467539 -0.089768
H13   H     H_    0.198997 0.567981 0.556273 0.108976
H14   H     H_    0.801003 0.432019 0.443727 0.108976
C33   C     C_R   0.511357 0.564608 0.566013 -0.046354
C34   C     C_R   0.488643 0.435392 0.433986 -0.046355
C35   C     C_R   0.320589 0.475484 0.033096 -0.163592
C36   C     C_R   0.679411 0.524516 0.966904 -0.163592
H15   H     H_    0.179890 0.457661 0.057543 0.116286
H16   H     H_    0.820110 0.542339 0.942457 0.116286
C37   C     C_R   0.331708 0.539020 0.967814 -0.155041
C38   C     C_R   0.668292 0.460980 0.032186 -0.155041
H17   H     H_    0.199017 0.568364 0.944136 0.118357
H18   H     H_    0.800983 0.431636 0.055864 0.118357
C39   C     C_R   0.511274 0.564411 0.933798 -0.045804
C40   C     C_R   0.488726 0.435589 0.066202 -0.045804
O21   O     O_3   0.668646 0.284308 0.614688 -0.553088
C41   C     C_3   0.721205 0.328087 0.689608 -0.258663
H19   H     H_    0.878122 0.320999 0.703279 0.129893
H20   H     H_    0.632610 0.301839 0.741997 0.138865
H21   H     H_    0.690245 0.402815 0.683665 0.162134
O22   O     O_3   0.331354 0.715692 0.385313 -0.553088
C42   C     C_3   0.278800 0.671913 0.310391 -0.258663
H22   H     H_    0.367399 0.698162 0.258004 0.138865
H23   H     H_    0.121884 0.679002 0.296718 0.129893
H24   H     H_    0.309759 0.597185 0.316334 0.162134

loop_
_geom_bond_atom_site_label_1
_geom_bond_atom_site_label_2
_ccdc_geom_bond_type
C7    C22   S    
C26   C28   A    
V4    O20   S    
C29   H11   S    
C8    C21   S    
O13   V3    S    
C41   H21   S    
O4    C2    A    
V1    O19   S    
C13   C15   A    
O9    V1    S    
C36   H16   S    
C30   C32   A    
C9    C11   A    
C41   H20   S    
O3    C1    A    
V2    O20   S    
C38   H18   S    
C25   H9    S    
C26   H10   S    
C30   C33   A    
O7    C3    A    
O5    C7    A    
O7    V1    S    
O6    C8    A    
O8    V2    S    
C9    H3    S    
O3    V1    S    
O14   V4    S    
C42   H23   S    
C31   C33   A    
C14   C16   A    
C2    O12   A    
V3    O19   S    
C15   C17   A    
C16   C18   A    
C18   C20   A    
O11   V3    S    
C24   H8    S    
C23   H7    S    
O17   V3    S    
C29   C31   A    
H1    C14   S    
H2    C13   S    
C41   H19   S    
O8    C4    A    
C1    C34   S    
C23   C25   A    
C1    O11   A    
O15   V3    S    
C3    C40   S    
C12   O22   S    
C31   H13   S    
C30   H12   S    
C23   C28   A    
C38   C40   A    
O21   C41   S    
C37   C39   A    
C32   C34   A    
O10   V2    S    
O1    V3    S    
C37   H17   S    
C29   C34   A    
C42   H24   S    
C10   C20   A    
C17   C19   A    
O18   V4    S    
O15   C5    A    
O16   C6    A    
O1    C3    A    
C35   H15   S    
C36   C39   A    
C9    C19   A    
C35   C40   A    
C10   H4    S    
C24   C26   A    
C19   C22   A    
C20   C21   A    
C2    C33   S    
C6    C28   S    
O16   V4    S    
C25   C27   A    
O5    V1    S    
C24   C27   A    
O17   C7    A    
O6    V2    S    
O10   C6    A    
O18   C8    A    
O2    V4    S    
C10   C12   A    
C11   C13   A    
C12   C14   A    
C17   C21   A    
O9    C5    A    
O13   V1    S    
O14   V2    S    
O2    C4    A    
O4    V2    S    
C5    C27   S    
O22   C42   S    
C32   H14   S    
C36   C38   A    
C35   C37   A    
C11   O21   S    
C4    C39   S    
C42   H22   S    
O12   V4    S    
C15   H5    S    
C18   C22   A    
C16   H6    S    
