data_str_m12_o4_o13_f0_bcu.sym.169
_audit_creation_date              2012-12-11T16:53:30-0500
_audit_creation_method            fapswitch 2.2
_symmetry_space_group_name_H-M    P1
_symmetry_Int_Tables_number       1
_space_group_crystal_system       triclinic
_cell_length_a                    14.92956
_cell_length_b                    14.789856
_cell_length_c                    16.90281
_cell_angle_alpha                 109.06028
_cell_angle_beta                  106.289374
_cell_angle_gamma                 108.028793
_cell_volume                      3037.13306543

loop_
_atom_site_label
_atom_site_type_symbol
_atom_type_description
_atom_site_fract_x
_atom_site_fract_y
_atom_site_fract_z
_atom_type_partial_charge
C1    C     C_R   0.089769 0.276059 0.052990 -0.146281
C2    C     C_R   0.024348 0.584399 0.746343 0.071215
C3    C     C_R   0.753044 0.196892 0.721662 0.057194
C4    C     C_R   0.281396 0.454312 0.956554 0.074959
C5    C     C_R   0.276581 0.690141 0.252277 0.027384
C6    C     C_R   0.705292 0.500996 0.917851 -0.160281
C7    C     C_R   0.888403 0.462863 0.186924 -0.130974
C8    C     C_R   0.079208 0.808164 0.049904 -0.127826
C9    C     C_R   0.907129 0.723927 0.972506 -0.106823
C10   C     C_R   0.060874 0.549236 0.264936 -0.122061
C11   C     C_R   0.279527 0.783572 0.173331 -0.167638
C12   C     C_R   0.934618 0.522176 0.747958 -0.137759
C13   C     C_R   0.698108 0.406658 0.995861 -0.132866
C14   C     C_R   0.338710 0.782255 0.251380 0.011877
C15   C     C_R   0.640027 0.439642 0.942556 0.056350
C16   C     C_R   0.968163 0.533985 0.273783 0.048895
C17   C     C_R   0.989810 0.824225 0.033720 0.041170
C18   C     C_R   0.389958 0.459295 0.868768 0.138294
C19   C     C_R   0.343391 0.413757 0.916147 0.061429
C20   C     C_R   0.376276 0.343139 0.940089 -0.208069
C21   C     C_R   0.469050 0.341711 0.938463 -0.170685
C22   C     C_R   0.530158 0.412360 0.914289 0.015375
C23   C     C_R   0.769879 0.200342 0.808459 -0.129929
C24   C     C_R   0.484645 0.465986 0.874652 -0.003468
C25   C     C_3   0.510413 0.557369 0.849399 0.220169
C26   C     C_3   0.404331 0.551293 0.846270 -0.661528
C27   C     C_R   0.957606 0.578646 0.360323 0.131307
C28   C     C_R   0.030154 0.626677 0.679419 0.130219
C29   C     C_R   0.132420 0.700136 0.607392 -0.224296
C30   C     C_R   0.127033 0.684317 0.682942 -0.177802
C31   C     C_R   0.938496 0.597829 0.604566 -0.284430
C32   C     C_R   0.943405 0.607948 0.526796 0.191741
C33   C     C_R   0.041300 0.655179 0.526872 0.190268
C34   C     C_R   0.249955 0.527553 0.941904 -0.133015
C35   C     C_R   0.047236 0.644568 0.443955 -0.280134
C36   C     C_R   0.859535 0.543563 0.362035 -0.170890
C37   C     C_R   0.852469 0.559750 0.445414 -0.228582
C38   C     C_R   0.712430 0.104375 0.631703 0.132419
C39   C     C_R   0.447729 0.860712 0.313175 0.129728
C40   C     C_R   0.571072 0.046965 0.391990 -0.228658
C41   C     C_R   0.482344 0.962710 0.317251 -0.169346
C42   C     C_R   0.513333 0.841362 0.376539 -0.286040
C43   C     C_R   0.593071 0.927482 0.458328 0.178832
C44   C     C_R   0.620083 0.031165 0.466312 0.189351
C45   C     C_R   0.779898 0.300228 0.734414 -0.126368
C46   C     C_R   0.684461 0.118269 0.551568 -0.276172
C47   C     C_R   0.692820 0.001683 0.623339 -0.177892
C48   C     C_R   0.635752 0.913315 0.536093 -0.221035
C49   C     C_R   0.101667 0.060174 0.002971 0.073623
C50   C     C_R   0.008605 0.070099 0.974520 0.026287
C51   C     C_R   0.918663 0.975931 0.904831 -0.182276
C52   C     C_R   0.926874 0.883714 0.855238 -0.191294
C53   C     C_R   0.024351 0.883309 0.874483 0.055741
C54   C     C_R   0.108570 0.969147 0.953214 0.139641
C55   C     C_3   0.218280 0.027317 0.970680 -0.559292
C56   C     C_R   0.252956 0.436957 0.023971 -0.139671
C57   C     C_3   0.212728 0.128758 0.026118 -0.197643
C58   C     C_R   0.106425 0.606720 0.824463 -0.151808
C59   C     C_R   0.917796 0.191981 0.975658 -0.126307
C60   C     C_R   0.005658 0.175191 0.003463 0.068596
H1    H     H_    0.168023 0.294947 0.095671 0.094338
H2    H     H_    0.684364 0.527138 0.866302 0.122074
H3    H     H_    0.805889 0.433195 0.167395 0.094181
H4    H     H_    0.157974 0.868881 0.094493 0.095003
H5    H     H_    0.825893 0.706391 0.945051 0.116065
H6    H     H_    0.136746 0.600451 0.319085 0.122686
H7    H     H_    0.307271 0.833418 0.142534 0.099787
H8    H     H_    0.669238 0.346113 0.016813 0.085837
H9    H     H_    0.337379 0.297710 0.968976 0.116595
H10   H     H_    0.496836 0.293517 0.964975 0.122160
H11   H     H_    0.855858 0.503749 0.706273 0.084620
H12   H     H_    0.411821 0.622356 0.902576 0.191562
H13   H     H_    0.344520 0.527497 0.777280 0.192300
H14   H     H_    0.123213 0.677667 0.444858 0.122211
H15   H     H_    0.788447 0.496789 0.299114 0.114976
H16   H     H_    0.208076 0.738181 0.608828 0.125120
H17   H     H_    0.776595 0.525287 0.444770 0.123233
H18   H     H_    0.199198 0.710832 0.740792 0.114355
H19   H     H_    0.862906 0.556854 0.601558 0.114562
H20   H     H_    0.700850 0.196023 0.554810 0.114572
H21   H     H_    0.752178 0.132500 0.822249 0.085876
H22   H     H_    0.717138 0.989111 0.683876 0.116380
H23   H     H_    0.592445 0.126325 0.396913 0.127953
H24   H     H_    0.616102 0.834029 0.530930 0.134668
H25   H     H_    0.436796 0.980417 0.267588 0.120811
H26   H     H_    0.496321 0.761638 0.368295 0.148618
H27   H     H_    0.843266 0.975635 0.881990 0.117503
H28   H     H_    0.858625 0.815565 0.797490 0.131215
H29   H     H_    0.270926 0.004516 0.012408 0.191069
H30   H     H_    0.226528 0.023976 0.906545 0.194620
H31   H     H_    0.253731 0.555831 0.891511 0.113629
H32   H     H_    0.218030 0.182567 0.992924 0.128641
H33   H     H_    0.778375 0.330277 0.684371 0.093935
H34   H     H_    0.270255 0.387896 0.054761 0.081263
H35   H     H_    0.185717 0.666275 0.852853 0.087192
H36   H     H_    0.838273 0.133595 0.947347 0.077728
N1    N     N_R   0.055640 0.348550 0.045600 -0.039328
N2    N     N_R   0.798340 0.505430 0.954400 -0.038188
N3    N     N_R   0.931580 0.439470 0.128350 -0.041195
N4    N     N_R   0.051950 0.704140 0.002340 -0.038728
N5    N     N_R   0.944360 0.651450 0.954400 -0.044469
N6    N     N_R   0.039170 0.492150 0.176290 -0.042539
N7    N     N_R   0.188710 0.696600 0.128350 -0.043887
N8    N     N_R   0.794820 0.447010 0.002340 -0.038440
N9    N     N_R   0.960830 0.507850 0.823710 -0.037642
N10   N     N_R   0.811290 0.303400 0.871650 -0.038029
N11   N     N_R   0.205180 0.552990 0.997660 -0.040052
N12   N     N_R   0.814810 0.361830 0.823710 -0.039651
N13   N     N_R   0.201660 0.494570 0.045600 -0.045000
N14   N     N_R   0.068420 0.560530 0.871650 -0.037266
N15   N     N_R   0.948050 0.295860 0.997660 -0.037438
N16   N     N_R   0.185190 0.638170 0.176290 -0.059647
Ni1   Ni    Ni4+2 0.119330 0.493420 0.109950 0.215459
Ni2   Ni    Ni4+2 0.880670 0.506580 0.890050 0.208856
Ni3   Ni    Ni4+2 0.872590 0.372590 0.000000 0.211816
Ni4   Ni    Ni4+2 0.127410 0.627410 0.000000 0.207737
C61   C     C_R   0.596744 0.667875 0.925671 0.174950
C62   C     C_R   0.608223 0.758459 0.910665 -0.141642
C63   C     C_R   0.685982 0.859857 0.977520 -0.139882
C64   C     C_R   0.750431 0.873713 0.062532 -0.079259
C65   C     C_R   0.734839 0.786758 0.081771 -0.107249
C66   C     C_R   0.657320 0.685188 0.014858 -0.199192
H37   H     H_    0.555848 0.751145 0.847489 0.124307
H38   H     H_    0.695315 0.927954 0.963773 0.105638
H39   H     H_    0.810495 0.952270 0.114398 0.107305
H40   H     H_    0.782115 0.798184 0.149092 0.118998
H41   H     H_    0.644385 0.621830 0.034723 0.133493
C67   C     C_3   0.511227 0.515742 0.751130 -0.322385
C68   C     C_3   0.590556 0.592771 0.734196 -0.980616
H42   H     H_    0.564577 0.651457 0.721900 0.258597
H43   H     H_    0.669203 0.634242 0.792039 0.259477
H44   H     H_    0.596374 0.547033 0.670619 0.250508
H45   H     H_    0.526090 0.444120 0.737006 0.178449
H46   H     H_    0.433198 0.486812 0.695796 0.190692
C69   C     C_R   0.286191 0.183105 0.128120 0.209701
C70   C     C_R   0.372597 0.281982 0.165089 -0.194101
C71   C     C_R   0.443691 0.331832 0.257832 -0.116092
C72   C     C_R   0.429341 0.283631 0.314784 -0.107187
C73   C     C_R   0.343901 0.185407 0.279049 -0.138116
C74   C     C_R   0.272684 0.135179 0.186317 -0.148336
H47   H     H_    0.385913 0.320248 0.122120 0.103106
H48   H     H_    0.510008 0.407909 0.285545 0.112880
H49   H     H_    0.484450 0.322361 0.386567 0.101233
H50   H     H_    0.333008 0.147911 0.323146 0.115582
H51   H     H_    0.207481 0.058909 0.160154 0.107425
C75   C     C_R   0.307651 0.645726 0.316264 0.081664
C76   C     C_R   0.296416 0.540761 0.282263 -0.139801
C77   C     C_R   0.319341 0.497011 0.342756 -0.124246
C78   C     C_R   0.353829 0.557654 0.437626 -0.086380
C79   C     C_R   0.364385 0.661881 0.472110 -0.117914
C80   C     C_R   0.340589 0.705596 0.411765 -0.198626
H52   H     H_    0.269667 0.492624 0.209258 0.113169
H53   H     H_    0.309563 0.415756 0.315965 0.131546
H54   H     H_    0.371633 0.523613 0.484321 0.105007
H55   H     H_    0.390099 0.708478 0.545487 0.107158
H56   H     H_    0.346985 0.785681 0.439138 0.127507

loop_
_geom_bond_atom_site_label_1
_geom_bond_atom_site_label_2
_ccdc_geom_bond_type
N9    N14   A    
C35   H14   S    
C57   H32   S    
C26   H12   S    
C3    C23   A    
C76   C77   A    
N4    Ni4   S    
C71   H48   S    
C2    C12   A    
C67   C68   S    
C78   C79   A    
C69   C70   A    
C39   C41   A    
C29   H16   S    
C63   H38   S    
C52   C53   A    
C56   H34   S    
C70   H47   S    
C7    N3    A    
C18   C24   A    
C34   N11   A    
C6    N2    A    
C36   C37   A    
C25   C67   S    
C75   C76   A    
C55   H30   S    
C72   H49   S    
N3    Ni3   S    
C12   N9    A    
N1    N15   A    
C11   C14   A    
N2    Ni2   S    
C49   C54   A    
C29   C33   A    
C26   H13   S    
C49   C57   S    
C18   C19   A    
C47   H22   S    
N12   Ni2   S    
C66   H41   S    
C34   H31   S    
C14   C39   S    
C62   C63   A    
C4    C19   S    
C15   C22   S    
C31   C32   A    
C3    C38   S    
C44   C46   A    
C18   C26   S    
C59   N15   A    
C42   H26   S    
C43   C48   A    
C45   N12   A    
N13   Ni1   S    
C68   H44   S    
C16   C27   S    
C6    C15   A    
C45   H33   S    
C59   C60   A    
C78   H54   S    
C21   C22   A    
C4    C56   A    
N5    Ni2   S    
N11   N13   A    
C40   H23   S    
N16   Ni1   S    
C11   H7    S    
C39   C42   A    
C10   H6    S    
C69   C74   A    
C4    C34   A    
C32   C37   A    
C51   C52   A    
C58   H35   S    
N9    Ni2   S    
C52   H28   S    
C77   C78   A    
C1    C60   A    
C51   H27   S    
C64   H39   S    
C27   C35   A    
C25   C26   S    
C53   C54   A    
C23   N10   A    
C37   H17   S    
C3    C45   A    
C48   H24   S    
C1    H1    S    
N7    N16   A    
C61   C66   A    
C29   C30   A    
C36   H15   S    
C67   H46   S    
N8    Ni3   S    
N15   Ni3   S    
C73   H50   S    
C47   C48   A    
C10   N6    A    
C73   C74   A    
C38   C47   A    
C50   C51   A    
C65   C66   A    
C80   H56   S    
C24   C25   S    
C13   N8    A    
C7    H3    S    
C5    C14   A    
C8    H4    S    
C9    C17   A    
C7    C16   A    
C12   H11   S    
C79   H55   S    
C55   C57   S    
C43   C44   A    
C22   C24   A    
C20   H9    S    
C42   C43   A    
C1    N1    A    
N14   Ni4   S    
C56   N13   A    
C64   C65   A    
C68   H42   S    
C54   C55   S    
C40   C41   A    
C5    C75   S    
C23   H21   S    
C58   N14   A    
C28   C31   A    
C70   C71   A    
C25   C61   S    
C74   H51   S    
C2    C28   S    
C63   C64   A    
C2    C58   A    
C31   H19   S    
C5    N16   A    
C27   C36   A    
C41   H25   S    
C71   C72   A    
N10   Ni3   S    
C8    C17   A    
C21   H10   S    
C50   C60   S    
C32   C33   A    
C6    H2    S    
C19   C20   A    
C13   C15   A    
C76   H52   S    
C8    N4    A    
C65   H40   S    
C55   H29   S    
N6    Ni1   S    
C10   C16   A    
C67   H45   S    
C46   H20   S    
N10   N12   A    
N2    N8    A    
C28   C30   A    
N4    N5    A    
C33   C35   A    
N7    Ni4   S    
C62   H37   S    
C9    H5    S    
N11   Ni4   S    
C38   C46   A    
C72   C73   A    
C75   C80   A    
C30   H18   S    
C40   C44   A    
N3    N6    A    
C20   C21   A    
C9    N5    A    
C49   C50   A    
C59   H36   S    
C79   C80   A    
C57   C69   S    
C11   N7    A    
C77   H53   S    
C61   C62   A    
N1    Ni1   S    
C68   H43   S    
C13   H8    S    
