data_str_m2_o10_o14_f0_pcu.sym.29
_audit_creation_date              2012-10-26T19:59:38-0400
_audit_creation_method            fapswitch 2.2
_symmetry_space_group_name_H-M    P1
_symmetry_Int_Tables_number       1
_space_group_crystal_system       triclinic
_cell_length_a                    10.742998
_cell_length_b                    8.680618
_cell_length_c                    7.458135
_cell_angle_alpha                 102.943334
_cell_angle_beta                  94.182052
_cell_angle_gamma                 92.406628
_cell_volume                      674.820156597

loop_
_atom_site_label
_atom_site_type_symbol
_atom_type_description
_atom_site_fract_x
_atom_site_fract_y
_atom_site_fract_z
_atom_type_partial_charge
C1    C     C_R   0.496336 0.199777 0.453289 0.573990
C2    C     C_R   0.503925 0.800232 0.546705 0.523439
C3    C     C_R   0.737262 0.502727 0.498046 0.585232
C4    C     C_R   0.148126 0.783267 0.698974 -0.091921
C5    C     C_R   0.091366 0.917557 0.788107 -0.110349
C6    C     C_R   0.961667 0.918724 0.781109 -0.078645
C7    C     C_R   0.888021 0.785504 0.685220 -0.083436
C8    C     C_R   0.943595 0.647176 0.595473 -0.014399
C9    C     C_R   0.075209 0.646384 0.602312 0.017631
C10   C     C_R   0.129771 0.509932 0.507295 -0.031666
C11   C     C_R   0.056589 0.379066 0.404569 -0.112852
C12   C     C_R   0.927889 0.378100 0.398693 0.209803
C13   C     C_R   0.871221 0.510735 0.495266 0.016522
C14   C     C_2   0.494730 0.031844 0.427064 -0.124772
C15   C     C_2   0.505798 0.968162 0.572961 -0.153598
C16   C     C_R   0.262966 0.502862 0.502719 0.529534
Cl1   Cl    Cl    0.840689 0.205178 0.275141 -0.619207
Cu1   Cu    Cu3+1 0.513920 0.517380 0.684380 0.977547
Cu2   Cu    Cu3+1 0.486080 0.482620 0.315620 0.999854
H1    H     H_    0.100204 0.275936 0.330619 0.147504
H2    H     H_    0.597721 0.622074 0.051247 0.247599
H3    H     H_    0.249079 0.788728 0.705088 0.135819
H4    H     H_    0.148243 0.021598 0.861535 0.118431
H5    H     H_    0.917891 0.023728 0.848962 0.169435
H6    H     H_    0.787667 0.793145 0.680080 0.133649
H7    H     H_    0.484377 0.960269 0.286472 0.141189
H8    H     H_    0.516179 0.039718 0.713560 0.141506
H9    H     H_    0.402290 0.377917 0.948743 0.237025
N1    N     N_2   0.465100 0.456430 0.038520 -0.251110
N2    N     N_2   0.534900 0.543570 0.961480 -0.248116
O1    O     O_R   0.509050 0.286130 0.619770 -0.503156
O2    O     O_R   0.485540 0.256780 0.308360 -0.482637
O3    O     O_R   0.331410 0.514680 0.655740 -0.513355
O4    O     O_R   0.307900 0.485330 0.344330 -0.502112
O5    O     O_R   0.514460 0.743220 0.691640 -0.513321
O6    O     O_R   0.490950 0.713870 0.380230 -0.509442
O7    O     O_R   0.692100 0.514670 0.655670 -0.498453
O8    O     O_R   0.668590 0.485320 0.344260 -0.463162

loop_
_geom_bond_atom_site_label_1
_geom_bond_atom_site_label_2
_ccdc_geom_bond_type
C2    O5    A    
C12   Cl1   S    
C11   C12   A    
C6    C7    A    
Cu1   N2    S    
Cu2   O8    S    
C16   O3    A    
C4    H3    S    
Cu1   O5    S    
C15   H8    S    
C5    H4    S    
C6    H5    S    
C7    C8    A    
C10   C16   S    
C7    H6    S    
C14   H7    S    
C2    C15   S    
N1    N2    D    
Cu2   O2    S    
C9    C10   A    
H9    N1    S    
Cu1   O1    S    
Cu1   O7    S    
Cu2   O6    S    
C5    C6    A    
Cu1   O3    S    
C11   H1    S    
C10   C11   A    
Cu2   N1    S    
C8    C13   A    
C1    O1    A    
C12   C13   A    
C3    O7    A    
Cu1   Cu2   S    
H2    N2    S    
C2    O6    A    
C14   C15   D    
C8    C9    A    
C1    C14   S    
C16   O4    A    
C4    C9    A    
C1    O2    A    
C3    O8    A    
C4    C5    A    
Cu2   O4    S    
C3    C13   S    
