data_str_m4_o22_o24_f0_acs.sym.58
_audit_creation_date              2012-12-11T15:08:52-0500
_audit_creation_method            fapswitch 2.2
_symmetry_space_group_name_H-M    P1
_symmetry_Int_Tables_number       1
_space_group_crystal_system       triclinic
_cell_length_a                    19.340878
_cell_length_b                    11.322834
_cell_length_c                    18.717977
_cell_angle_alpha                 89.874508
_cell_angle_beta                  90.04859
_cell_angle_gamma                 90.119248
_cell_volume                      4099.09608255

loop_
_atom_site_label
_atom_site_type_symbol
_atom_type_description
_atom_site_fract_x
_atom_site_fract_y
_atom_site_fract_z
_atom_type_partial_charge
C1    C     C_R   0.273886 0.042323 0.854841 0.543538
C2    C     C_3   0.686579 0.556134 0.951618 -0.254699
C3    C     C_R   0.226918 0.543053 0.354313 0.539179
C4    C     C_R   0.468719 0.823175 0.645382 0.538920
C5    C     C_R   0.531263 0.822967 0.354581 0.539381
C6    C     C_R   0.968719 0.323175 0.645382 0.538920
C7    C     C_R   0.031263 0.322967 0.354581 0.539381
C8    C     C_R   0.261002 0.640492 0.643443 0.540830
C9    C     C_R   0.739022 0.640175 0.356523 0.546512
C10   C     C_R   0.761002 0.140492 0.643443 0.540830
C11   C     C_R   0.239022 0.140175 0.356523 0.546512
C12   C     C_3   0.473195 0.915633 0.038420 -0.102233
C13   C     C_3   0.812066 0.046878 0.045973 -0.258497
C14   C     C_3   0.511619 0.923988 0.965759 -0.100698
C15   C     C_3   0.973195 0.415632 0.038420 -0.102233
C16   C     C_3   0.011619 0.423988 0.965759 -0.100698
C17   C     C_3   0.427737 0.814582 0.008746 -0.167886
C18   C     C_3   0.564555 0.832129 0.991673 -0.171414
C19   C     C_3   0.927737 0.314581 0.008745 -0.167886
C20   C     C_3   0.064555 0.332129 0.991673 -0.171414
C21   C     C_3   0.466762 0.823157 0.936991 0.049921
C22   C     C_3   0.525897 0.823959 0.063738 0.052875
C23   C     C_3   0.966762 0.323157 0.936991 0.049921
C24   C     C_3   0.186580 0.056133 0.951618 -0.254699
C25   C     C_3   0.025897 0.323958 0.063738 0.052875
C26   C     C_3   0.320630 0.573450 0.966187 -0.242299
C27   C     C_3   0.674009 0.595707 0.028758 -0.246440
C28   C     C_3   0.820629 0.073448 0.966187 -0.242299
C29   C     C_3   0.174009 0.095707 0.028758 -0.246440
C30   C     C_3   0.180883 0.517072 0.026831 -0.207722
C31   C     C_3   0.814524 0.515919 0.979348 -0.218451
C32   C     C_3   0.680883 0.017072 0.026831 -0.207722
C33   C     C_R   0.727686 0.045766 0.146639 0.546836
C34   C     C_3   0.314524 0.015919 0.979348 -0.218452
C35   C     C_3   0.228385 0.713686 0.054880 -0.051373
C36   C     C_3   0.779280 0.713119 0.941243 -0.039365
C37   C     C_3   0.728386 0.213686 0.054880 -0.051374
C38   C     C_3   0.279280 0.213119 0.941244 -0.039365
C39   C     C_3   0.238349 0.580334 0.071017 0.068766
C40   C     C_3   0.762548 0.580532 0.929477 0.064278
C41   C     C_3   0.738349 0.080334 0.071017 0.068766
C42   C     C_3   0.262548 0.080531 0.929477 0.064277
C43   C     C_3   0.252173 0.615058 0.932743 0.029416
C44   C     C_R   0.773886 0.542323 0.854841 0.543538
C45   C     C_3   0.742151 0.632191 0.064413 0.032239
C46   C     C_3   0.752173 0.115057 0.932743 0.029416
C47   C     C_3   0.242151 0.132190 0.064413 0.032239
C48   C     C_3   0.196614 0.521003 0.945873 -0.260692
C49   C     C_3   0.793305 0.528596 0.058531 -0.237257
C50   C     C_3   0.696613 0.021004 0.945873 -0.260692
C51   C     C_3   0.293305 0.028596 0.058531 -0.237259
C52   C     C_3   0.226532 0.727895 0.972421 -0.205201
C53   C     C_3   0.773832 0.737466 0.022159 -0.221946
C54   C     C_3   0.726533 0.227895 0.972422 -0.205201
C55   C     C_R   0.227686 0.545766 0.146639 0.546836
C56   C     C_3   0.273832 0.237465 0.022159 -0.221946
C57   C     C_3   0.503499 0.701454 0.460472 -0.228153
C58   C     C_3   0.496394 0.701596 0.539785 -0.227324
C59   C     C_3   0.003499 0.201454 0.460472 -0.228153
C60   C     C_3   0.996394 0.201596 0.539785 -0.227324
C61   C     C_R   0.441686 0.817205 0.862188 0.534038
C62   C     C_R   0.554490 0.817969 0.137390 0.523203
C63   C     C_R   0.941686 0.317205 0.862188 0.534038
C64   C     C_R   0.054490 0.317969 0.137390 0.523203
C65   C     C_3   0.564767 0.904707 0.473220 -0.216717
C66   C     C_3   0.519001 0.731666 0.963119 -0.107127
C67   C     C_3   0.435354 0.904883 0.526449 -0.217291
C68   C     C_3   0.064767 0.404707 0.473220 -0.216717
C69   C     C_3   0.935354 0.404883 0.526449 -0.217291
C70   C     C_3   0.440666 0.887081 0.444527 -0.263060
C71   C     C_3   0.559389 0.887324 0.555218 -0.263282
C72   C     C_3   0.940666 0.387081 0.444527 -0.263060
C73   C     C_3   0.059389 0.387324 0.555218 -0.263282
C74   C     C_3   0.510504 0.829043 0.430843 0.061496
C75   C     C_3   0.489460 0.829318 0.569071 0.061900
C76   C     C_3   0.010504 0.329043 0.430843 0.061496
C77   C     C_3   0.480838 0.723460 0.034759 -0.106111
C78   C     C_3   0.989460 0.329318 0.569071 0.061900
C79   C     C_3   0.179632 0.646606 0.459267 -0.227532
C80   C     C_3   0.820573 0.646802 0.540596 -0.227986
C81   C     C_3   0.679632 0.146606 0.459267 -0.227532
C82   C     C_3   0.320573 0.146802 0.540596 -0.227986
C83   C     C_3   0.184480 0.659657 0.538458 -0.227866
C84   C     C_3   0.815621 0.659872 0.461396 -0.227888
C85   C     C_3   0.684480 0.159657 0.538458 -0.227866
C86   C     C_3   0.315621 0.159872 0.461396 -0.227888
C87   C     C_3   0.252716 0.454962 0.473291 -0.216845
C88   C     C_3   0.019002 0.231666 0.963119 -0.107127
C89   C     C_3   0.747232 0.455052 0.527198 -0.216660
C90   C     C_3   0.752716 0.954962 0.473291 -0.216845
C91   C     C_3   0.247232 0.955052 0.527198 -0.216660
C92   C     C_3   0.304874 0.647670 0.442120 -0.263155
C93   C     C_3   0.695213 0.647687 0.557669 -0.263401
C94   C     C_3   0.804874 0.147670 0.442120 -0.263155
C95   C     C_3   0.195213 0.147687 0.557669 -0.263401
C96   C     C_3   0.240649 0.572230 0.429989 0.064485
C97   C     C_3   0.759388 0.572489 0.570061 0.064854
C98   C     C_3   0.740649 0.072230 0.429989 0.064485
C99   C     C_3   0.980838 0.223459 0.034759 -0.106111
C100  C     C_3   0.259388 0.072489 0.570061 0.064854
C101  C     C_3   0.252897 0.606258 0.567497 0.062976
C102  C     C_3   0.747101 0.606070 0.432521 0.061801
C103  C     C_3   0.752897 0.106258 0.567497 0.062976
C104  C     C_3   0.247101 0.106070 0.432521 0.061801
C105  C     C_3   0.247417 0.473441 0.554974 -0.263074
C106  C     C_3   0.752511 0.473327 0.445463 -0.263308
C107  C     C_3   0.747417 0.973441 0.554974 -0.263074
C108  C     C_3   0.252511 0.973327 0.445463 -0.263309
C109  C     C_R   0.261574 0.642759 0.855177 0.539826
C110  C     C_3   0.312066 0.546878 0.045973 -0.258496
C111  C     C_R   0.730503 0.670366 0.139447 0.539121
C112  C     C_R   0.761574 0.142759 0.855177 0.539826
C113  C     C_R   0.230503 0.170365 0.139448 0.539122
C114  C     C_3   0.317582 0.648788 0.523824 -0.219123
C115  C     C_3   0.682418 0.648385 0.475993 -0.219504
C116  C     C_3   0.817582 0.148788 0.523824 -0.219123
C117  C     C_3   0.182418 0.148385 0.475993 -0.219504
C118  C     C_R   0.273035 0.043359 0.645750 0.538270
C119  C     C_R   0.726918 0.043054 0.354313 0.539179
C120  C     C_R   0.773035 0.543359 0.645750 0.538270
Cr1   Cr    Cr6+3 0.229620 0.836040 0.749110 1.004577
Cr2   Cr    Cr6+3 0.613980 0.676590 0.250790 1.024162
Cr3   Cr    Cr6+3 0.886020 0.176590 0.749210 1.020428
Cr4   Cr    Cr6+3 0.113980 0.176590 0.250790 1.024162
Cr5   Cr    Cr6+3 0.770380 0.836040 0.250890 1.003117
Cr6   Cr    Cr6+3 0.729620 0.336040 0.749110 1.004577
Cr7   Cr    Cr6+3 0.270380 0.336040 0.250890 1.003117
Cr8   Cr    Cr6+3 0.387630 0.990680 0.750730 1.034715
Cr9   Cr    Cr6+3 0.612370 0.990680 0.249270 1.033049
Cr10  Cr    Cr6+3 0.887630 0.490680 0.750730 1.034715
Cr11  Cr    Cr6+3 0.112370 0.490680 0.249270 1.033049
Cr12  Cr    Cr6+3 0.386020 0.676590 0.749210 1.020428
H1    H     H_    0.373352 0.800192 0.023283 0.090688
H2    H     H_    0.743849 0.815679 0.029836 0.092892
H3    H     H_    0.174386 0.960717 0.947059 0.157221
H4    H     H_    0.350683 0.598136 0.077090 0.112710
H5    H     H_    0.651146 0.604223 0.915076 0.113213
H6    H     H_    0.850683 0.098136 0.077089 0.112711
H7    H     H_    0.151146 0.104221 0.915076 0.113213
H8    H     H_    0.361671 0.639065 0.956961 0.134009
H9    H     H_    0.638255 0.669300 0.031262 0.111328
H10   H     H_    0.861671 0.139063 0.956960 0.134010
H11   H     H_    0.138255 0.169300 0.031262 0.111328
H12   H     H_    0.337733 0.494190 0.938466 0.183462
H13   H     H_    0.755572 0.302863 0.954670 0.104324
H14   H     H_    0.647929 0.525644 0.058867 0.189309
H15   H     H_    0.837732 0.994188 0.938466 0.183462
H16   H     H_    0.147929 0.025644 0.058867 0.189309
H17   H     H_    0.669421 0.930367 0.049597 0.084199
H18   H     H_    0.324260 0.927638 0.961340 0.082520
H19   H     H_    0.169421 0.430367 0.049597 0.084200
H20   H     H_    0.824260 0.427638 0.961340 0.082520
H21   H     H_    0.601534 0.831073 0.575604 0.110130
H22   H     H_    0.398410 0.830735 0.424401 0.110583
H23   H     H_    0.101534 0.331073 0.575604 0.110130
H24   H     H_    0.243849 0.315679 0.029836 0.092892
H25   H     H_    0.898410 0.330735 0.424401 0.110583
H26   H     H_    0.306885 0.429471 0.462621 0.119484
H27   H     H_    0.693038 0.429423 0.538026 0.119945
H28   H     H_    0.806885 0.929471 0.462621 0.119484
H29   H     H_    0.193038 0.929423 0.538026 0.119945
H30   H     H_    0.715100 0.935994 0.926612 0.119752
H31   H     H_    0.268244 0.947867 0.078362 0.149131
H32   H     H_    0.215101 0.435994 0.926613 0.119754
H33   H     H_    0.768244 0.447868 0.078362 0.149131
H34   H     H_    0.172566 0.746687 0.955231 0.171327
H35   H     H_    0.826004 0.755579 0.044536 0.171370
H36   H     H_    0.672567 0.246689 0.955231 0.171328
H37   H     H_    0.326004 0.255578 0.044536 0.171370
H38   H     H_    0.630532 0.062476 0.034549 0.179115
H39   H     H_    0.366987 0.054451 0.973828 0.173993
H40   H     H_    0.130532 0.562476 0.034549 0.179115
H41   H     H_    0.618367 0.829324 0.972709 0.094733
H42   H     H_    0.866987 0.554451 0.973828 0.173993
H43   H     H_    0.148659 0.541986 0.915585 0.132413
H44   H     H_    0.839923 0.544230 0.091928 0.138954
H45   H     H_    0.648658 0.041987 0.915586 0.132414
H46   H     H_    0.339923 0.044229 0.091928 0.138954
H47   H     H_    0.546536 0.644562 0.446117 0.137058
H48   H     H_    0.453427 0.644339 0.554369 0.137478
H49   H     H_    0.046537 0.144562 0.446117 0.137058
H50   H     H_    0.953427 0.144339 0.554369 0.137478
H51   H     H_    0.458199 0.656918 0.436155 0.115959
H52   H     H_    0.873352 0.300191 0.023283 0.090687
H53   H     H_    0.541698 0.657368 0.564233 0.115959
H54   H     H_    0.958199 0.156918 0.436155 0.115959
H55   H     H_    0.041698 0.157368 0.564233 0.115959
H56   H     H_    0.616837 0.896253 0.452897 0.112173
H57   H     H_    0.383266 0.896662 0.546847 0.111860
H58   H     H_    0.116837 0.396253 0.452897 0.112173
H59   H     H_    0.883266 0.396662 0.546847 0.111860
H60   H     H_    0.455749 0.992557 0.070140 0.131999
H61   H     H_    0.523706 0.007786 0.937507 0.142642
H62   H     H_    0.955748 0.492556 0.070140 0.131998
H63   H     H_    0.118367 0.329324 0.972709 0.094733
H64   H     H_    0.023705 0.507786 0.937507 0.142643
H65   H     H_    0.437562 0.972958 0.416011 0.112128
H66   H     H_    0.562565 0.973276 0.583399 0.111546
H67   H     H_    0.937562 0.472958 0.416011 0.112128
H68   H     H_    0.062565 0.473276 0.583399 0.111547
H69   H     H_    0.449836 0.997775 0.536323 0.118763
H70   H     H_    0.550416 0.997464 0.462933 0.119462
H71   H     H_    0.949836 0.497775 0.536323 0.118763
H72   H     H_    0.050416 0.497464 0.462933 0.119462
H73   H     H_    0.129160 0.610484 0.445871 0.135109
H74   H     H_    0.272939 0.761038 0.078109 0.108763
H75   H     H_    0.870947 0.610311 0.553975 0.135302
H76   H     H_    0.629160 0.110484 0.445871 0.135109
H77   H     H_    0.370947 0.110311 0.553975 0.135302
H78   H     H_    0.179289 0.735252 0.433770 0.118176
H79   H     H_    0.821188 0.735454 0.565887 0.117551
H80   H     H_    0.679289 0.235252 0.433770 0.118176
H81   H     H_    0.321188 0.235454 0.565887 0.117551
H82   H     H_    0.178519 0.752784 0.551503 0.135261
H83   H     H_    0.821605 0.753106 0.448134 0.135519
H84   H     H_    0.678519 0.252783 0.551503 0.135261
H85   H     H_    0.740523 0.762560 0.910172 0.112865
H86   H     H_    0.321605 0.253106 0.448134 0.135519
H87   H     H_    0.139410 0.616378 0.564186 0.117511
H88   H     H_    0.860661 0.616780 0.435740 0.117730
H89   H     H_    0.639410 0.116378 0.564186 0.117511
H90   H     H_    0.360661 0.116780 0.435740 0.117730
H91   H     H_    0.722304 0.880958 0.454375 0.111649
H92   H     H_    0.277658 0.881275 0.546407 0.112160
H93   H     H_    0.222304 0.380958 0.454375 0.111649
H94   H     H_    0.777658 0.381275 0.546407 0.112160
H95   H     H_    0.698080 0.939082 0.576111 0.110315
H96   H     H_    0.772939 0.261038 0.078109 0.108763
H97   H     H_    0.301841 0.939136 0.424470 0.111165
H98   H     H_    0.198080 0.439082 0.576111 0.110314
H99   H     H_    0.801841 0.439136 0.424470 0.111165
H100  H     H_    0.349609 0.609092 0.413429 0.112091
H101  H     H_    0.650431 0.609096 0.586542 0.111786
H102  H     H_    0.849609 0.109092 0.413429 0.112091
H103  H     H_    0.150431 0.109096 0.586542 0.111786
H104  H     H_    0.296859 0.737936 0.421131 0.110275
H105  H     H_    0.703334 0.738085 0.578228 0.109732
H106  H     H_    0.796859 0.237936 0.421131 0.110275
H107  H     H_    0.240522 0.262559 0.910173 0.112864
H108  H     H_    0.203334 0.238085 0.578228 0.109732
H109  H     H_    0.537065 0.653391 0.933028 0.142445
H110  H     H_    0.469125 0.638810 0.062186 0.142484
H111  H     H_    0.037066 0.153392 0.933028 0.142445
H112  H     H_    0.969126 0.138810 0.062186 0.142484
H113  H     H_    0.338727 0.731613 0.542552 0.112106
H114  H     H_    0.661231 0.730992 0.456878 0.111747
H115  H     H_    0.838727 0.231613 0.542552 0.112106
H116  H     H_    0.161231 0.230992 0.456878 0.111747
H117  H     H_    0.357911 0.582013 0.533901 0.119286
H118  H     H_    0.255570 0.802864 0.954670 0.104325
H119  H     H_    0.642011 0.581365 0.466182 0.118988
H120  H     H_    0.857911 0.082013 0.533901 0.119286
H121  H     H_    0.142011 0.081365 0.466182 0.118988
H122  H     H_    0.289860 0.426457 0.583080 0.113371
H123  H     H_    0.710013 0.426155 0.417528 0.114161
H124  H     H_    0.789860 0.926457 0.583080 0.113371
H125  H     H_    0.210012 0.926155 0.417528 0.114161
H126  H     H_    0.323860 0.453224 0.056360 0.153025
H127  H     H_    0.674386 0.460718 0.947059 0.157221
H128  H     H_    0.823860 0.953224 0.056361 0.153025
I1    I     I_    0.135523 0.796418 0.097954 -0.445159
I2    I     I_    0.882398 0.776813 0.908094 -0.448417
I3    I     I_    0.635523 0.296418 0.097954 -0.445159
I4    I     I_    0.382397 0.276814 0.908094 -0.448417
O1    O     O_R   0.214130 0.708570 0.829890 -0.524270
O2    O     O_R   0.542830 0.717300 0.331620 -0.528710
O3    O     O_R   0.957170 0.217300 0.668380 -0.528910
O4    O     O_R   0.042830 0.217300 0.331620 -0.528710
O5    O     O_R   0.320870 0.624890 0.673130 -0.506406
O6    O     O_R   0.679130 0.624890 0.326870 -0.502928
O7    O     O_R   0.820870 0.124890 0.673130 -0.506406
O8    O     O_R   0.179130 0.124890 0.326870 -0.502928
O9    O     O_3   0.334430 0.834430 0.749680 -0.297362
O10   O     O_3   0.665570 0.834430 0.250320 -0.303652
O11   O     O_3   0.834430 0.334430 0.749680 -0.297362
O12   O     O_R   0.785870 0.708570 0.170110 -0.521183
O13   O     O_3   0.165570 0.334430 0.250320 -0.303652
O14   O     O_R   0.236050 0.959150 0.825270 -0.519932
O15   O     O_R   0.763950 0.959150 0.174730 -0.526762
O16   O     O_R   0.736050 0.459150 0.825270 -0.519932
O17   O     O_R   0.263950 0.459150 0.174730 -0.526762
O18   O     O_R   0.332100 0.076650 0.832310 -0.478772
O19   O     O_R   0.667900 0.076650 0.167690 -0.478688
O20   O     O_R   0.832100 0.576650 0.832310 -0.478772
O21   O     O_R   0.167900 0.576650 0.167690 -0.478688
O22   O     O_R   0.446500 0.918620 0.826240 -0.493766
O23   O     O_R   0.714130 0.208570 0.829890 -0.524270
O24   O     O_R   0.553500 0.918620 0.173760 -0.494319
O25   O     O_R   0.946500 0.418620 0.826240 -0.493766
O26   O     O_R   0.053500 0.418620 0.173760 -0.494319
O27   O     O_R   0.457310 0.715830 0.831280 -0.515205
O28   O     O_R   0.542690 0.715830 0.168720 -0.516320
O29   O     O_R   0.957310 0.215830 0.831280 -0.515205
O30   O     O_R   0.042690 0.215830 0.168720 -0.516320
O31   O     O_R   0.321000 0.623520 0.824130 -0.503585
O32   O     O_R   0.679000 0.623520 0.175870 -0.492248
O33   O     O_R   0.821000 0.123520 0.824130 -0.503585
O34   O     O_R   0.285870 0.208570 0.170110 -0.521183
O35   O     O_R   0.179000 0.123520 0.175870 -0.492248
O36   O     O_R   0.213990 0.710040 0.667000 -0.531473
O37   O     O_R   0.786010 0.710040 0.333000 -0.529655
O38   O     O_R   0.713990 0.210040 0.667000 -0.531473
O39   O     O_R   0.286010 0.210040 0.333000 -0.529655
O40   O     O_R   0.235920 0.960520 0.674260 -0.512520
O41   O     O_R   0.764080 0.960520 0.325740 -0.513101
O42   O     O_R   0.735920 0.460520 0.674260 -0.512520
O43   O     O_R   0.264080 0.460520 0.325740 -0.513102
O44   O     O_R   0.331960 0.078120 0.669410 -0.525946
O45   O     O_R   0.446360 0.919990 0.675230 -0.507093
O46   O     O_R   0.668040 0.078120 0.330590 -0.524468
O47   O     O_R   0.831960 0.578120 0.669410 -0.525946
O48   O     O_R   0.168040 0.578120 0.330590 -0.524468
O49   O     O_R   0.553640 0.919990 0.324770 -0.506685
O50   O     O_R   0.946360 0.419990 0.675230 -0.507093
O51   O     O_R   0.053640 0.419990 0.324770 -0.506685
O52   O     O_R   0.457170 0.717300 0.668380 -0.528910

loop_
_geom_bond_atom_site_label_1
_geom_bond_atom_site_label_2
_ccdc_geom_bond_type
C9    O6    A    
C33   O19   A    
C113  O34   A    
C46   C112  S    
C56   H37   S    
C11   O8    A    
C34   C42   S    
C4    O52   A    
C14   C21   S    
C13   H128  S    
C90   C107  S    
Cr2   O10   S    
C92   H100  S    
C59   H54   S    
C5    C74   S    
Cr9   O19   S    
C36   C53   S    
C89   C106  S    
C70   C74   S    
C91   C100  S    
C51   H46   S    
C85   C103  S    
C108  H97   S    
C82   H77   S    
C59   C60   S    
C60   H50   S    
C69   H59   S    
Cr9   O10   S    
C12   H60   S    
Cr2   O28   S    
Cr1   O1    S    
Cr11  O21   S    
C19   C99   S    
C94   H102  S    
C61   O27   A    
C92   H104  S    
C17   C21   S    
C19   C23   S    
C4    O45   A    
C116  H115  S    
C16   C20   S    
C73   H23   S    
Cr4   O35   S    
C54   H13   S    
C10   O7    A    
C17   H1    S    
C120  O47   A    
C104  C117  S    
C66   C77   S    
C28   H15   S    
C36   H85   S    
C10   O38   A    
C45   C111  S    
C48   H32   S    
C116  H120  S    
C105  H98   S    
Cr12  O52   S    
C103  C116  S    
C90   H91   S    
C79   H73   S    
Cr7   O34   S    
C27   H9    S    
C62   O24   A    
Cr8   O9    S    
C88   C99   S    
C72   H25   S    
C2    C40   S    
C79   C96   S    
C81   C98   S    
C55   O17   A    
C58   H48   S    
Cr8   O45   S    
C91   H92   S    
C52   H118  S    
C34   H39   S    
C44   O20   A    
C79   H78   S    
Cr8   O44   S    
C80   C97   S    
C50   H30   S    
C84   C102  S    
C3    O48   A    
C110  H4    S    
Cr8   O18   S    
C89   H94   S    
C56   H24   S    
C86   C104  S    
C29   H16   S    
C31   C40   S    
C28   C46   S    
C34   C51   S    
C29   C47   S    
C30   C48   S    
C110  H126  S    
C43   C52   S    
C15   C25   S    
C114  H113  S    
C115  H119  S    
C12   C22   S    
C92   C96   S    
Cr1   O36   S    
C64   O26   A    
C86   H86   S    
C99   H112  S    
C84   H88   S    
C15   H62   S    
C117  H121  S    
C37   H96   S    
C8    O36   A    
C93   H105  S    
C119  O46   A    
C107  H95   S    
C32   C41   S    
C5    O49   A    
C115  H114  S    
Cr5   O37   S    
C2    H127  S    
C45   C53   S    
C108  H125  S    
Cr3   O33   S    
Cr4   O30   S    
Cr3   O11   S    
C89   H27   S    
C60   C78   S    
C109  O1    A    
C109  O31   A    
C61   O22   A    
C114  H117  S    
C62   O28   A    
C65   C74   S    
C25   C64   S    
C69   C72   S    
C67   H69   S    
C82   H81   S    
C83   H87   S    
C35   H74   S    
C87   C105  S    
Cr12  O27   S    
C111  O12   A    
C30   H40   S    
C11   C104  S    
C16   C23   S    
C23   C88   S    
C67   C75   S    
Cr3   O29   S    
C93   C97   S    
C35   C52   S    
C83   H82   S    
Cr2   O2    S    
C71   H66   S    
C117  H116  S    
Cr3   O7    S    
Cr4   O8    S    
C119  O41   A    
C18   C22   S    
C54   H36   S    
C19   H52   S    
C103  C107  S    
C7    C76   S    
C66   H109  S    
Cr9   O49   S    
C18   C66   S    
C67   C70   S    
C13   H6    S    
C48   H43   S    
C72   H67   S    
C57   C58   S    
C44   O16   A    
Cr12  O9    S    
Cr10  O25   S    
C30   C39   S    
Cr5   O41   S    
C40   C44   S    
C38   C56   S    
C43   C109  S    
C85   H89   S    
C59   C76   S    
C81   C85   S    
C47   C56   S    
C31   H42   S    
Cr10  O50   S    
C24   C42   S    
C80   C84   S    
C118  O44   A    
C13   C41   S    
C34   H18   S    
Cr2   O32   S    
C15   C19   S    
C10   C103  S    
C26   H8    S    
C21   C66   S    
C68   H72   S    
C20   C25   S    
C94   C98   S    
C29   H11   S    
C73   H68   S    
C55   O21   A    
C106  H99   S    
C59   H49   S    
C24   C29   S    
C4    C75   S    
C102  C115  S    
C25   C99   S    
C39   C55   S    
C65   H70   S    
C9    C102  S    
C12   C17   S    
C13   C28   S    
C51   H31   S    
C2    C27   S    
C112  O23   A    
C83   C101  S    
C8    C101  S    
C20   H63   S    
C21   C61   S    
C84   H83   S    
C27   C45   S    
C23   C63   S    
C65   H56   S    
C5    O2    A    
C113  O35   A    
C58   H53   S    
C101  C114  S    
C105  H122  S    
C31   C49   S    
Cr5   O10   S    
C24   H7    S    
Cr1   O40   S    
C50   H45   S    
Cr1   O14   S    
C85   H84   S    
Cr12  O5    S    
C57   H47   S    
C94   C116  S    
C95   C100  S    
C47   C51   S    
C93   H101  S    
C82   C86   S    
C95   C117  S    
C36   I2    S    
C35   C39   S    
C49   H33   S    
C16   H64   S    
C6    O50   A    
Cr6   O38   S    
C68   H58   S    
Cr7   O43   S    
C46   C54   S    
C17   C77   S    
Cr7   O13   S    
C81   H76   S    
C14   H61   S    
C60   H55   S    
C100  C118  S    
C104  C108  S    
C47   C113  S    
C2    H5    S    
C91   C108  S    
C53   H2    S    
C22   C77   S    
Cr4   O13   S    
C38   C42   S    
Cr11  O48   S    
Cr12  O31   S    
C33   C41   S    
C35   I1    S    
C1    O14   A    
C79   C83   S    
C27   H14   S    
C20   C88   S    
C7    O51   A    
Cr4   O4    S    
C95   H108  S    
C90   H28   S    
Cr1   O9    S    
Cr11  O13   S    
C6    C78   S    
Cr2   O6    S    
Cr3   O3    S    
C1    C42   S    
C81   H80   S    
C6    O3    A    
C120  O42   A    
C91   H29   S    
C49   H44   S    
Cr5   O12   S    
Cr6   O11   S    
C14   C18   S    
C63   O29   A    
C72   C76   S    
C98   C119  S    
Cr6   O42   S    
Cr7   O39   S    
C1    O18   A    
C15   C16   S    
C71   H21   S    
C93   C115  S    
Cr10  O20   S    
C52   H34   S    
C38   H107  S    
C94   H106  S    
C39   C110  S    
C32   H17   S    
C87   H93   S    
Cr11  O51   S    
C73   C78   S    
C3    C96   S    
C45   C49   S    
C43   C48   S    
C26   C110  S    
Cr6   O23   S    
C37   C41   S    
C69   C78   S    
C95   H103  S    
C26   H12   S    
C53   H35   S    
C58   C75   S    
Cr10  O47   S    
C101  C105  S    
C77   H110  S    
C36   C40   S    
C88   H111  S    
Cr5   O15   S    
C68   C73   S    
C65   C71   S    
Cr6   O16   S    
C89   C97   S    
C57   C74   S    
C37   I3    S    
C9    O37   A    
C8    O5    A    
C38   I4    S    
C22   C62   S    
C11   O39   A    
C87   C96   S    
C118  O40   A    
C68   C76   S    
C32   C50   S    
C80   H79   S    
C37   C54   S    
C24   H3    S    
C26   C43   S    
C12   C14   S    
C69   H71   S    
C70   H65   S    
C28   H10   S    
C57   H51   S    
C33   O15   A    
C32   H38   S    
C111  O32   A    
Cr11  O26   S    
C70   H22   S    
C82   C100  S    
C106  H123  S    
Cr9   O24   S    
Cr9   O46   S    
C67   H57   S    
C46   C50   S    
C112  O33   A    
C87   H26   S    
Cr7   O17   S    
C97   C120  S    
Cr8   O22   S    
C71   C75   S    
C31   H20   S    
C30   H19   S    
C107  H124  S    
C102  C106  S    
C7    O4    A    
C18   H41   S    
C80   H75   S    
C63   O25   A    
C3    O43   A    
C64   O30   A    
C86   H90   S    
Cr10  O11   S    
C92   C114  S    
C90   C98   S    
