data_str_m2_o16_o22_f0_pcu.sym.133
_audit_creation_date              2012-12-10T17:35:34-0500
_audit_creation_method            fapswitch 2.2
_symmetry_space_group_name_H-M    P1
_symmetry_Int_Tables_number       1
_space_group_crystal_system       triclinic
_cell_length_a                    10.718266
_cell_length_b                    12.346142
_cell_length_c                    13.158772
_cell_angle_alpha                 116.607636
_cell_angle_beta                  77.656135
_cell_angle_gamma                 100.621988
_cell_volume                      1513.04450521

loop_
_atom_site_label
_atom_site_type_symbol
_atom_type_description
_atom_site_fract_x
_atom_site_fract_y
_atom_site_fract_z
_atom_type_partial_charge
C1    C     C_R   0.512540 0.854974 0.286511 0.787002
C2    C     C_3   0.121627 0.995460 0.496420 0.055058
C3    C     C_3   0.068130 0.109230 0.598933 -0.350470
C4    C     C_3   0.045000 0.880415 0.508320 -0.394966
C5    C     C_R   0.327597 0.279653 0.021923 -0.158010
C6    C     C_R   0.456305 0.228084 0.835064 -0.044738
C7    C     C_R   0.606853 0.812359 0.085956 -0.183874
C8    C     C_R   0.638057 0.731768 0.972062 -0.137395
C9    C     C_R   0.591923 0.609385 0.934530 -0.154262
C10   C     C_R   0.508357 0.565312 0.010124 0.105796
C11   C     C_R   0.466152 0.650547 0.123302 0.102213
C12   C     C_R   0.739574 0.997812 0.498463 0.794077
C13   C     C_R   0.464040 0.439823 0.976863 0.105233
C14   C     C_R   0.372086 0.403042 0.053635 0.163551
C15   C     C_R   0.322243 0.489974 0.159673 -0.189468
C16   C     C_R   0.366379 0.611988 0.193017 -0.192737
C17   C     C_R   0.507763 0.349393 0.869228 -0.190774
C18   C     C_R   0.368827 0.192507 0.912660 -0.187730
C19   C     C_R   0.524002 0.772588 0.163265 -0.073392
C20   C     C_R   0.683466 0.331123 0.309298 -0.198231
C21   C     C_R   0.331082 0.765423 0.650264 0.010955
C22   C     C_R   0.283214 0.666725 0.675163 -0.291034
C23   C     C_R   0.481446 0.144960 0.713441 0.806854
C24   C     C_R   0.331739 0.553961 0.607791 0.442939
C25   C     C_R   0.446605 0.546066 0.526694 -0.129581
C26   C     C_R   0.487835 0.649500 0.501669 0.179895
C27   C     C_R   0.520958 0.442229 0.467270 -0.048855
C28   C     C_R   0.617015 0.435796 0.371663 0.030283
C29   C     C_R   0.648086 0.535827 0.343430 0.367513
C30   C     C_R   0.590076 0.642020 0.413219 -0.203520
C31   C     C_R   0.510284 0.347323 0.502378 0.055364
C32   C     C_R   0.658991 0.236694 0.342892 0.057027
C33   C     C_R   0.260358 0.998666 0.497809 0.770205
C34   C     C_3   0.955422 0.988609 0.381740 -0.442438
C35   C     C_3   0.099961 0.991328 0.381908 -0.380079
C36   C     C_3   0.926531 0.113056 0.595761 -0.362504
C37   C     C_3   0.900552 0.880764 0.511594 0.268242
C38   C     C_3   0.876937 0.994748 0.497801 0.049612
Cu1   Cu    Cu3+1 0.529690 0.098270 0.475420 0.948835
Cu2   Cu    Cu3+1 0.470310 0.901730 0.524580 0.957802
H1    H     H_    0.940091 0.066804 0.366835 0.206723
H2    H     H_    0.061628 0.877068 0.587523 0.188681
H3    H     H_    0.868015 0.126119 0.680344 0.161714
H4    H     H_    0.077854 0.109342 0.681531 0.160826
H5    H     H_    0.327927 0.098717 0.887156 0.145289
H6    H     H_    0.247810 0.463692 0.216906 0.173798
H7    H     H_    0.257466 0.251204 0.080244 0.145870
H8    H     H_    0.580150 0.370671 0.808474 0.143425
H9    H     H_    0.651002 0.905394 0.114337 0.150304
H10   H     H_    0.621869 0.552643 0.845243 0.136591
H11   H     H_    0.701903 0.763607 0.913063 0.157706
H12   H     H_    0.922814 0.903889 0.309326 0.183301
H13   H     H_    0.318590 0.675634 0.273157 0.169844
H14   H     H_    0.708060 0.155440 0.293144 0.123343
H15   H     H_    0.755096 0.320742 0.234998 0.211224
H16   H     H_    0.452865 0.353287 0.581445 0.184086
H17   H     H_    0.286858 0.849650 0.697978 0.141113
H18   H     H_    0.199783 0.675857 0.740478 0.190074
H19   H     H_    0.627422 0.718365 0.395347 0.240669
H20   H     H_    0.137945 0.909076 0.308185 0.162601
H21   H     H_    0.152507 0.071858 0.369523 0.207765
H22   H     H_    0.917753 0.193466 0.581377 0.226098
H23   H     H_    0.123599 0.191962 0.595187 0.262229
H24   H     H_    0.869134 0.797412 0.437302 0.180010
H25   H     H_    0.079534 0.796567 0.434304 0.171630
N1    N     N_R   0.574690 0.246280 0.438200 -0.193394
N2    N     N_R   0.426100 0.754320 0.561190 -0.185798
O1    O     O_R   0.537340 0.972510 0.318130 -0.591059
O2    O     O_R   0.487200 0.806530 0.359650 -0.594300
O3    O     O_R   0.707380 0.082980 0.479220 -0.588791
O4    O     O_R   0.657240 0.917000 0.520740 -0.553025
O5    O     O_R   0.512800 0.193470 0.640350 -0.579069
O6    O     O_R   0.462660 0.027490 0.681870 -0.583738
O7    O     O_R   0.342760 0.083000 0.479260 -0.591961
O8    O     O_R   0.292620 0.917020 0.520780 -0.597920
S1    S     S_3+6 0.763215 0.535220 0.223832 -0.038486
O9    O     O_2   0.893062 0.522072 0.240659 -0.307950
O10   O     O_2   0.725927 0.429674 0.116181 -0.299416
O11   O     O_3   0.770575 0.665257 0.209691 -0.591402
H26   H     H_    0.825761 0.651463 0.135124 0.381230
S2    S     S_3+6 0.221384 0.427577 0.604826 -0.043641
O12   O     O_2   0.248460 0.383745 0.686971 -0.366848
O13   O     O_2   0.086760 0.463797 0.642370 -0.262800
O14   O     O_3   0.229715 0.317947 0.469439 -0.552822
H27   H     H_    0.274475 0.254295 0.467881 0.354240
O15   O     O_3   0.828667 0.873785 0.612042 -0.710447
H28   H     H_    0.863184 0.940966 0.679649 0.328090

loop_
_geom_bond_atom_site_label_1
_geom_bond_atom_site_label_2
_ccdc_geom_bond_type
C2    C35   S    
C31   N1    A    
Cu2   O4    S    
Cu1   O1    S    
S1    O11   S    
S2    O14   S    
S2    O12   D    
C7    C8    A    
C29   S1    S    
C5    H7    S    
C11   C19   A    
C29   C30   A    
C26   N2    A    
C28   C29   A    
S1    O10   D    
C4    H25   S    
C15   C16   A    
C1    O1    A    
Cu2   O6    S    
C34   C35   S    
Cu1   O7    S    
C16   H13   S    
O14   H27   S    
C33   O8    A    
C8    C9    A    
Cu2   N2    S    
Cu1   O5    S    
C17   H8    S    
C31   H16   S    
C9    C10   A    
C21   C22   A    
C21   N2    A    
C34   H1    S    
C23   O6    A    
C20   H15   S    
C36   H22   S    
C32   H14   S    
S2    O13   D    
C6    C18   A    
C3    H4    S    
C1    C19   S    
Cu2   O2    S    
C27   C31   A    
C37   O15   S    
C24   C25   A    
C7    H9    S    
Cu1   Cu2   S    
O15   H28   S    
C5    C18   A    
C20   C28   A    
C25   C26   A    
C1    O2    A    
C35   H20   S    
C2    C4    S    
C24   S2    S    
C21   H17   S    
C37   C38   S    
C11   C16   A    
C30   H19   S    
C35   H21   S    
S1    O9    D    
C8    H11   S    
C5    C14   A    
C2    C33   S    
C12   O4    A    
C26   C30   A    
C7    C19   A    
Cu1   N1    S    
C22   C24   A    
C18   H5    S    
C37   H24   S    
C32   N1    A    
C20   C32   A    
C6    C17   A    
C12   O3    A    
C34   C38   S    
C23   O5    A    
C9    H10   S    
C10   C13   A    
C22   H18   S    
C3    H23   S    
C25   C27   A    
C34   H12   S    
Cu2   O8    S    
C13   C17   A    
C36   C38   S    
C2    C3    S    
C4    H2    S    
C3    C36   S    
C6    C23   S    
Cu1   O3    S    
C12   C38   S    
C10   C11   A    
O11   H26   S    
C33   O7    A    
C4    C37   S    
C27   C28   A    
C14   C15   A    
C36   H3    S    
C15   H6    S    
C13   C14   A    
