data_str_m3_o14_o18_f0_pcu.sym.144
_audit_creation_date              2012-12-10T17:44:30-0500
_audit_creation_method            fapswitch 2.2
_symmetry_space_group_name_H-M    P1
_symmetry_Int_Tables_number       1
_space_group_crystal_system       triclinic
_cell_length_a                    9.971249
_cell_length_b                    10.632274
_cell_length_c                    15.323094
_cell_angle_alpha                 93.036561
_cell_angle_beta                  67.607014
_cell_angle_gamma                 90.072724
_cell_volume                      1499.58577574

loop_
_atom_site_label
_atom_site_type_symbol
_atom_type_description
_atom_site_fract_x
_atom_site_fract_y
_atom_site_fract_z
_atom_type_partial_charge
C1    C     C_R   0.500701 0.739184 0.498922 0.883152
C2    C     C_R   0.446260 0.429001 0.895962 0.102642
C3    C     C_R   0.356712 0.322788 0.922415 0.136089
C4    C     C_R   0.552655 0.451644 0.934698 0.065915
C5    C     C_R   0.542487 0.390797 0.016395 0.074432
C6    C     C_R   0.454851 0.283437 0.040387 -0.179000
C7    C     C_R   0.364575 0.249081 0.993055 -0.219264
C8    C     C_R   0.675461 0.524496 0.889898 -0.151803
C9    C     C_R   0.774939 0.549331 0.931721 -0.231067
C10   C     C_R   0.745930 0.514157 0.024039 0.076760
C11   C     C_R   0.623298 0.438764 0.069371 0.059832
C12   C     C_R   0.408461 0.498199 0.676288 0.887612
C13   C     C_R   0.832242 0.557678 0.073816 0.099819
C14   C     C_R   0.784533 0.542941 0.170587 -0.213067
C15   C     C_R   0.573966 0.428653 0.168340 0.049116
C16   C     C_R   0.703201 0.852408 0.334048 -0.178953
C17   C     C_R   0.799935 0.909158 0.255431 -0.237202
C18   C     C_R   0.800765 0.039517 0.252674 -0.191795
C19   C     C_R   0.705132 0.114054 0.328482 0.571455
C20   C     C_R   0.606838 0.057925 0.410020 -0.031704
C21   C     C_R   0.606111 0.925935 0.412180 0.033283
C22   C     C_R   0.504875 0.870985 0.491957 -0.066191
C23   C     C_R   0.502433 0.260545 0.495800 0.956585
C24   C     C_R   0.403731 0.941847 0.566715 -0.158467
C25   C     C_R   0.404379 0.070208 0.565318 -0.215181
C26   C     C_R   0.505912 0.127607 0.489053 -0.091093
C27   C     C_R   0.789407 0.675967 0.616667 -0.290600
C28   C     C_R   0.820730 0.764828 0.674972 0.544397
C29   C     C_R   0.955541 0.764025 0.679626 -0.351629
C30   C     C_R   0.061070 0.675939 0.625149 0.546555
C31   C     C_R   0.036403 0.586493 0.559986 0.037292
C32   C     C_R   0.893188 0.586760 0.558110 0.033858
C33   C     C_R   0.961316 0.416985 0.444324 -0.074631
C34   C     C_R   0.591352 0.496108 0.323257 0.923011
C35   C     C_R   0.103941 0.417098 0.444269 -0.121186
C36   C     C_R   0.353624 0.463866 0.774496 -0.089186
C37   C     C_R   0.651273 0.487604 0.219252 -0.094915
C38   C     C_R   0.263780 0.290149 0.875792 -0.193021
C39   C     C_R   0.267329 0.357164 0.799171 -0.229771
C40   C     C_R   0.425682 0.509002 0.831885 0.002633
H1    H     H_    0.299881 0.165486 0.012404 0.152747
H2    H     H_    0.326131 0.897631 0.627105 0.185933
H3    H     H_    0.704171 0.750820 0.332352 0.148263
H4    H     H_    0.873420 0.851721 0.196035 0.173821
H5    H     H_    0.874990 0.083220 0.190865 0.164310
H6    H     H_    0.327227 0.125362 0.624834 0.144799
H7    H     H_    0.934776 0.348844 0.398696 0.168321
H8    H     H_    0.681511 0.679178 0.620654 0.233671
H9    H     H_    0.978246 0.831168 0.727680 0.199743
H10   H     H_    0.183402 0.348593 0.398998 0.138820
H11   H     H_    0.847641 0.582883 0.208867 0.168229
H12   H     H_    0.868826 0.603788 0.893584 0.159199
H13   H     H_    0.196888 0.207672 0.893967 0.148846
H14   H     H_    0.210377 0.321097 0.755703 0.160229
H15   H     H_    0.460860 0.221013 0.092234 0.179198
H16   H     H_    0.699629 0.557610 0.820108 0.173630
N1    N     N_R   0.856800 0.501200 0.500850 -0.088118
N2    N     N_R   0.142390 0.501280 0.500880 -0.090053
O1    O     O_R   0.385310 0.683220 0.500000 -0.542597
O2    O     O_R   0.614640 0.683250 0.500010 -0.648837
O3    O     O_R   0.319840 0.499980 0.632240 -0.531997
O4    O     O_R   0.549160 0.500000 0.632250 -0.640707
O5    O     O_R   0.385360 0.316750 0.499990 -0.635505
O6    O     O_R   0.614690 0.316780 0.500000 -0.570654
O7    O     O_R   0.450840 0.500000 0.367750 -0.637535
O8    O     O_R   0.680160 0.500020 0.367760 -0.579078
Zn1   Zn    Zn3+2 0.346880 0.499980 0.499990 0.993490
Zn2   Zn    Zn3+2 0.653120 0.500020 0.500010 0.976988
N3    N     N_3   0.964615 0.623282 0.029282 -0.466592
H17   H     H_    0.941148 0.706608 0.004196 0.183059
H18   H     H_    0.033977 0.566357 0.972201 0.203507
F1    F     F_    0.708024 0.239935 0.319288 -0.708467
F2    F     F_    0.717936 0.850191 0.729364 -0.655318
N4    N     N_3   0.437772 0.370306 0.217386 -0.479869
H19   H     H_    0.357847 0.439535 0.251035 0.215174
H20   H     H_    0.448305 0.308210 0.265206 0.212528
F3    F     F_    0.181223 0.680890 0.643579 -0.662442
N5    N     N_3   0.460078 0.639934 0.834371 -0.434951
H21   H     H_    0.363056 0.692224 0.855656 0.201236
H22   H     H_    0.524004 0.664870 0.766690 0.212266

loop_
_geom_bond_atom_site_label_1
_geom_bond_atom_site_label_2
_ccdc_geom_bond_type
C27   H8    S    
O8    Zn2   S    
C16   C21   A    
C34   C37   S    
C24   H2    S    
C19   C20   A    
C6    H15   S    
C4    C8    A    
C8    H16   S    
C29   H9    S    
N4    H20   S    
C35   N2    A    
O6    Zn2   S    
C31   N2    A    
C28   C29   A    
C5    C11   A    
C3    C7    A    
C1    O1    A    
C30   C31   A    
N5    H22   S    
C39   H14   S    
C18   C19   A    
C23   C26   S    
N3    H18   S    
C15   C37   A    
O1    Zn1   S    
C30   F3    S    
C11   C15   A    
C14   H11   S    
C3    C38   A    
C8    C9    A    
O7    Zn1   S    
C12   C36   S    
C9    C10   A    
C23   O5    A    
C1    C22   S    
C13   C14   A    
C34   O8    A    
C19   F1    S    
C9    H12   S    
C32   N1    A    
C28   F2    S    
C34   O7    A    
C38   C39   A    
O5    Zn1   S    
N4    H19   S    
C36   C40   A    
C24   C25   A    
C1    O2    A    
N5    H21   S    
C16   C17   A    
C25   C26   A    
C2    C4    A    
C29   C30   A    
C12   O4    A    
O3    Zn1   S    
C31   C32   A    
C35   H10   S    
C17   C18   A    
C16   H3    S    
C23   O6    A    
C33   H7    S    
C40   N5    S    
N1    Zn2   S    
C18   H5    S    
C33   N1    A    
C27   C32   A    
C36   C39   A    
C4    C5    A    
C10   C13   A    
C6    C7    A    
O4    Zn2   S    
C13   N3    S    
C2    C3    A    
C17   H4    S    
C14   C37   A    
C12   O3    A    
C5    C6    A    
C38   H13   S    
C20   C26   A    
C33   C35   A    
C22   C24   A    
C7    H1    S    
N3    H17   S    
C10   C11   A    
C2    C40   A    
N2    Zn1   S    
C15   N4    S    
C20   C21   A    
O2    Zn2   S    
C27   C28   A    
C21   C22   A    
C25   H6    S    
