data_str_m2_o10_o17_f0_pcu.sym.4
_audit_creation_date              2012-10-26T19:40:07-0400
_audit_creation_method            fapswitch 2.2
_symmetry_space_group_name_H-M    P1
_symmetry_Int_Tables_number       1
_space_group_crystal_system       triclinic
_cell_length_a                    15.005943
_cell_length_b                    8.673182
_cell_length_c                    7.451942
_cell_angle_alpha                 102.907279
_cell_angle_beta                  94.074927
_cell_angle_gamma                 92.512249
_cell_volume                      941.189525774

loop_
_atom_site_label
_atom_site_type_symbol
_atom_type_description
_atom_site_fract_x
_atom_site_fract_y
_atom_site_fract_z
_atom_type_partial_charge
C1    C     C_R   0.497381 0.199767 0.453290 0.537559
C2    C     C_R   0.179719 0.350892 0.418141 -0.012328
C3    C     C_R   0.767074 0.511271 0.493914 0.019952
C4    C     C_R   0.232925 0.488728 0.506083 0.019951
C5    C     C_R   0.805151 0.373742 0.407570 -0.134970
C6    C     C_R   0.194848 0.626256 0.592424 -0.134980
C7    C     C_R   0.897865 0.365013 0.414032 0.015254
C8    C     C_R   0.102134 0.634986 0.585940 0.015252
C9    C     C_R   0.953031 0.502302 0.499589 0.001861
C10   C     C_R   0.046968 0.497698 0.500383 0.001860
C11   C     C_R   0.914392 0.644248 0.584388 -0.006314
C12   C     C_R   0.502619 0.800233 0.546710 0.537558
C13   C     C_R   0.085608 0.355753 0.415579 -0.006308
C14   C     C_R   0.936928 0.222939 0.334300 0.239932
C15   C     C_R   0.063071 0.777064 0.665642 0.239945
C16   C     C_3   0.777577 0.801447 0.666363 -0.387379
C17   C     C_3   0.222423 0.198555 0.333615 -0.387376
C18   C     C_R   0.029258 0.221411 0.331427 -0.050174
C19   C     C_R   0.970742 0.778593 0.668515 -0.050174
C20   C     C_2   0.495938 0.031824 0.427015 -0.160330
C21   C     C_2   0.504062 0.968176 0.572985 -0.160329
C22   C     C_R   0.329204 0.495979 0.502056 0.540786
C23   C     C_R   0.670796 0.504021 0.497943 0.540786
C24   C     C_R   0.820281 0.649109 0.581838 -0.012335
Cu1   Cu    Cu3+1 0.510010 0.517380 0.684380 0.959983
Cu2   Cu    Cu3+1 0.489990 0.482620 0.315620 0.959983
H1    H     H_    0.760730 0.273405 0.337211 0.122751
H2    H     H_    0.796856 0.835600 0.817235 0.159137
H3    H     H_    0.800250 0.897658 0.600658 0.120983
H4    H     H_    0.296415 0.206842 0.353107 0.146842
H5    H     H_    0.199741 0.102340 0.399303 0.120991
H6    H     H_    0.203154 0.164413 0.182738 0.159124
H7    H     H_    0.838214 0.072255 0.335678 0.314325
H8    H     H_    0.161790 0.927723 0.664214 0.314323
H9    H     H_    0.239268 0.726594 0.662797 0.122755
H10   H     H_    0.055943 0.111057 0.265444 0.159139
H11   H     H_    0.944056 0.888951 0.734472 0.159140
H12   H     H_    0.488148 0.960233 0.286363 0.137663
H13   H     H_    0.511852 0.039767 0.713637 0.137664
H14   H     H_    0.430044 0.377662 0.948659 0.242042
H15   H     H_    0.569956 0.622338 0.051340 0.242042
H16   H     H_    0.703586 0.793156 0.646892 0.146844
N1    N     N_2   0.474890 0.456420 0.038520 -0.253180
N2    N     N_2   0.525110 0.543580 0.961480 -0.253179
O1    O     O_R   0.506510 0.286130 0.619770 -0.504376
O2    O     O_3   0.112272 0.917362 0.742476 -0.708308
O3    O     O_R   0.493490 0.713870 0.380230 -0.504376
O4    O     O_R   0.489600 0.256770 0.308360 -0.503361
O5    O     O_R   0.510400 0.743230 0.691640 -0.503361
O6    O     O_R   0.378710 0.514640 0.655720 -0.503120
O7    O     O_R   0.621290 0.485360 0.344280 -0.503119
O8    O     O_R   0.361800 0.485290 0.344300 -0.494375
O9    O     O_R   0.638200 0.514710 0.655700 -0.494374
O10   O     O_3   0.887726 0.082644 0.257412 -0.708303

loop_
_geom_bond_atom_site_label_1
_geom_bond_atom_site_label_2
_ccdc_geom_bond_type
C16   H2    S    
C2    C4    A    
N1    N2    D    
C1    O4    A    
H8    O2    S    
Cu2   O8    S    
C4    C22   S    
C9    C10   A    
C14   C18   A    
C23   O7    A    
C21   H13   S    
Cu2   O4    S    
C22   O6    A    
C11   C19   A    
C12   O5    A    
C16   H3    S    
C16   C24   S    
Cu2   O7    S    
C6    H9    S    
C2    C17   S    
C15   C19   A    
C17   H4    S    
C9    C11   A    
C1    O1    A    
C3    C24   A    
C18   H10   S    
C13   C18   A    
C12   O3    A    
Cu2   O3    S    
Cu1   N2    S    
C8    C10   A    
C14   O10   S    
Cu1   O9    S    
Cu2   N1    S    
C23   O9    A    
C8    C15   A    
C7    C9    A    
C7    C14   A    
C17   H5    S    
H15   N2    S    
Cu1   O5    S    
C17   H6    S    
Cu1   O1    S    
C11   C24   A    
C20   H12   S    
C20   C21   D    
C4    C6    A    
H7    O10   S    
C5    C7    A    
C2    C13   A    
Cu1   O6    S    
C1    C20   S    
C6    C8    A    
C19   H11   S    
C15   O2    S    
C22   O8    A    
Cu1   Cu2   S    
C5    H1    S    
C16   H16   S    
C3    C23   S    
C12   C21   S    
H14   N1    S    
C3    C5    A    
C10   C13   A    
