data_str_m2_o16_o18_f0_pcu.sym.268
_audit_creation_date              2012-12-10T17:33:03-0500
_audit_creation_method            fapswitch 2.2
_symmetry_space_group_name_H-M    P1
_symmetry_Int_Tables_number       1
_space_group_crystal_system       triclinic
_cell_length_a                    12.369775
_cell_length_b                    13.29153
_cell_length_c                    14.389445
_cell_angle_alpha                 93.691841
_cell_angle_beta                  108.263726
_cell_angle_gamma                 116.719991
_cell_volume                      1947.06096022

loop_
_atom_site_label
_atom_site_type_symbol
_atom_type_description
_atom_site_fract_x
_atom_site_fract_y
_atom_site_fract_z
_atom_type_partial_charge
C1    C     C_R   0.651576 0.714257 0.509638 0.802432
C2    C     C_R   0.823145 0.460650 0.913599 0.104397
C3    C     C_R   0.747069 0.436392 0.972851 0.030581
C4    C     C_R   0.931516 0.440960 0.941207 0.031675
C5    C     C_R   0.984086 0.429075 0.039853 -0.005437
C6    C     C_R   0.904557 0.403650 0.098493 0.149096
C7    C     C_R   0.787075 0.406036 0.063240 -0.185270
C8    C     C_R   0.980827 0.422321 0.869763 -0.202292
C9    C     C_R   0.094381 0.413665 0.897497 0.141597
C10   C     C_R   0.161950 0.424470 0.999559 0.152540
C11   C     C_R   0.109794 0.437116 0.071957 0.043994
C12   C     C_R   0.616241 0.512899 0.686593 0.812084
C13   C     C_R   0.281438 0.423766 0.031017 -0.176250
C14   C     C_R   0.352177 0.441333 0.132813 -0.216727
C15   C     C_R   0.189637 0.466199 0.174427 -0.251616
C16   C     C_R   0.179181 0.959829 0.416979 -0.200556
C17   C     C_R   0.258778 0.163325 0.478810 -0.044087
C18   C     C_R   0.738402 0.920392 0.584663 -0.291155
C19   C     C_R   0.845163 0.032532 0.626989 0.231379
C20   C     C_R   0.958174 0.064059 0.606421 0.136156
C21   C     C_R   0.956620 0.988072 0.529889 -0.022529
C22   C     C_R   0.847628 0.873639 0.488621 0.053513
C23   C     C_R   0.346973 0.285630 0.487559 0.798901
C24   C     C_R   0.060752 0.019036 0.495117 0.084048
C25   C     C_R   0.068101 0.932066 0.439346 0.174460
C26   C     C_R   0.960028 0.821345 0.399157 -0.234931
C27   C     C_R   0.847399 0.796334 0.415994 -0.170498
C28   C     C_R   0.150606 0.134417 0.504979 -0.271169
C29   C     C_R   0.276733 0.075199 0.440330 -0.205160
C30   C     C_R   0.743094 0.838154 0.522661 -0.137004
C31   C     C_R   0.261317 0.691074 0.663788 0.057802
C32   C     C_R   0.658601 0.339687 0.362749 0.338160
C33   C     C_R   0.742020 0.307522 0.339476 -0.223949
C34   C     C_R   0.380402 0.482241 0.313264 0.783822
C35   C     C_R   0.873765 0.364246 0.396360 -0.258524
C36   C     C_R   0.930744 0.463758 0.472757 0.010037
C37   C     C_R   0.845034 0.497485 0.495827 0.250657
C38   C     C_R   0.070311 0.529936 0.526832 -0.059120
C39   C     C_R   0.123828 0.627765 0.606834 0.139343
C40   C     C_R   0.038898 0.660222 0.627527 -0.273091
C41   C     C_R   0.904141 0.597173 0.573429 -0.207792
C42   C     C_R   0.159503 0.503292 0.503369 -0.015526
C43   C     C_R   0.341930 0.657865 0.636489 0.037004
C44   C     C_R   0.666420 0.499067 0.790597 -0.100190
C45   C     C_R   0.307578 0.464329 0.205338 -0.043617
C46   C     C_R   0.630107 0.440153 0.939979 -0.251401
C47   C     C_R   0.586391 0.466258 0.847464 0.133448
C48   C     C_R   0.790731 0.506766 0.830103 0.053633
Cu1   Cu    Cu3+1 0.416420 0.526630 0.522910 0.939852
Cu2   Cu    Cu3+1 0.583580 0.473370 0.477090 0.909438
H1    H     H_    0.726142 0.383218 0.107179 0.153781
H2    H     H_    0.321289 0.410113 0.977391 0.150548
H3    H     H_    0.361657 0.095688 0.422725 0.167554
H4    H     H_    0.959339 0.756389 0.349001 0.144860
H5    H     H_    0.188301 0.893012 0.378445 0.138404
H6    H     H_    0.132210 0.202251 0.526529 0.161023
H7    H     H_    0.656411 0.894506 0.607989 0.159786
H8    H     H_    0.760838 0.715066 0.371337 0.172576
H9    H     H_    0.446922 0.704680 0.678424 0.127466
H10   H     H_    0.163634 0.495026 0.231251 0.159861
H11   H     H_    0.074824 0.734615 0.687101 0.171252
H12   H     H_    0.128286 0.433475 0.441689 0.128023
H13   H     H_    0.928214 0.327809 0.377231 0.153852
H14   H     H_    0.705005 0.235999 0.276564 0.175889
H15   H     H_    0.849365 0.626815 0.599310 0.207198
H16   H     H_    0.443363 0.439691 0.154734 0.145314
H17   H     H_    0.569675 0.418457 0.984272 0.135743
H18   H     H_    0.927380 0.407935 0.790460 0.152339
N1    N     N_R   0.290690 0.566960 0.557640 -0.190188
N2    N     N_R   0.709100 0.433710 0.442970 -0.225021
O1    O     O_R   0.545970 0.684450 0.528810 -0.580760
O2    O     O_R   0.687130 0.639470 0.490120 -0.604746
O3    O     O_R   0.519670 0.535100 0.660030 -0.540385
O4    O     O_R   0.660830 0.490120 0.621340 -0.607320
O5    O     O_R   0.312870 0.360530 0.509880 -0.582541
O6    O     O_R   0.454030 0.315550 0.471190 -0.594213
O7    O     O_R   0.339170 0.509880 0.378660 -0.583641
O8    O     O_R   0.480330 0.464900 0.339970 -0.613174
N3    N     N_3   0.076492 0.163511 0.676197 -0.560870
H19   H     H_    0.158100 0.152843 0.688180 0.225443
H20   H     H_    0.087876 0.238440 0.651453 0.218318
N4    N     N_3   0.845098 0.112720 0.699002 -0.543722
H21   H     H_    0.757068 0.075076 0.710266 0.201582
H22   H     H_    0.849351 0.182615 0.667709 0.208954
C49   C     C_3   0.325502 0.792288 0.754197 -0.433504
C50   C     C_3   0.304482 0.750156 0.846721 -0.808355
H23   H     H_    0.198611 0.697580 0.831926 0.265966
H24   H     H_    0.351721 0.696597 0.868380 0.242788
H25   H     H_    0.349624 0.826051 0.910901 0.243899
H26   H     H_    0.432967 0.843225 0.773623 0.195854
H27   H     H_    0.288714 0.853945 0.736764 0.206124
C51   C     C_3   0.515324 0.268926 0.290608 -0.361955
C52   C     C_3   0.461509 0.137229 0.272003 -0.916694
H28   H     H_    0.487802 0.106616 0.213288 0.250790
H29   H     H_    0.500755 0.113377 0.342357 0.257171
H30   H     H_    0.352760 0.091038 0.244122 0.251574
H31   H     H_    0.448232 0.284448 0.314600 0.261825
H32   H     H_    0.506548 0.292830 0.217070 0.171991
N5    N     N_3   0.144022 0.399031 0.822632 -0.580162
H33   H     H_    0.229112 0.477128 0.835230 0.207873
H34   H     H_    0.078422 0.386484 0.750434 0.220329
N6    N     N_3   0.460331 0.458558 0.811795 -0.561047
H35   H     H_    0.460133 0.515210 0.865550 0.207309
H36   H     H_    0.389895 0.374080 0.806538 0.222944
N7    N     N_3   0.891548 0.575775 0.795917 -0.607754
H37   H     H_    0.891052 0.653255 0.788039 0.212235
H38   H     H_    0.872017 0.528809 0.726596 0.240113
N8    N     N_3   0.926024 0.355587 0.184344 -0.618251
H39   H     H_    0.969865 0.305473 0.178417 0.231130
H40   H     H_    0.981842 0.422784 0.249672 0.212465

loop_
_geom_bond_atom_site_label_1
_geom_bond_atom_site_label_2
_ccdc_geom_bond_type
C52   H28   S    
C31   C49   S    
C12   O4    A    
C17   C29   A    
C15   H10   S    
C19   C20   A    
C23   O6    A    
C4    C8    A    
C49   H27   S    
C51   H32   S    
C32   C51   S    
C49   C50   S    
N7    H38   S    
C26   C27   A    
C17   C23   S    
C31   C43   A    
C21   C22   A    
C36   C37   A    
C5    C11   A    
C3    C7    A    
Cu2   O4    S    
C34   O7    A    
C5    C6    A    
C50   H24   S    
C26   H4    S    
N8    H39   S    
C18   C19   A    
Cu2   O2    S    
C1    C30   S    
C11   C15   A    
C35   C36   A    
N8    H40   S    
C8    C9    A    
Cu1   O5    S    
C18   C30   A    
C13   C14   A    
C19   N4    S    
C9    C10   A    
C42   H12   S    
C44   C47   A    
C43   H9    S    
C52   H29   S    
C47   N6    S    
Cu1   N1    S    
C37   N2    A    
C37   C41   A    
Cu2   O8    S    
C51   H31   S    
C14   C45   A    
C28   H6    S    
C1    O2    A    
C24   C25   A    
C39   C40   A    
N3    H20   S    
C50   H23   S    
C41   H15   S    
C2    C48   A    
C16   C29   A    
C10   C13   A    
C42   N1    A    
C40   H11   S    
C50   H25   S    
C2    C4    A    
Cu2   O6    S    
C13   H2    S    
C18   H7    S    
C48   N7    S    
C14   H16   S    
C34   C45   S    
C1    O1    A    
N6    H36   S    
C40   C41   A    
N5    H34   S    
C8    H18   S    
C52   H30   S    
N4    H22   S    
C22   C27   A    
Cu1   O3    S    
C15   C45   A    
C16   C25   A    
C46   C47   A    
C22   C30   A    
C20   N3    S    
C17   C28   A    
C24   C28   A    
C43   N1    A    
C23   O5    A    
C4    C5    A    
C27   H8    S    
C32   N2    A    
C49   H26   S    
C38   C42   A    
C6    C7    A    
N7    H37   S    
C3    C46   A    
N5    H33   S    
C32   C33   A    
C36   C38   A    
C2    C3    A    
C25   C26   A    
C16   H5    S    
C7    H1    S    
C46   H17   S    
C12   C44   S    
Cu1   O7    S    
C34   O8    A    
C38   C39   A    
C29   H3    S    
C33   H14   S    
C51   C52   S    
C33   C35   A    
C31   C39   A    
Cu2   N2    S    
N6    H35   S    
C10   C11   A    
N3    H19   S    
C20   C21   A    
C9    N5    S    
Cu1   Cu2   S    
Cu1   O1    S    
C21   C24   A    
C6    N8    S    
C35   H13   S    
N4    H21   S    
C12   O3    A    
C44   C48   A    
