data_str_m3_o10_o18_f0_pcu.sym.6
_audit_creation_date              2012-12-10T16:52:40-0500
_audit_creation_method            fapswitch 2.2
_symmetry_space_group_name_H-M    P1
_symmetry_Int_Tables_number       1
_space_group_crystal_system       triclinic
_cell_length_a                    7.902003
_cell_length_b                    8.578138
_cell_length_c                    13.773739
_cell_angle_alpha                 93.609397
_cell_angle_beta                  93.374175
_cell_angle_gamma                 93.871906
_cell_volume                      927.797871541

loop_
_atom_site_label
_atom_site_type_symbol
_atom_type_description
_atom_site_fract_x
_atom_site_fract_y
_atom_site_fract_z
_atom_type_partial_charge
C1    C     C_R   0.043312 0.793851 0.496026 0.922073
C2    C     C_R   0.936767 0.486653 0.318215 0.880587
C3    C     C_R   0.095678 0.529954 0.786682 -0.070184
C4    C     C_R   0.904194 0.460966 0.213673 -0.046215
C5    C     C_R   0.060901 0.665021 0.942175 -0.170595
C6    C     C_R   0.935779 0.314017 0.061441 -0.179296
C7    C     C_R   0.005996 0.631058 0.844757 -0.199684
C8    C     C_R   0.992101 0.354533 0.158156 -0.203755
C9    C     C_R   0.235598 0.461572 0.826287 -0.166870
C10   C     C_R   0.764670 0.526919 0.172447 -0.284067
C11   C     C_R   0.310064 0.516004 0.917334 0.113064
C12   C     C_R   0.956811 0.206308 0.504408 0.913820
C13   C     C_R   0.688061 0.465298 0.083460 0.089720
C14   C     C_R   0.213024 0.608366 0.978761 0.100427
C15   C     C_R   0.783611 0.369204 0.023694 0.180821
C16   C     C_R   0.474386 0.475915 0.950035 0.050910
C17   C     C_R   0.523214 0.503019 0.050926 -0.058626
C18   C     C_2   0.414820 0.545468 0.221354 0.382102
C19   C     C_2   0.594532 0.434610 0.781160 0.363443
C20   C     C_2   0.127057 0.993587 0.382397 0.484688
C21   C     C_2   0.874281 0.008166 0.619296 0.468202
C22   C     C_2   0.478943 0.299008 0.458090 0.663486
C23   C     C_R   0.405706 0.566708 0.115304 -0.040778
C24   C     C_2   0.523103 0.702508 0.536646 0.731391
C25   C     C_R   0.592672 0.410326 0.886464 -0.030270
C26   C     C_R   0.262113 0.633189 0.077094 -0.182829
C27   C     C_R   0.733658 0.341052 0.925600 -0.292833
C28   C     C_2   0.050940 0.953135 0.475528 -0.302083
C29   C     C_2   0.949402 0.047355 0.525607 -0.278263
C30   C     C_R   0.063174 0.511435 0.681822 0.862529
H1    H     H_    0.178416 0.690354 0.125549 0.193249
H2    H     H_    0.645915 0.348965 0.731863 0.130374
H3    H     H_    0.083721 0.089899 0.342295 0.066370
H4    H     H_    0.911454 0.907523 0.657238 0.092500
H5    H     H_    0.523429 0.233525 0.518230 0.068770
H6    H     H_    0.474493 0.761743 0.474723 0.082211
H7    H     H_    0.816818 0.282098 0.877579 0.160681
H8    H     H_    0.714243 0.623628 0.212727 0.163537
H9    H     H_    0.288295 0.369334 0.783168 0.140991
H10   H     H_    0.102399 0.302887 0.189399 0.162540
H11   H     H_    0.895785 0.684365 0.814828 0.193944
H12   H     H_    0.986811 0.737497 0.988218 0.150592
H13   H     H_    0.008972 0.238349 0.016907 0.144059
H14   H     H_    0.473082 0.445171 0.249179 0.121834
N1    N     N_2   0.440860 0.456490 0.474790 -0.181675
N2    N     N_2   0.559140 0.543510 0.525210 -0.174574
O1    O     O_R   0.891570 0.738930 0.506190 -0.648532
O2    O     O_2   0.548645 0.555575 0.749648 -0.519530
O3    O     O_2   0.237997 0.918169 0.348835 -0.499724
O4    O     O_2   0.772223 0.090546 0.656374 -0.590646
O5    O     O_2   0.452540 0.233387 0.376992 -0.608818
O6    O     O_2   0.556245 0.776638 0.614602 -0.546709
O7    O     O_R   0.108430 0.261070 0.493810 -0.654754
O8    O     O_R   0.174650 0.711050 0.490030 -0.589699
O9    O     O_R   0.825350 0.288950 0.509970 -0.611254
O10   O     O_R   0.909850 0.521900 0.644940 -0.608652
O11   O     O_R   0.090150 0.478100 0.355060 -0.573995
O12   O     O_R   0.192930 0.494020 0.628780 -0.601034
O13   O     O_R   0.807070 0.505980 0.371220 -0.636630
O14   O     O_2   0.359729 0.640694 0.278606 -0.515776
Zn1   Zn    Zn3+2 0.810990 0.518620 0.510790 0.982983
Zn2   Zn    Zn3+2 0.189010 0.481380 0.489210 1.006450

loop_
_geom_bond_atom_site_label_1
_geom_bond_atom_site_label_2
_ccdc_geom_bond_type
O12   Zn2   S    
C3    C30   S    
C2    C4    S    
C1    O8    A    
C4    C8    A    
O1    Zn1   S    
C20   O3    D    
C3    C9    A    
C18   H14   S    
C12   C29   S    
C1    C28   S    
C20   C28   S    
C11   C16   A    
C15   C27   A    
C12   O7    A    
C13   C17   A    
C10   H8    S    
C24   N2    S    
C7    H11   S    
C2    O11   A    
O11   Zn2   S    
O10   Zn1   S    
C17   C23   A    
N1    N2    D    
C14   C26   A    
C22   H5    S    
C9    C11   A    
C5    C14   A    
C24   H6    S    
C21   C29   S    
C27   H7    S    
C19   H2    S    
O9    Zn1   S    
C18   O14   D    
C21   O4    D    
C3    C7    A    
C24   O6    D    
C13   C15   A    
C1    O1    A    
C19   C25   S    
C11   C14   A    
O13   Zn1   S    
C12   O9    A    
C25   C27   A    
C20   H3    S    
N2    Zn1   S    
C4    C10   A    
C18   C23   S    
C30   O12   A    
N1    Zn2   S    
C26   H1    S    
C22   N1    S    
C5    H12   S    
O7    Zn2   S    
C23   C26   A    
C16   C25   A    
C5    C7    A    
C6    H13   S    
C28   C29   D    
C6    C8    A    
C21   H4    S    
C8    H10   S    
C6    C15   A    
C2    O13   A    
C30   O10   A    
C9    H9    S    
O8    Zn2   S    
C16   C17   A    
C19   O2    D    
C22   O5    D    
C10   C13   A    
