data_str_m2_o1_o2_f0_pcu.sym.37
_audit_creation_date              2012-10-26T19:46:28-0400
_audit_creation_method            fapswitch 2.2
_symmetry_space_group_name_H-M    P1
_symmetry_Int_Tables_number       1
_space_group_crystal_system       triclinic
_cell_length_a                    10.890797
_cell_length_b                    9.624256
_cell_length_c                    15.059597
_cell_angle_alpha                 92.196697
_cell_angle_beta                  92.833711
_cell_angle_gamma                 90.311136
_cell_volume                      1575.35285006

loop_
_atom_site_label
_atom_site_type_symbol
_atom_type_description
_atom_site_fract_x
_atom_site_fract_y
_atom_site_fract_z
_atom_type_partial_charge
C1    C     C_R   0.262033 0.500343 0.497692 0.550896
C2    C     C_R   0.939822 0.602114 0.553083 0.222552
C3    C     C_R   0.929624 0.401465 0.448791 0.223533
C4    C     C_R   0.067806 0.605166 0.549531 0.225892
C5    C     C_R   0.619233 0.551810 0.103436 0.277095
C6    C     C_R   0.591137 0.407536 0.904710 0.238748
C7    C     C_R   0.444569 0.599562 0.909058 0.267171
C8    C     C_R   0.416037 0.440958 0.087991 0.255784
C9    C     C_R   0.610520 0.555376 0.196253 -0.151320
C10   C     C_R   0.585042 0.409376 0.811343 -0.159601
C11   C     C_R   0.441159 0.600020 0.815945 -0.165915
C12   C     C_R   0.737254 0.500262 0.502149 0.560776
C13   C     C_R   0.411607 0.442168 0.180055 -0.134254
C14   C     C_R   0.509176 0.495702 0.234157 -0.074099
C15   C     C_R   0.509281 0.504314 0.767202 -0.085976
C16   C     C_R   0.519713 0.497684 0.049529 0.126453
C17   C     C_R   0.521521 0.504459 0.952697 0.121673
C18   C     C_R   0.870755 0.499938 0.502839 -0.089082
C19   C     C_R   0.127277 0.503471 0.497408 -0.068848
C20   C     C_3   0.312306 0.152544 0.321062 0.029535
C21   C     C_3   0.293736 0.122440 0.220833 -0.397123
C22   C     C_3   0.564829 0.902718 0.713855 0.001447
C23   C     C_R   0.501997 0.498190 0.330311 0.499705
C24   C     C_3   0.640910 0.856674 0.794688 -0.375049
C25   C     C_3   0.774178 0.127115 0.602747 0.013336
C26   C     C_3   0.857485 0.223193 0.661545 -0.379173
C27   C     C_3   0.292685 0.805651 0.336011 0.022553
C28   C     C_3   0.159229 0.815547 0.300843 -0.397148
C29   C     C_3   0.829923 0.557866 0.097113 -0.107295
C30   C     C_3   0.658122 0.180573 0.915927 -0.139818
C31   C     C_3   0.257438 0.706198 0.928981 -0.112782
C32   C     C_3   0.336366 0.263487 0.996425 -0.138828
C33   C     C_3   0.111794 0.432125 0.301126 -0.156771
C34   C     C_R   0.502055 0.501932 0.670064 0.520918
C35   C     C_3   0.853372 0.639782 0.686339 -0.083579
C36   C     C_3   0.817465 0.341782 0.319599 -0.064516
C37   C     C_3   0.174639 0.689750 0.673887 -0.078930
C38   C     C_R   0.436588 0.068444 0.434527 0.345182
C39   C     C_R   0.567211 0.930296 0.563876 0.329120
C40   C     C_R   0.573045 0.079426 0.560271 0.318498
C41   C     C_R   0.422209 0.921603 0.442678 0.355376
C42   C     C_R   0.056461 0.408985 0.442292 0.243435
Cu1   Cu    Cu3+1 0.500000 0.640660 0.500000 1.040543
Cu2   Cu    Cu3+1 0.500000 0.359340 0.500000 1.030450
H1    H     H_    0.681400 0.606194 0.238833 0.117587
H2    H     H_    0.472390 0.853692 0.712509 0.135503
H3    H     H_    0.551812 0.016525 0.723781 0.141658
H4    H     H_    0.731087 0.911507 0.798972 0.135765
H5    H     H_    0.591775 0.881849 0.856075 0.120481
H6    H     H_    0.656247 0.743202 0.790348 0.162529
H7    H     H_    0.793223 0.143553 0.531999 0.197227
H8    H     H_    0.798659 0.018707 0.618633 0.193510
H9    H     H_    0.954421 0.210435 0.643229 0.118027
H10   H     H_    0.830152 0.332737 0.653115 0.148108
H11   H     H_    0.850240 0.198019 0.732400 0.132340
H12   H     H_    0.640703 0.339024 0.772896 0.158259
H13   H     H_    0.308099 0.693521 0.338780 0.172712
H14   H     H_    0.357176 0.848642 0.289026 0.139285
H15   H     H_    0.148968 0.765177 0.233255 0.087573
H16   H     H_    0.098262 0.760895 0.345404 0.169312
H17   H     H_    0.128466 0.924530 0.297098 0.161628
H18   H     H_    0.826010 0.442801 0.102871 0.133452
H19   H     H_    0.858708 0.609382 0.162130 0.093492
H20   H     H_    0.901986 0.580376 0.050031 0.145135
H21   H     H_    0.690473 0.108928 0.967953 0.150869
H22   H     H_    0.718641 0.165883 0.859247 0.124090
H23   H     H_    0.386404 0.675377 0.781736 0.096105
H24   H     H_    0.561617 0.150249 0.895621 0.098728
H25   H     H_    0.216213 0.602931 0.908423 0.134414
H26   H     H_    0.248365 0.779202 0.873759 0.086943
H27   H     H_    0.203640 0.749603 0.984083 0.141548
H28   H     H_    0.358404 0.276331 0.926063 0.124865
H29   H     H_    0.251073 0.199931 0.996214 0.135532
H30   H     H_    0.410830 0.203442 0.030756 0.115578
H31   H     H_    0.031220 0.502753 0.294932 0.091482
H32   H     H_    0.113614 0.371670 0.237270 0.131814
H33   H     H_    0.196771 0.495596 0.309641 0.095773
H34   H     H_    0.330270 0.404297 0.209053 0.108935
H35   H     H_    0.758028 0.598420 0.680131 0.148167
H36   H     H_    0.859173 0.721425 0.740216 0.136038
H37   H     H_    0.916758 0.555419 0.707848 0.050633
H38   H     H_    0.803460 0.456143 0.318369 0.061816
H39   H     H_    0.727035 0.290890 0.303613 0.167487
H40   H     H_    0.879468 0.308778 0.266605 0.132699
H41   H     H_    0.236607 0.776113 0.698246 0.123573
H42   H     H_    0.227227 0.590990 0.676046 0.091326
H43   H     H_    0.098313 0.687127 0.719731 0.106813
H44   H     H_    0.304917 0.265419 0.333109 0.214327
H45   H     H_    0.238497 0.102011 0.357006 0.183561
H46   H     H_    0.286063 0.010158 0.203923 0.135399
H47   H     H_    0.208374 0.171617 0.194705 0.115329
H48   H     H_    0.373195 0.162535 0.186167 0.174434
N1    N     N_R   0.500000 0.852070 0.500000 -0.253574
N2    N     N_R   0.500000 0.147930 0.500000 -0.247837
O1    O     O_R   0.319640 0.618740 0.499990 -0.435639
O2    O     O_3   0.624531 0.864799 0.634800 -0.513324
O3    O     O_3   0.650113 0.156732 0.619368 -0.555115
O4    O     O_3   0.305482 0.866284 0.422819 -0.528283
O5    O     O_3   0.717501 0.612421 0.063616 -0.552776
O6    O     O_3   0.667974 0.318155 0.951632 -0.573193
O7    O     O_3   0.381544 0.696719 0.959878 -0.557488
O8    O     O_3   0.313420 0.394918 0.037106 -0.578658
O9    O     O_3   0.106332 0.339077 0.371539 -0.566214
O10   O     O_3   0.883768 0.700699 0.606285 -0.500857
O11   O     O_3   0.864104 0.295565 0.402411 -0.530677
O12   O     O_R   0.680360 0.381260 0.500010 -0.455179
O13   O     O_3   0.131875 0.719029 0.587030 -0.484201
O14   O     O_R   0.680360 0.618740 0.500010 -0.449070
O15   O     O_R   0.319640 0.381260 0.499990 -0.503550
O16   O     O_R   0.499990 0.618780 0.371460 -0.531935
O17   O     O_R   0.500010 0.381220 0.628540 -0.467680
O18   O     O_R   0.500010 0.618780 0.628540 -0.478893
O19   O     O_R   0.499990 0.381220 0.371460 -0.471124
O20   O     O_3   0.432111 0.115103 0.348931 -0.567160

loop_
_geom_bond_atom_site_label_1
_geom_bond_atom_site_label_2
_ccdc_geom_bond_type
C12   O12   A    
C29   H19   S    
C3    C42   A    
C9    H1    S    
C8    C13   A    
C2    C18   A    
C34   O18   A    
Cu1   Cu2   S    
C42   O9    S    
C35   H37   S    
C32   H28   S    
C3    O11   S    
C7    C11   A    
C31   O7    S    
C37   H41   S    
C37   O13   S    
C10   C15   A    
C32   H30   S    
C38   O20   S    
C36   H39   S    
C30   O6    S    
C35   H36   S    
C3    C18   A    
C6    C17   A    
C39   N1    A    
C5    C16   A    
C1    O15   A    
C29   H18   S    
C4    C19   A    
C11   C15   A    
C33   H31   S    
C31   H26   S    
C41   N1    A    
C5    O5    S    
C36   H38   S    
C16   C17   S    
C7    C17   A    
Cu1   O1    S    
Cu1   O16   S    
C10   H12   S    
C15   C34   S    
C19   C42   A    
Cu2   O15   S    
C31   H27   S    
C22   H3    S    
C29   H20   S    
C8    C16   A    
C13   C14   A    
C26   H11   S    
C34   O17   A    
C26   H10   S    
C11   H23   S    
C21   H46   S    
C28   H16   S    
C24   H6    S    
C4    O13   S    
C1    C19   S    
C29   O5    S    
C24   H4    S    
C37   H42   S    
C38   C41   A    
C35   O10   S    
C27   H13   S    
C40   O3    S    
C12   O14   A    
C25   C26   S    
C6    O6    S    
C14   C23   S    
C2    C4    A    
C9    C14   A    
C25   H7    S    
C5    C9    A    
C23   O19   A    
C33   H32   S    
C2    O10   S    
C1    O1    A    
C38   N2    A    
C30   H22   S    
C25   O3    S    
C22   H2    S    
Cu2   O19   S    
C32   O8    S    
Cu1   O18   S    
C26   H9    S    
C32   H29   S    
C21   H47   S    
C28   H15   S    
C24   H5    S    
C23   O16   A    
C13   H34   S    
C27   O4    S    
C36   O11   S    
C33   O9    S    
C22   O2    S    
C37   H43   S    
C40   N2    A    
C27   H14   S    
C6    C10   A    
Cu2   O12   S    
C20   H45   S    
C25   H8    S    
C28   H17   S    
C20   O20   S    
C33   H33   S    
C36   H40   S    
C20   H44   S    
C35   H35   S    
Cu1   N1    S    
C22   C24   S    
Cu1   O14   S    
C39   O2    S    
C30   H21   S    
Cu2   N2    S    
C39   C40   A    
Cu2   O17   S    
C31   H25   S    
C20   C21   S    
C7    O7    S    
C12   C18   S    
C27   C28   S    
C41   O4    S    
C8    O8    S    
C30   H24   S    
C21   H48   S    
