data_str_m9_o2_o23_f0_sra.sym.54
_audit_creation_date              2012-12-11T16:31:30-0500
_audit_creation_method            fapswitch 2.2
_symmetry_space_group_name_H-M    P1
_symmetry_Int_Tables_number       1
_space_group_crystal_system       triclinic
_cell_length_a                    6.973952
_cell_length_b                    18.758336
_cell_length_c                    19.757628
_cell_angle_alpha                 68.373496
_cell_angle_beta                  91.277052
_cell_angle_gamma                 90.4391
_cell_volume                      2402.14418445

loop_
_atom_site_label
_atom_site_type_symbol
_atom_type_description
_atom_site_fract_x
_atom_site_fract_y
_atom_site_fract_z
_atom_type_partial_charge
O1    O     O_R   0.488990 0.443920 0.942160 -0.537185
O2    O     O_R   0.823840 0.406530 0.087600 -0.535407
O3    O     O_R   0.999650 0.556080 0.057840 -0.522474
C1    C     C_R   0.657396 0.386349 0.117178 0.749632
O4    O     O_R   0.818390 0.434590 0.944530 -0.542010
O5    O     O_R   0.994160 0.584350 0.913750 -0.537964
C2    C     C_R   0.648046 0.419281 0.925204 0.712335
O6    O     O_R   0.494480 0.415650 0.086250 -0.530426
O7    O     O_3   0.662600 0.549100 0.990070 -0.360240
V1    V     V_3+5 0.935320 0.490890 0.001840 1.472197
O8    O     O_R   0.324240 0.593470 0.912400 -0.539103
C3    C     C_R   0.154104 0.615498 0.884109 0.682135
O9    O     O_R   0.329690 0.565410 0.055470 -0.530637
C4    C     C_R   0.162413 0.578372 0.076736 0.749639
V2    V     V_3+5 0.435990 0.509110 0.998160 1.477327
O10   O     O_3   0.158840 0.450900 0.009930 -0.371989
C5    C     C_3   0.926311 0.706751 0.237670 0.037384
C6    C     C_3   0.267298 0.667367 0.281638 0.004629
C7    C     C_3   0.265072 0.718242 0.328814 -0.355299
H1    H     H_    0.879546 0.712509 0.345435 0.157725
H2    H     H_    0.874794 0.647474 0.267981 0.192231
H3    H     H_    0.416438 0.663901 0.264952 0.131214
H4    H     H_    0.223014 0.683398 0.385397 0.184598
H5    H     H_    0.412244 0.739597 0.332958 0.142661
C8    C     C_1   0.109710 0.872571 0.380284 -0.172623
C9    C     C_3   0.135749 0.702502 0.212296 0.189974
C10   C     C_3   0.923160 0.751992 0.290454 -0.382980
C11   C     C_3   0.123517 0.786592 0.295935 0.210208
C12   C     C_3   0.182708 0.836291 0.216320 0.017456
C13   C     C_3   0.207244 0.785301 0.170256 -0.384542
C14   C     C_1   0.114986 0.833392 0.343012 -0.034490
C15   C     C_1   0.147740 0.657211 0.164335 -0.008887
C16   C     C_1   0.156095 0.621550 0.124180 -0.120954
H6    H     H_    0.128660 0.811459 0.117293 0.152612
H7    H     H_    0.358525 0.783779 0.155224 0.158660
H8    H     H_    0.063359 0.876363 0.190749 0.192334
H9    H     H_    0.814261 0.798669 0.272276 0.169615
C17   C     C_R   0.154803 0.768869 0.886600 -0.178458
C18   C     C_R   0.156815 0.841770 0.889973 -0.113178
C19   C     C_R   0.148319 0.906975 0.826147 0.223164
C20   C     C_R   0.137347 0.898792 0.758618 -0.159217
C21   C     C_R   0.134865 0.825527 0.753711 0.018394
C22   C     C_R   0.144102 0.759153 0.818983 0.073556
C23   C     C_R   0.122665 0.817756 0.685097 -0.154433
C24   C     C_R   0.119652 0.744022 0.681618 0.078643
C25   C     C_R   0.128554 0.677394 0.746694 0.027315
C26   C     C_R   0.141496 0.684834 0.815694 -0.150138
C27   C     C_R   0.108448 0.735553 0.613459 -0.174253
C28   C     C_R   0.104844 0.663612 0.609127 -0.124806
C29   C     C_R   0.112604 0.598612 0.672175 0.222640
C30   C     C_R   0.124731 0.604636 0.740585 -0.177731
H10   H     H_    0.161394 0.720297 0.937629 0.099527
H11   H     H_    0.165355 0.847162 0.942697 0.116365
H12   H     H_    0.130905 0.950416 0.710085 0.106221
H13   H     H_    0.102535 0.784291 0.562597 0.109626
H14   H     H_    0.095948 0.658490 0.556310 0.149722
H15   H     H_    0.130912 0.552267 0.788280 0.120040
H16   H     H_    0.611555 0.451997 0.343422 0.177257
C31   C     C_R   0.728282 0.237786 0.117672 -0.191918
C32   C     C_R   0.760998 0.167585 0.112918 -0.163674
C33   C     C_R   0.732382 0.100749 0.172109 0.226696
C34   C     C_R   0.668321 0.103154 0.238786 0.103856
C35   C     C_R   0.652394 0.176355 0.247219 0.029726
C36   C     C_R   0.677172 0.244438 0.183891 0.039116
C37   C     C_R   0.603074 0.184746 0.314168 -0.151089
C38   C     C_R   0.559300 0.259449 0.313856 -0.000499
C39   C     C_R   0.612278 0.326261 0.253707 -0.004089
C40   C     C_R   0.652612 0.318522 0.186464 -0.134724
C41   C     C_R   0.467021 0.270496 0.373094 0.088946
C42   C     C_R   0.506127 0.337063 0.387584 0.152896
C43   C     C_R   0.588410 0.399325 0.333739 -0.090371
C44   C     C_R   0.624842 0.397370 0.265268 0.087979
H17   H     H_    0.747749 0.286894 0.068096 0.121662
H18   H     H_    0.805894 0.165312 0.061611 0.152161
O11   O     O_R   0.770890 0.084490 0.414040 -0.536509
O12   O     O_R   0.445980 0.065450 0.555510 -0.546200
O13   O     O_R   0.270670 0.915620 0.586180 -0.534628
C45   C     C_R   0.615871 0.077884 0.577417 0.729227
O14   O     O_R   0.441480 0.093500 0.412450 -0.547046
O15   O     O_R   0.266140 0.943870 0.442100 -0.533956
C46   C     C_R   0.607376 0.117847 0.385410 0.729153
O16   O     O_R   0.775410 0.056240 0.558120 -0.531039
O17   O     O_3   0.602660 0.950990 0.510100 -0.365609
V3    V     V_3+5 0.329740 0.009100 0.498130 1.404906
O18   O     O_R   0.936120 0.934420 0.444240 -0.542428
C47   C     C_R   0.103727 0.920013 0.424219 0.719456
O19   O     O_R   0.940610 0.906370 0.587310 -0.536434
C48   C     C_R   0.110369 0.886325 0.616661 0.695927
V4    V     V_3+5 0.829110 0.990690 0.501470 1.431240
O20   O     O_3   0.106080 0.049010 0.489880 -0.371883
C49   C     C_3   0.681823 0.286167 0.669196 0.022521
C50   C     C_3   0.433965 0.197426 0.747098 -0.376928
C51   C     C_3   0.425014 0.249770 0.792961 0.007705
H19   H     H_    0.560308 0.310439 0.630075 0.147929
H20   H     H_    0.402066 0.137483 0.783096 0.142396
H21   H     H_    0.322532 0.213348 0.702780 0.182867
H22   H     H_    0.383311 0.213068 0.849303 0.140325
C52   C     C_1   0.635961 0.370616 0.882536 -0.176739
C53   C     C_3   0.635286 0.200595 0.714300 0.183587
C54   C     C_3   0.706723 0.331966 0.720555 -0.020442
C55   C     C_3   0.627268 0.284422 0.798272 0.237224
C56   C     C_3   0.759855 0.212881 0.832562 -0.434331
C57   C     C_3   0.781735 0.169499 0.779109 -0.350573
C58   C     C_1   0.629882 0.330739 0.845916 -0.052478
C59   C     C_1   0.633736 0.154836 0.666726 -0.026024
C60   C     C_1   0.627451 0.119731 0.625981 -0.158428
H23   H     H_    0.930418 0.176301 0.758534 0.181373
H24   H     H_    0.757808 0.107149 0.809098 0.157796
H25   H     H_    0.901092 0.228816 0.849156 0.156615
H26   H     H_    0.862174 0.339087 0.728367 0.192722
H27   H     H_    0.697771 0.172960 0.884172 0.167819
C61   C     C_3   0.783572 0.741624 0.173658 -0.796430
H28   H     H_    0.812321 0.803233 0.142823 0.233433
H29   H     H_    0.784413 0.709842 0.136121 0.234061
H30   H     H_    0.639013 0.737322 0.195709 0.203741
C62   C     C_3   0.359602 0.886713 0.211538 -0.748527
H31   H     H_    0.329102 0.929518 0.236349 0.229882
H32   H     H_    0.486493 0.852001 0.238968 0.220158
H33   H     H_    0.392960 0.918767 0.153468 0.248674
I1    I     I_    0.105540 0.492465 0.661138 -0.515952
C63   C     C_3   0.152485 0.985711 0.829062 -0.813371
H34   H     H_    0.160817 0.983611 0.885978 0.214128
H35   H     H_    0.279722 0.016820 0.799765 0.205571
H36   H     H_    0.020913 0.017509 0.802274 0.208843
I2    I     I_    0.790733 0.999510 0.152149 -0.573853
C64   C     C_3   0.599943 0.028719 0.295294 -0.728633
H37   H     H_    0.584265 0.982045 0.274445 0.220238
H38   H     H_    0.704044 0.007398 0.341109 0.224505
H39   H     H_    0.454880 0.036234 0.313502 0.200736
C65   C     C_3   0.284433 0.228298 0.403957 -0.654755
H40   H     H_    0.225734 0.197145 0.370039 0.212083
H41   H     H_    0.307871 0.189848 0.461421 0.224397
H42   H     H_    0.169495 0.269628 0.402215 0.201436
C66   C     C_3   0.449832 0.343850 0.458291 -0.671700
H43   H     H_    0.512336 0.395915 0.464282 0.232815
H44   H     H_    0.291653 0.347269 0.461056 0.244157
H45   H     H_    0.503348 0.293157 0.504763 0.207874
I3    I     I_    0.711122 0.507053 0.191829 -0.396456
C67   C     C_3   0.632216 0.414810 0.683726 -0.695031
H46   H     H_    0.653798 0.448046 0.719534 0.231408
H47   H     H_    0.711822 0.444139 0.632967 0.261169
H48   H     H_    0.480910 0.417622 0.666788 0.243275
C68   C     C_3   0.265109 0.308679 0.764199 -0.751516
H49   H     H_    0.128551 0.278335 0.778408 0.201653
H50   H     H_    0.272521 0.353114 0.788790 0.241908
H51   H     H_    0.263351 0.334362 0.704135 0.263638
I4    I     I_    0.930765 0.301109 0.601680 -0.495494
I5    I     I_    0.198297 0.549562 0.346324 -0.431466

loop_
_geom_bond_atom_site_label_1
_geom_bond_atom_site_label_2
_ccdc_geom_bond_type
C8    C14   T    
C27   H13   S    
C53   C57   S    
O19   C48   A    
C35   C37   A    
C54   H26   S    
C55   C56   S    
C2    C52   S    
C68   H51   S    
C20   C21   A    
O2    C1    A    
C6    C9    S    
O15   V3    S    
O12   V3    S    
C66   H45   S    
C61   H29   S    
C18   H11   S    
O18   C47   A    
C9    C15   S    
C19   C63   S    
C12   H8    S    
C31   C36   A    
C12   C13   S    
O16   V4    S    
V3    O20   S    
C13   H7    S    
C29   I1    S    
C5    C9    S    
C36   C40   A    
C11   C12   S    
O12   C45   A    
C39   C44   A    
C6    I5    S    
O5    C3    A    
O14   V3    S    
C67   H48   S    
H16   C43   S    
C38   C41   A    
C17   H10   S    
V2    O10   S    
C50   H21   S    
C62   H31   S    
C6    C7    S    
C34   C64   S    
C28   C29   A    
C54   C55   S    
C63   H36   S    
O15   C47   A    
C56   C57   S    
O8    V2    S    
O13   C48   A    
C41   C65   S    
C42   C43   A    
C30   H15   S    
C49   C54   S    
O7    V1    S    
C31   H17   S    
C51   C68   S    
C1    O6    A    
C44   I3    S    
C38   C39   A    
C31   C32   A    
C6    H3    S    
O9    C4    A    
C56   H27   S    
C41   C42   A    
C21   C23   A    
C4    C16   S    
C3    C26   S    
C53   C59   S    
C49   I4    S    
C61   H28   S    
O17   V4    S    
C13   H6    S    
C39   C40   A    
C5    C10   S    
C51   C55   S    
C18   C19   A    
C1    C40   S    
O18   V4    S    
O11   C46   A    
C66   H44   S    
C64   H39   S    
C24   C25   A    
C25   C30   A    
C50   H20   S    
C5    H2    S    
C32   C33   A    
C7    H4    S    
C34   C35   A    
C54   C67   S    
C45   O16   A    
C37   C46   S    
O17   V3    S    
C67   H46   S    
C29   C30   A    
C7    C11   S    
C63   H34   S    
C57   H24   S    
O3    C4    A    
O1    V2    S    
C19   C20   A    
C12   C62   S    
C9    C13   S    
O6    V2    S    
O19   V4    S    
C8    C47   S    
C65   H42   S    
C21   C22   A    
O2    V1    S    
C5    C61   S    
C51   H22   S    
C23   C24   A    
O4    C2    A    
C24   C27   A    
C68   H50   S    
C25   C26   A    
C27   C28   A    
C64   H38   S    
O1    C2    A    
C11   C14   S    
O5    V1    S    
C57   H23   S    
O8    C3    A    
C66   H43   S    
H1    C10   S    
C55   C58   S    
C28   H14   S    
C59   C60   T    
O14   C46   A    
O13   V3    S    
C62   H33   S    
C45   C60   S    
C65   H41   S    
C15   C16   T    
O9    V2    S    
C65   H40   S    
O7    V2    S    
O4    V1    S    
O3    V1    S    
V1    O10   S    
C49   H19   S    
C67   H47   S    
C17   C18   A    
C10   H9    S    
C64   H37   S    
C52   C58   T    
C32   H18   S    
C50   C51   S    
C62   H32   S    
C7    H5    S    
C33   C34   A    
C20   H12   S    
C63   H35   S    
O11   V4    S    
C35   C36   A    
C17   C22   A    
C43   C44   A    
C37   C38   A    
C10   C11   S    
C42   C66   S    
C56   H25   S    
C33   I2    S    
C49   C53   S    
V4    O20   S    
C23   C48   S    
C22   C26   A    
C61   H30   S    
C68   H49   S    
C50   C53   S    
