data_str_m4_o15_o24_f0_acs.sym.51
_audit_creation_date              2012-12-11T14:28:26-0500
_audit_creation_method            fapswitch 2.2
_symmetry_space_group_name_H-M    P1
_symmetry_Int_Tables_number       1
_space_group_crystal_system       triclinic
_cell_length_a                    10.924367
_cell_length_b                    19.326645
_cell_length_c                    18.814028
_cell_angle_alpha                 89.8926
_cell_angle_beta                  90.326693
_cell_angle_gamma                 90.263482
_cell_volume                      3972.11801617

loop_
_atom_site_label
_atom_site_type_symbol
_atom_type_description
_atom_site_fract_x
_atom_site_fract_y
_atom_site_fract_z
_atom_type_partial_charge
C1    C     C_R   0.318690 0.962952 0.643919 0.536567
C2    C     C_3   0.204117 0.754678 0.048066 -0.143120
C3    C     C_3   0.089505 0.198754 0.959876 0.010020
C4    C     C_3   0.533013 0.300731 0.476264 0.006260
C5    C     C_3   0.528408 0.301840 0.022662 0.004733
C6    C     C_3   0.531810 0.700795 0.523634 0.005279
C7    C     C_3   0.589470 0.698771 0.959891 0.009264
C8    C     C_3   0.220371 0.784459 0.497198 -0.144281
C9    C     C_3   0.161314 0.814902 0.999637 -0.138174
C10   C     C_3   0.217682 0.217760 0.503194 -0.146077
C11   C     C_3   0.202809 0.229663 0.997176 -0.143871
C12   C     C_3   0.664943 0.317396 0.500518 -0.129547
C13   C     C_3   0.192367 0.289137 0.536717 -0.128529
C14   C     C_3   0.661320 0.314897 0.999635 -0.137802
C15   C     C_3   0.665376 0.688133 0.501075 -0.138670
C16   C     C_3   0.702773 0.729681 0.997189 -0.143558
C17   C     C_3   0.137018 0.764718 0.560191 0.025024
C18   C     C_3   0.141978 0.762658 0.938816 0.036791
C19   C     C_3   0.134331 0.237584 0.439694 0.025817
C20   C     C_3   0.123645 0.243177 0.063060 0.033255
C21   C     C_3   0.649033 0.263996 0.560685 0.036209
C22   C     C_3   0.641983 0.262655 0.938812 0.037201
C23   C     C_3   0.645410 0.739058 0.439180 0.035212
C24   C     C_3   0.169210 0.301995 0.968321 -0.114418
C25   C     C_3   0.623607 0.743194 0.063071 0.033642
C26   C     C_3   0.024357 0.796448 0.522215 -0.108494
C27   C     C_3   0.008656 0.750607 0.960899 -0.112229
C28   C     C_3   0.021198 0.206081 0.477266 -0.110676
C29   C     C_3   0.010157 0.211331 0.026753 -0.111298
C30   C     C_3   0.517346 0.248216 0.537211 -0.112212
C31   C     C_3   0.508658 0.250607 0.960891 -0.112295
C32   C     C_3   0.512358 0.751487 0.461219 -0.110680
C33   C     C_3   0.510120 0.711348 0.026765 -0.111311
C34   C     C_3   0.998982 0.724723 0.489143 -0.116863
C35   C     C_3   0.712955 0.258898 0.451803 -0.146589
C36   C     C_3   0.051906 0.690933 0.009468 -0.121541
C37   C     C_3   0.997770 0.277906 0.510240 -0.118851
C38   C     C_3   0.978763 0.284509 0.998652 -0.146845
C39   C     C_3   0.566038 0.190537 0.488681 -0.122341
C40   C     C_3   0.551899 0.190930 0.009458 -0.122115
C41   C     C_3   0.555959 0.811895 0.508840 -0.122004
C42   C     C_3   0.478728 0.784527 0.998661 -0.147175
C43   C     C_3   0.111068 0.693709 0.526987 -0.111597
C44   C     C_3   0.185607 0.702731 0.986518 -0.103358
C45   C     C_3   0.110349 0.308875 0.472862 -0.107059
C46   C     C_3   0.704114 0.254668 0.048063 -0.142618
C47   C     C_3   0.092297 0.315791 0.035052 -0.106666
C48   C     C_3   0.698317 0.205841 0.512966 -0.109640
C49   C     C_3   0.685603 0.202725 0.986512 -0.103519
C50   C     C_3   0.689403 0.800062 0.485619 -0.103735
C51   C     C_3   0.592261 0.815808 0.035063 -0.106842
C52   C     C_3   0.115064 0.874577 0.405633 -0.356635
C53   C     C_3   0.935056 0.854656 0.046065 -0.381151
C54   C     C_3   0.113009 0.128588 0.595477 -0.360983
C55   C     C_3   0.105378 0.141835 0.904832 -0.350919
C56   C     C_3   0.432904 0.348701 0.451356 -0.375353
C57   C     C_3   0.707914 0.749172 0.548123 -0.145287
C58   C     C_3   0.435056 0.354653 0.046057 -0.380808
C59   C     C_3   0.433684 0.651316 0.549518 -0.374130
C60   C     C_3   0.605347 0.641843 0.904865 -0.349937
C61   C     C_3   0.669176 0.802012 0.968332 -0.114169
C62   C     C_3   0.081758 0.744224 0.426964 0.075215
C63   C     C_3   0.072069 0.743157 0.070037 0.065587
C64   C     C_3   0.080142 0.257804 0.572681 0.074400
C65   C     C_R   0.318411 0.963798 0.855608 0.532696
C66   C     C_3   0.055166 0.269954 0.933222 0.076241
C67   C     C_3   0.581484 0.244003 0.428627 0.065012
C68   C     C_3   0.572061 0.243150 0.070030 0.064974
C69   C     C_3   0.575389 0.759837 0.570016 0.065333
C70   C     C_3   0.555133 0.769970 0.933231 0.075552
C71   C     C_R   0.321545 0.033120 0.433539 -0.034317
C72   C     C_R   0.319686 0.030915 0.066976 -0.024924
C73   C     C_R   0.321440 0.987484 0.572169 -0.031760
C74   C     C_R   0.318614 0.989378 0.927018 -0.032139
C75   C     C_R   0.816967 0.530064 0.433256 -0.030700
C76   C     C_R   0.316866 0.059030 0.361957 0.536589
C77   C     C_R   0.819689 0.530919 0.066976 -0.024754
C78   C     C_R   0.814522 0.494294 0.575191 -0.023914
C79   C     C_R   0.818614 0.489375 0.927019 -0.031731
C80   C     C_R   0.544306 0.998001 0.431036 -0.083456
C81   C     C_R   0.545853 0.003666 0.067750 -0.089970
C82   C     C_R   0.545112 0.015484 0.577221 -0.081420
C83   C     C_R   0.538363 0.022476 0.921736 -0.079144
C84   C     C_R   0.039858 0.499047 0.435057 -0.081081
C85   C     C_R   0.045858 0.503672 0.067747 -0.089859
C86   C     C_R   0.036131 0.520855 0.580406 -0.085753
C87   C     C_R   0.316409 0.057749 0.138033 0.537536
C88   C     C_R   0.038362 0.522478 0.921733 -0.079077
C89   C     C_R   0.654041 0.995443 0.468781 -0.141819
C90   C     C_R   0.654154 0.007689 0.029391 -0.144688
C91   C     C_R   0.655350 0.010139 0.541135 -0.130033
C92   C     C_R   0.649991 0.023126 0.957169 -0.130335
C93   C     C_R   0.147852 0.496064 0.474394 -0.142755
C94   C     C_R   0.154157 0.507694 0.029386 -0.144758
C95   C     C_R   0.146927 0.512573 0.546262 -0.131292
C96   C     C_R   0.149992 0.523129 0.957163 -0.130395
C97   C     C_R   0.432947 0.006871 0.540206 -0.022088
C98   C     C_R   0.817564 0.465667 0.645503 0.541298
C99   C     C_R   0.429346 0.009050 0.959431 -0.015678
C100  C     C_R   0.433133 0.012539 0.466457 -0.017983
C101  C     C_R   0.431438 0.013245 0.033247 -0.014761
C102  C     C_R   0.925399 0.512096 0.542562 -0.012707
C103  C     C_R   0.929347 0.509052 0.959430 -0.015637
C104  C     C_R   0.927687 0.514234 0.468775 -0.004353
C105  C     C_R   0.931441 0.513249 0.033245 -0.014754
C106  C     C_R   0.210238 0.987502 0.531774 -0.005779
C107  C     C_R   0.206202 0.990401 0.966208 -0.011166
C108  C     C_R   0.209368 0.027449 0.471128 -0.009694
C109  C     C_R   0.818411 0.463793 0.855611 0.532864
C110  C     C_R   0.206910 0.026702 0.029086 -0.002043
C111  C     C_R   0.701030 0.494366 0.535686 0.000528
C112  C     C_R   0.706204 0.490397 0.966211 -0.011025
C113  C     C_R   0.702328 0.524191 0.469068 -0.007158
C114  C     C_R   0.706912 0.526701 0.029088 -0.001988
C115  C     C_R   0.097916 0.954626 0.551066 -0.080347
C116  C     C_R   0.090253 0.964162 0.942514 -0.080301
C117  C     C_R   0.094527 0.053298 0.447271 -0.078650
C118  C     C_R   0.094268 0.056548 0.051202 -0.079914
C119  C     C_R   0.585064 0.467022 0.558799 -0.078756
C120  C     C_R   0.816348 0.556961 0.361963 0.538837
C121  C     C_R   0.590254 0.464158 0.942517 -0.080150
C122  C     C_R   0.587723 0.547183 0.440915 -0.068332
C123  C     C_R   0.594270 0.556549 0.051202 -0.079742
C124  C     C_R   0.986581 0.974873 0.522092 -0.157105
C125  C     C_R   0.981938 0.992936 0.964791 -0.153599
C126  C     C_R   0.984720 0.027674 0.472740 -0.153312
C127  C     C_R   0.983865 0.040587 0.018679 -0.146418
C128  C     C_R   0.476774 0.484715 0.526372 -0.159642
C129  C     C_R   0.481940 0.492933 0.964794 -0.153569
C130  C     C_R   0.478563 0.521798 0.464587 -0.146489
C131  C     C_R   0.816410 0.557753 0.138032 0.538367
C132  C     C_R   0.483867 0.540586 0.018681 -0.146329
C133  C     C_R   0.176933 0.770139 0.635652 0.543176
C134  C     C_R   0.179703 0.770116 0.864031 0.540007
C135  C     C_R   0.175111 0.230728 0.364689 0.532063
C136  C     C_R   0.170875 0.232184 0.135581 0.532339
C137  C     C_R   0.682652 0.270986 0.636389 0.556235
C138  C     C_R   0.679707 0.270117 0.864030 0.539703
C139  C     C_R   0.680892 0.729938 0.364133 0.540725
C140  C     C_R   0.670850 0.732191 0.135583 0.531986
C141  C     C_R   0.536502 0.772977 0.642505 0.551883
C142  C     C_3   0.193444 0.713002 0.463702 -0.128785
C143  C     C_R   0.506645 0.784878 0.862873 0.539603
C144  C     C_R   0.540093 0.228600 0.356383 0.543700
C145  C     C_R   0.535941 0.227610 0.142554 0.544874
C146  C     C_R   0.040392 0.271621 0.644366 0.543468
C147  C     C_R   0.006665 0.284869 0.862872 0.538960
C148  C     C_R   0.041778 0.729136 0.355182 0.536250
C149  C     C_R   0.035959 0.727618 0.142562 0.541963
C150  C     C_3   0.108016 0.814610 0.458263 -0.005086
C151  C     C_3   0.028406 0.801843 0.022668 0.004829
C152  C     C_3   0.104970 0.187649 0.541610 0.000858
Cr1   Cr    Cr6+3 0.488160 0.884660 0.750000 0.992610
Cr2   Cr    Cr6+3 0.333410 0.272740 0.250000 0.993762
Cr3   Cr    Cr6+3 0.833410 0.227260 0.750000 0.992837
Cr4   Cr    Cr6+3 0.833410 0.772740 0.250000 0.994670
Cr5   Cr    Cr6+3 0.488160 0.115340 0.250000 0.993702
Cr6   Cr    Cr6+3 0.988160 0.384660 0.750000 0.992230
Cr7   Cr    Cr6+3 0.988160 0.615340 0.250000 0.993333
Cr8   Cr    Cr6+3 0.173480 0.883120 0.750000 0.986544
Cr9   Cr    Cr6+3 0.173480 0.116880 0.250000 0.991406
Cr10  Cr    Cr6+3 0.673480 0.383120 0.750000 0.982973
Cr11  Cr    Cr6+3 0.673480 0.616880 0.250000 0.990184
Cr12  Cr    Cr6+3 0.333410 0.727260 0.750000 0.989993
H1    H     H_    0.902913 0.949770 0.538508 0.102607
H2    H     H_    0.931505 0.750009 0.922279 0.121310
H3    H     H_    0.948703 0.174330 0.451753 0.101897
H4    H     H_    0.942079 0.177877 0.053338 0.102036
H5    H     H_    0.440703 0.244543 0.575430 0.119125
H6    H     H_    0.431513 0.250013 0.922267 0.120924
H7    H     H_    0.436006 0.752181 0.422190 0.120846
H8    H     H_    0.442052 0.677887 0.053350 0.101935
H9    H     H_    0.911040 0.697384 0.481612 0.095148
H10   H     H_    0.003320 0.641300 0.015613 0.128721
H11   H     H_    0.911392 0.306200 0.518114 0.104050
H12   H     H_    0.897326 0.976539 0.940532 0.100940
H13   H     H_    0.894009 0.313955 0.993804 0.095839
H14   H     H_    0.523888 0.139003 0.482074 0.133075
H15   H     H_    0.503310 0.141298 0.015599 0.128717
H16   H     H_    0.510907 0.862912 0.514071 0.130379
H17   H     H_    0.393984 0.813981 0.993809 0.095793
H18   H     H_    0.256355 0.679201 0.433810 0.120414
H19   H     H_    0.279980 0.756521 0.087465 0.123242
H20   H     H_    0.256347 0.322192 0.567539 0.120782
H21   H     H_    0.229813 0.339056 0.940370 0.128358
H22   H     H_    0.790391 0.263236 0.414115 0.123043
H23   H     H_    0.899756 0.048334 0.452709 0.105786
H24   H     H_    0.779982 0.256506 0.087458 0.124332
H25   H     H_    0.786036 0.748142 0.586077 0.120269
H26   H     H_    0.729783 0.839075 0.940387 0.128530
H27   H     H_    0.737127 0.982716 0.441186 0.106340
H28   H     H_    0.740144 0.000124 0.056598 0.109176
H29   H     H_    0.740536 0.014430 0.570192 0.110066
H30   H     H_    0.731903 0.034247 0.927675 0.104940
H31   H     H_    0.230513 0.480161 0.448648 0.101708
H32   H     H_    0.240148 0.500128 0.056592 0.109179
H33   H     H_    0.229816 0.517976 0.576873 0.104348
H34   H     H_    0.900699 0.065127 0.035633 0.100478
H35   H     H_    0.231903 0.534249 0.927668 0.104841
H36   H     H_    0.307200 0.813094 0.504236 0.098680
H37   H     H_    0.212263 0.863929 0.999019 0.111920
H38   H     H_    0.304740 0.189572 0.496541 0.091927
H39   H     H_    0.291949 0.203127 0.000865 0.089800
H40   H     H_    0.714496 0.366922 0.503466 0.116614
H41   H     H_    0.712279 0.363920 0.999017 0.112104
H42   H     H_    0.724908 0.643083 0.504091 0.104692
H43   H     H_    0.791917 0.703148 0.000879 0.089856
H44   H     H_    0.137344 0.856025 0.351499 0.139570
H45   H     H_    0.392214 0.467007 0.548713 0.099826
H46   H     H_    0.026772 0.902330 0.402825 0.157744
H47   H     H_    0.192360 0.908143 0.419919 0.154527
H48   H     H_    0.859732 0.829210 0.074891 0.175350
H49   H     H_    0.978766 0.894329 0.080512 0.162369
H50   H     H_    0.893378 0.877849 0.998714 0.109141
H51   H     H_    0.119552 0.147000 0.651029 0.136086
H52   H     H_    0.032128 0.094336 0.591951 0.160812
H53   H     H_    0.200801 0.102515 0.588495 0.137902
H54   H     H_    0.138361 0.163708 0.853826 0.150979
H55   H     H_    0.180373 0.108361 0.921184 0.136188
H56   H     H_    0.397327 0.476539 0.940535 0.100801
H57   H     H_    0.018224 0.113815 0.895295 0.160350
H58   H     H_    0.359823 0.319223 0.424862 0.176166
H59   H     H_    0.388702 0.370798 0.497598 0.107029
H60   H     H_    0.469855 0.388304 0.414482 0.164770
H61   H     H_    0.359733 0.329208 0.074885 0.175070
H62   H     H_    0.478765 0.394329 0.080501 0.163239
H63   H     H_    0.393378 0.377844 0.998704 0.108937
H64   H     H_    0.360325 0.679860 0.575971 0.175002
H65   H     H_    0.386892 0.627872 0.504311 0.112414
H66   H     H_    0.473048 0.612740 0.586728 0.161931
H67   H     H_    0.395803 0.536360 0.437194 0.101411
H68   H     H_    0.638354 0.663710 0.853863 0.154485
H69   H     H_    0.680332 0.608369 0.921230 0.135901
H70   H     H_    0.518189 0.613828 0.895324 0.160458
H71   H     H_    0.112991 0.645568 0.558037 0.145794
H72   H     H_    0.251782 0.662185 0.970943 0.126537
H73   H     H_    0.111785 0.358339 0.443174 0.137875
H74   H     H_    0.092941 0.363580 0.067427 0.140314
H75   H     H_    0.766231 0.166244 0.529306 0.129433
H76   H     H_    0.751777 0.162180 0.970937 0.126603
H77   H     H_    0.755177 0.840987 0.469279 0.125742
H78   H     H_    0.400703 0.565130 0.035632 0.100402
H79   H     H_    0.592905 0.863594 0.067442 0.140125
H80   H     H_    0.548911 0.984567 0.375582 0.158793
H81   H     H_    0.554776 0.990088 0.123084 0.152972
H82   H     H_    0.549349 0.025792 0.633578 0.143711
H83   H     H_    0.538454 0.033551 0.865410 0.140729
H84   H     H_    0.045630 0.484104 0.380017 0.149755
H85   H     H_    0.054784 0.490096 0.123081 0.153173
H86   H     H_    0.038190 0.533592 0.636354 0.134207
H87   H     H_    0.038450 0.533552 0.865406 0.140404
H88   H     H_    0.086761 0.093453 0.408785 0.170856
H89   H     H_    0.952735 0.828436 0.547247 0.100267
H90   H     H_    0.088746 0.095103 0.091134 0.169950
H91   H     H_    0.093310 0.911520 0.586578 0.175757
H92   H     H_    0.078616 0.920387 0.907858 0.177055
H93   H     H_    0.577406 0.587357 0.402191 0.175367
H94   H     H_    0.588752 0.595109 0.091130 0.169847
H95   H     H_    0.570748 0.426891 0.597453 0.178552
H96   H     H_    0.578618 0.420384 0.907861 0.177040
O1    O     O_R   0.575450 0.828820 0.667950 -0.516629
O2    O     O_R   0.416860 0.942890 0.825320 -0.519571
O3    O     O_R   0.416860 0.057110 0.325320 -0.508944
O4    O     O_R   0.416860 0.057110 0.174680 -0.509819
O5    O     O_R   0.916860 0.442890 0.674680 -0.507298
O6    O     O_R   0.916860 0.442890 0.825320 -0.520080
O7    O     O_R   0.916860 0.557110 0.325320 -0.504201
O8    O     O_R   0.916860 0.557110 0.174680 -0.509227
O9    O     O_R   0.213790 0.953680 0.668330 -0.541682
O10   O     O_R   0.213790 0.953680 0.831670 -0.544395
O11   O     O_R   0.213790 0.046320 0.331670 -0.527708
O12   O     O_R   0.575450 0.828820 0.832050 -0.521009
O13   O     O_R   0.213790 0.046320 0.168330 -0.523249
O14   O     O_R   0.713790 0.453680 0.668330 -0.548496
O15   O     O_R   0.713790 0.453680 0.831670 -0.544352
O16   O     O_R   0.713790 0.546320 0.331670 -0.527996
O17   O     O_R   0.713790 0.546320 0.168330 -0.521727
O18   O     O_R   0.121360 0.817890 0.672660 -0.513379
O19   O     O_R   0.121360 0.817890 0.827340 -0.514731
O20   O     O_R   0.121360 0.182110 0.327340 -0.524485
O21   O     O_R   0.121360 0.182110 0.172660 -0.526767
O22   O     O_R   0.621360 0.317890 0.672660 -0.515843
O23   O     O_R   0.575450 0.171180 0.332050 -0.523159
O24   O     O_R   0.621360 0.317890 0.827340 -0.516029
O25   O     O_R   0.621360 0.682110 0.327340 -0.529559
O26   O     O_R   0.621360 0.682110 0.172660 -0.527913
O27   O     O_R   0.206850 0.711370 0.665820 -0.532664
O28   O     O_R   0.206850 0.711370 0.834180 -0.517091
O29   O     O_R   0.206850 0.288630 0.334180 -0.524220
O30   O     O_R   0.206850 0.288630 0.165820 -0.524245
O31   O     O_R   0.706850 0.211370 0.665820 -0.514319
O32   O     O_R   0.706850 0.211370 0.834180 -0.518041
O33   O     O_R   0.706850 0.788630 0.334180 -0.507478
O34   O     O_R   0.575450 0.171180 0.167950 -0.523571
O35   O     O_R   0.706850 0.788630 0.165820 -0.525402
O36   O     O_R   0.457710 0.733190 0.672630 -0.526918
O37   O     O_R   0.457710 0.733190 0.827370 -0.523354
O38   O     O_R   0.457710 0.266810 0.327370 -0.525072
O39   O     O_R   0.457710 0.266810 0.172630 -0.522103
O40   O     O_R   0.957710 0.233190 0.672630 -0.525408
O41   O     O_R   0.957710 0.233190 0.827370 -0.526751
O42   O     O_R   0.957710 0.766810 0.327370 -0.523331
O43   O     O_R   0.957710 0.766810 0.172630 -0.525307
O44   O     O_3   0.331690 0.831680 0.750000 -0.301699
O45   O     O_R   0.075450 0.328820 0.667950 -0.519540
O46   O     O_3   0.331690 0.168320 0.250000 -0.309734
O47   O     O_3   0.831690 0.331680 0.750000 -0.303593
O48   O     O_3   0.831690 0.668320 0.250000 -0.311283
O49   O     O_R   0.075450 0.328820 0.832050 -0.522851
O50   O     O_R   0.075450 0.671180 0.332050 -0.526834
O51   O     O_R   0.075450 0.671180 0.167950 -0.524679
O52   O     O_R   0.416860 0.942890 0.674680 -0.514532

loop_
_geom_bond_atom_site_label_1
_geom_bond_atom_site_label_2
_ccdc_geom_bond_type
C96   H35   S    
C6    C32   S    
C53   H50   S    
Cr6   O6    S    
C41   C50   S    
C41   H16   S    
C65   O2    A    
C21   C137  S    
C110  C118  A    
C54   H52   S    
C64   C152  S    
C94   H32   S    
C134  O19   A    
C126  H23   S    
C92   H30   S    
C44   H72   S    
C72   C101  A    
C98   O5    A    
C56   H60   S    
C113  C122  A    
C134  O28   A    
C4    C12   S    
C117  C126  A    
C58   H62   S    
Cr7   O48   S    
Cr5   O23   S    
C21   C48   S    
C119  C128  A    
C16   H43   S    
C80   C89   A    
C120  O7    A    
C71   C108  A    
C4    C56   S    
C52   H46   S    
C7    C33   S    
Cr4   O42   S    
C140  O35   A    
C55   H54   S    
Cr11  O16   S    
Cr2   O46   S    
C42   H17   S    
C11   C20   S    
C79   C109  S    
C135  O20   A    
C25   C140  S    
Cr8   O18   S    
C54   C152  S    
Cr3   O40   S    
C82   C91   A    
C24   H21   S    
Cr5   O34   S    
C8    C150  S    
C17   C43   S    
C30   H5    S    
C18   C44   S    
C128  H45   S    
C37   H11   S    
C47   H74   S    
C90   C92   A    
C95   H33   S    
C13   H20   S    
C111  C113  A    
C94   C96   A    
C59   H64   S    
C135  O29   A    
Cr9   O13   S    
Cr5   O3    S    
C22   C49   S    
C81   C90   A    
C132  H78   S    
C99   C101  A    
Cr3   O47   S    
C137  O22   A    
C17   C133  S    
C107  C110  A    
C36   C44   S    
C37   C45   S    
C127  H34   S    
C48   H75   S    
C41   C69   S    
C116  H92   S    
C16   C25   S    
C9    C151  S    
C62   C150  S    
Cr12  O27   S    
C64   C146  S    
Cr9   O46   S    
C50   C57   S    
C141  O1    A    
C60   H69   S    
Cr9   O20   S    
C145  O39   A    
C31   H6    S    
C146  O40   A    
C8    C17   S    
C106  C115  A    
C13   C45   S    
Cr1   O44   S    
C84   C93   A    
C45   H73   S    
C39   H14   S    
C15   H42   S    
C3    C11   S    
C86   C95   A    
C121  H96   S    
C83   H83   S    
C125  C127  A    
C43   C142  S    
C33   H8    S    
C69   C141  S    
C6    C69   S    
C147  O41   A    
C85   H85   S    
C123  C132  A    
C112  C114  A    
C90   H28   S    
C46   C68   S    
C70   C143  S    
C5    C58   S    
C33   C42   S    
C29   H4    S    
Cr12  O44   S    
C129  H56   S    
C91   H29   S    
C1    O9    A    
C40   C49   S    
C76   O11   A    
C42   C70   S    
C111  C119  A    
C77   C131  S    
C3    C29   S    
C98   O14   A    
C74   C107  A    
C3    C55   S    
C148  O42   A    
C146  O45   A    
C2    C44   S    
C149  O43   A    
C29   C38   S    
C32   C41   S    
C78   C111  A    
C75   C113  A    
C89   C91   A    
Cr1   O1    S    
C2    H19   S    
Cr11  O26   S    
C93   C95   A    
C38   H13   S    
C62   C148  S    
C79   C103  A    
Cr10  O47   S    
C62   C142  S    
C117  H88   S    
C120  O16   A    
C89   H27   S    
C82   H82   S    
C20   C47   S    
C141  O36   A    
C55   H55   S    
Cr11  O17   S    
Cr7   O8    S    
C65   C74   S    
C57   H25   S    
C65   O10   A    
C122  H93   S    
C35   C67   S    
Cr3   O41   S    
C144  O23   A    
C103  C105  A    
C20   C136  S    
C12   C35   S    
C19   C28   S    
Cr12  O37   S    
C114  C123  A    
C1    O52   A    
C116  C125  A    
C84   C104  A    
C8    H36   S    
C16   C61   S    
C86   C102  A    
C72   C87   S    
C2    C63   S    
C124  C126  A    
C53   H49   S    
Cr4   O35   S    
C6    C59   S    
C51   H79   S    
C75   C120  S    
C26   H89   S    
C56   H59   S    
C8    C142  S    
C19   C45   S    
Cr2   O29   S    
C84   H84   S    
C14   C22   S    
C112  C121  A    
C136  O30   A    
Cr10  O14   S    
C106  C108  A    
C28   C37   S    
C35   H22   S    
C30   C39   S    
C18   C134  S    
C12   H40   S    
C107  C116  A    
C124  H1    S    
C9    C18   S    
Cr2   O38   S    
C52   C150  S    
C118  C127  A    
C138  O24   A    
C53   C151  S    
C87   O13   A    
C140  O26   A    
C125  H12   S    
C58   H63   S    
C25   C33   S    
C59   H65   S    
C61   C70   S    
C119  H95   S    
C88   C96   A    
C36   H10   S    
Cr3   O32   S    
C78   C102  A    
C50   H77   S    
C97   C100  A    
C7    C70   S    
C14   C46   S    
C46   C49   S    
Cr8   O9    S    
C79   C112  A    
C145  O34   A    
Cr7   O50   S    
C71   C76   S    
Cr9   O21   S    
C67   C144  S    
C71   C100  A    
C19   C135  S    
C34   C62   S    
C31   C40   S    
Cr11  O48   S    
C138  O32   A    
C10   C152  S    
C24   C66   S    
C129  C132  A    
Cr6   O5    S    
C83   C99   A    
C5    C68   S    
C35   C48   S    
C108  C117  A    
C54   H51   S    
Cr12  O28   S    
C26   C150  S    
C60   H70   S    
C23   C50   S    
C81   C101  A    
C131  O8    A    
C133  O18   A    
C40   H15   S    
C10   C19   S    
C147  O49   A    
C11   H39   S    
C136  O21   A    
Cr8   O44   S    
C63   C151  S    
C5    C14   S    
C58   H61   S    
C9    H37   S    
C88   H87   S    
Cr4   O33   S    
C7    C16   S    
C32   H7    S    
Cr5   O46   S    
C61   H26   S    
Cr6   O49   S    
C3    C66   S    
C77   C114  A    
C7    C60   S    
Cr12  O36   S    
C37   C64   S    
C143  O37   A    
C54   H53   S    
C27   C151  S    
C115  C124  A    
C60   H68   S    
C121  C129  A    
C128  C130  A    
C74   C99   A    
Cr10  O24   S    
C27   C36   S    
C21   C30   S    
C22   C138  S    
C1    C73   S    
C23   C32   S    
C77   C105  A    
C34   H9    S    
C56   H58   S    
C13   C64   S    
C131  O17   A    
C27   H2    S    
Cr5   O4    S    
C40   C68   S    
C14   H41   S    
C43   H71   S    
C68   C145  S    
C39   C48   S    
C86   H86   S    
Cr11  O25   S    
C51   C61   S    
Cr9   O11   S    
C73   C97   A    
C83   C92   A    
Cr4   O48   S    
C17   C26   S    
C23   C139  S    
C53   H48   S    
Cr7   O7    S    
C11   C24   S    
C139  O25   A    
C137  O31   A    
C63   C149  S    
C118  H90   S    
C28   H3    S    
Cr7   O51   S    
C6    C15   S    
C26   C34   S    
C38   C66   S    
C133  O27   A    
C78   C98   S    
C52   H47   S    
Cr6   O47   S    
Cr4   O43   S    
C36   C63   S    
Cr1   O52   S    
C42   C51   S    
C55   H57   S    
C85   C94   A    
C15   C23   S    
C80   C100  A    
C15   C57   S    
C93   H31   S    
Cr8   O19   S    
C49   H76   S    
C85   C105  A    
C20   C29   S    
Cr10  O22   S    
C123  H94   S    
C72   C110  A    
C22   C31   S    
C143  O12   A    
C81   H81   S    
C139  O33   A    
C12   C21   S    
Cr2   O30   S    
C80   H80   S    
C25   C51   S    
C10   H38   S    
Cr10  O15   S    
C66   C147  S    
C102  C104  A    
Cr1   O2    S    
C38   C47   S    
C109  O15   A    
C76   O3    A    
Cr2   O39   S    
C28   C152  S    
C88   C103  A    
C148  O50   A    
C149  O51   A    
Cr3   O31   S    
C52   H44   S    
C24   C47   S    
C39   C67   S    
C142  H18   S    
C18   C27   S    
C109  O6    A    
C10   C13   S    
C4    C67   S    
Cr8   O10   S    
C46   H24   S    
C2    C9    S    
C73   C106  A    
C75   C104  A    
C130  H67   S    
C82   C97   A    
Cr6   O45   S    
Cr1   O12   S    
C144  O38   A    
C115  H91   S    
C57   C69   S    
C34   C43   S    
C59   H66   S    
C87   O4    A    
C122  C130  A    
C4    C30   S    
C5    C31   S    
