data_str_m9_o16_o26_f0_sra.sym.47
_audit_creation_date              2012-12-11T15:15:42-0500
_audit_creation_method            fapswitch 2.2
_symmetry_space_group_name_H-M    P1
_symmetry_Int_Tables_number       1
_space_group_crystal_system       triclinic
_cell_length_a                    20.576784
_cell_length_b                    22.755675
_cell_length_c                    6.945703
_cell_angle_alpha                 89.976324
_cell_angle_beta                  86.833718
_cell_angle_gamma                 89.99633
_cell_volume                      3247.28128934

loop_
_atom_site_label
_atom_site_type_symbol
_atom_type_description
_atom_site_fract_x
_atom_site_fract_y
_atom_site_fract_z
_atom_type_partial_charge
O1    O     O_R   0.387100 0.552640 0.378490 -0.535175
O2    O     O_R   0.612900 0.052640 0.621510 -0.536531
O3    O     O_R   0.249610 0.559600 0.072250 -0.542837
O4    O     O_R   0.750390 0.059600 0.927750 -0.542978
O5    O     O_R   0.249120 0.447360 0.902040 -0.541522
O6    O     O_R   0.750880 0.947360 0.097960 -0.540965
C1    C     C_R   0.227417 0.573697 0.244508 0.689478
C2    C     C_R   0.772599 0.073681 0.755476 0.689846
O7    O     O_R   0.386610 0.559560 0.048860 -0.537172
O8    O     O_R   0.613390 0.059560 0.951140 -0.537278
O9    O     O_R   0.387100 0.447320 0.878470 -0.534671
O10   O     O_R   0.612900 0.947320 0.121530 -0.534645
C3    C     C_R   0.407868 0.574790 0.214046 0.719240
C4    C     C_R   0.592124 0.074771 0.785786 0.715704
O11   O     O_R   0.249120 0.552680 0.402050 -0.544265
O12   O     O_R   0.750880 0.052680 0.597950 -0.544172
O13   O     O_3   0.318110 0.463180 0.223790 -0.369848
O14   O     O_3   0.681890 0.963180 0.776210 -0.368997
V1    V     V_3+5 0.318110 0.506830 0.948930 1.445955
V2    V     V_3+5 0.681890 0.006830 0.051070 1.445547
O15   O     O_R   0.386610 0.440400 0.548840 -0.536857
O16   O     O_R   0.613390 0.940400 0.451160 -0.537138
C5    C     C_R   0.407990 0.425283 0.714176 0.706342
C6    C     C_R   0.592000 0.925280 0.285991 0.705474
O17   O     O_R   0.249610 0.440440 0.572240 -0.547619
O18   O     O_R   0.750390 0.940440 0.427760 -0.547368
C7    C     C_R   0.227330 0.426189 0.744683 0.692034
C8    C     C_R   0.772700 0.926217 0.255321 0.694633
V3    V     V_3+5 0.318110 0.493170 0.448930 1.439740
V4    V     V_3+5 0.681890 0.993170 0.551070 1.439201
O19   O     O_3   0.318110 0.536820 0.723940 -0.369329
O20   O     O_3   0.681890 0.036820 0.276060 -0.369808
C9    C     C_R   0.175152 0.381545 0.763772 -0.050261
C10   C     C_R   0.824981 0.881674 0.236033 -0.052608
C11   C     C_R   0.158434 0.347874 0.604125 -0.134034
C12   C     C_R   0.841536 0.847673 0.395165 -0.128375
C13   C     C_R   0.110703 0.304312 0.624826 -0.137860
C14   C     C_R   0.889378 0.804214 0.374060 -0.140754
C15   C     C_R   0.078257 0.293966 0.805201 0.013488
C16   C     C_R   0.922111 0.794307 0.193811 0.046576
C17   C     C_R   0.094376 0.328233 0.963748 -0.058223
C18   C     C_R   0.906165 0.828936 0.035829 -0.043276
C19   C     C_R   0.142425 0.371322 0.943606 -0.162648
C20   C     C_R   0.857993 0.871904 0.056346 -0.159976
C21   C     C_R   0.882107 0.201118 0.864847 -0.029181
C22   C     C_R   0.118518 0.701660 0.136005 -0.022037
C23   C     C_R   0.831219 0.160540 0.879666 -0.180292
C24   C     C_R   0.169274 0.660952 0.121094 -0.181803
C25   C     C_R   0.871947 0.114704 0.581912 -0.176700
C26   C     C_R   0.127979 0.614690 0.417641 -0.173030
C27   C     C_R   0.923735 0.154432 0.569953 -0.042450
C28   C     C_R   0.076300 0.654545 0.429623 -0.048599
C29   C     C_R   0.929546 0.197383 0.712374 0.187883
C30   C     C_R   0.070793 0.697725 0.287662 0.201055
C31   C     C_2   0.028128 0.247208 0.830624 0.384364
C32   C     C_2   0.972487 0.747753 0.168075 0.445670
C33   C     C_2   0.983829 0.239760 0.695780 -0.288329
C34   C     C_2   0.016444 0.740044 0.303821 -0.337654
C35   C     C_R   0.825773 0.116956 0.738339 -0.056217
C36   C     C_R   0.174345 0.617067 0.261691 -0.057521
H1    H     H_    0.182978 0.354427 0.463776 0.131760
H2    H     H_    0.816780 0.853890 0.535368 0.132559
H3    H     H_    0.795598 0.163739 0.999997 0.125835
H4    H     H_    0.205094 0.664284 0.001307 0.127045
H5    H     H_    0.868847 0.081382 0.471452 0.139872
H6    H     H_    0.130849 0.581176 0.527661 0.138012
H7    H     H_    0.986961 0.266439 0.566003 0.154863
H8    H     H_    0.012858 0.766345 0.434314 0.156060
H9    H     H_    0.069643 0.321900 0.103873 0.162802
H10   H     H_    0.931143 0.822998 0.895874 0.154418
H11   H     H_    0.884464 0.235409 0.972148 0.151108
H12   H     H_    0.116484 0.736199 0.029373 0.154665
H13   H     H_    0.153794 0.396700 0.069289 0.124866
H14   H     H_    0.846772 0.897568 0.931066 0.124738
H15   H     H_    0.100054 0.278048 0.500443 0.172157
H16   H     H_    0.899910 0.777712 0.498048 0.142684
H17   H     H_    0.959959 0.150834 0.451677 0.209677
H18   H     H_    0.039921 0.650890 0.547530 0.192400
C37   C     C_R   0.576924 0.361250 0.670448 -0.139619
C38   C     C_R   0.423700 0.860529 0.346324 -0.135216
H19   H     H_    0.535697 0.447423 0.651085 0.137178
H20   H     H_    0.464948 0.946662 0.366126 0.124496
H21   H     H_    0.667393 0.278371 0.664544 0.130193
H22   H     H_    0.333560 0.777332 0.359811 0.133441
H23   H     H_    0.625998 0.377531 0.641543 0.137340
H24   H     H_    0.374960 0.876457 0.383332 0.140239
C39   C     C_R   0.461690 0.382030 0.713352 -0.058869
C40   C     C_R   0.538304 0.881993 0.288054 -0.056565
C41   C     C_R   0.474709 0.095157 0.824339 -0.275318
C42   C     C_R   0.524867 0.595679 0.163910 -0.247512
C43   C     C_R   0.420790 0.132335 0.831406 0.457624
C44   C     C_R   0.578518 0.633145 0.150122 0.516904
C45   C     C_R   0.428963 0.192825 0.803963 -0.215412
C46   C     C_R   0.570581 0.693346 0.184222 -0.230440
C47   C     C_R   0.491386 0.217680 0.766496 0.008973
C48   C     C_R   0.508519 0.717794 0.231065 0.005979
C49   C     C_R   0.546376 0.178835 0.757543 0.070592
C50   C     C_R   0.453761 0.678712 0.245339 0.070041
C51   C     C_R   0.501023 0.279755 0.738022 0.104507
C52   C     C_R   0.499009 0.779701 0.263597 0.107367
C53   C     C_R   0.565446 0.301013 0.700585 0.127131
C54   C     C_R   0.434987 0.800519 0.311089 0.126585
C55   C     C_R   0.618244 0.262174 0.692811 -0.192563
C56   C     C_R   0.382412 0.761459 0.323986 -0.190019
C57   C     C_R   0.609001 0.202202 0.720921 -0.169178
C58   C     C_R   0.391498 0.701677 0.291390 -0.166159
C59   C     C_R   0.449375 0.321746 0.744530 -0.203462
C60   C     C_R   0.550403 0.821943 0.251498 -0.202065
C61   C     C_R   0.525567 0.401231 0.676049 -0.145016
C62   C     C_R   0.474868 0.900704 0.336088 -0.148601
C63   C     C_R   0.537457 0.117333 0.787092 -0.140210
C64   C     C_R   0.462519 0.617398 0.211380 -0.158441
H25   H     H_    0.399209 0.309229 0.771711 0.107703
H26   H     H_    0.600259 0.809757 0.216537 0.110210
H27   H     H_    0.467845 0.048453 0.848541 0.152856
H28   H     H_    0.531586 0.549096 0.137110 0.163101
H29   H     H_    0.385545 0.219280 0.813415 0.161326
H30   H     H_    0.613925 0.719885 0.172860 0.165088
H31   H     H_    0.651587 0.174155 0.713601 0.102402
H32   H     H_    0.349089 0.673451 0.302928 0.103850
S1    S     S_3+6 0.342319 0.102998 0.879381 0.062452
O21   O     O_2   0.325997 0.106142 0.092639 -0.277427
O22   O     O_2   0.292874 0.137906 0.776148 -0.302737
O23   O     O_3   0.339911 0.032361 0.808963 -0.475220
H33   H     H_    0.350164 0.033363 0.667947 0.341263
S2    S     S_3+6 0.656563 0.604414 0.090980 0.046408
O24   O     O_2   0.695170 0.647435 0.966534 -0.297389
O25   O     O_2   0.690634 0.594245 0.273950 -0.294469
O26   O     O_3   0.650398 0.540361 0.972569 -0.507495
H34   H     H_    0.695847 0.526840 0.947736 0.379601
S3    S     S_3+6 0.028769 0.202716 0.040999 -0.009185
O27   O     O_2   0.983256 0.229438 0.193056 -0.376814
O28   O     O_2   0.007228 0.140998 0.000984 -0.308910
O29   O     O_3   0.104027 0.200889 0.123802 -0.474856
H35   H     H_    0.131953 0.184498 0.016135 0.375337
S4    S     S_3+6 0.972683 0.703927 0.956214 -0.024581
O30   O     O_2   0.019006 0.730920 0.806624 -0.403284
O31   O     O_2   0.993596 0.642048 0.996708 -0.313369
O32   O     O_3   0.897582 0.702651 0.872145 -0.477863
H36   H     H_    0.903152 0.684114 0.743263 0.371333

loop_
_geom_bond_atom_site_label_1
_geom_bond_atom_site_label_2
_ccdc_geom_bond_type
C19   H13   S    
V4    O20   S    
C41   H27   S    
S2    O24   D    
C21   H11   S    
O13   V3    S    
C42   C64   A    
O4    C2    A    
S3    O29   S    
V1    O19   S    
C56   C58   A    
C15   C17   A    
C14   H16   S    
C7    C9    S    
O9    V1    S    
C18   C20   A    
H20   C62   S    
C11   C13   A    
C3    C64   S    
O3    C1    A    
C2    C35   S    
C23   H3    S    
C49   C63   A    
C47   C51   A    
C24   H4    S    
O12   V4    S    
C18   H10   S    
C60   H26   S    
O7    C3    A    
C59   H25   S    
S1    O23   S    
C38   H24   S    
C9    C11   A    
O5    C7    A    
O7    V1    S    
O6    C8    A    
O8    V2    S    
C25   C27   A    
C48   C50   A    
C26   C28   A    
O3    V1    S    
O14   V4    S    
C42   H28   S    
C41   C43   A    
C22   H12   S    
C25   C35   A    
C24   C36   A    
C40   C62   A    
C16   C18   A    
C13   H15   S    
C8    C10   S    
C2    O12   A    
C5    C39   S    
C17   C19   A    
O10   V2    S    
C45   H29   S    
C33   H7    S    
S4    O32   S    
C28   H18   S    
O1    V3    S    
C32   S4    S    
C28   C30   A    
O11   V3    S    
C21   C23   A    
O17   V3    S    
C4    C63   S    
C13   C15   A    
C22   C24   A    
C52   C60   A    
C23   C35   A    
C50   C64   A    
C37   C61   A    
C9    C19   A    
C10   C20   A    
S4    O31   D    
O8    C4    A    
C29   C33   S    
C1    O11   A    
S2    O26   S    
C16   C32   S    
O15   V3    S    
C38   C54   A    
C12   H2    S    
C20   H14   S    
C27   H17   S    
C43   C45   A    
C6    C40   S    
C42   C44   A    
C22   C30   A    
C44   C46   A    
C39   C59   A    
C11   H1    S    
C46   C48   A    
C26   H6    S    
S1    O21   D    
C25   H5    S    
O5    V1    S    
C34   H8    S    
C51   C53   A    
C52   C54   A    
H19   C61   S    
O18   V4    S    
C31   S3    S    
C31   C33   D    
O17   C7    A    
H22   C56   S    
C55   C57   A    
O16   C6    A    
O1    C3    A    
S3    O27   D    
C1    C36   S    
C37   H23   S    
C51   C59   A    
C17   H9    S    
O26   H34   S    
V2    O20   S    
C41   C63   A    
S2    O25   D    
O16   V4    S    
C58   H32   S    
C37   C53   A    
S4    O30   D    
S3    O28   D    
C44   S2    S    
O32   H36   S    
C47   C49   A    
O29   H35   S    
C39   C61   A    
C15   C31   S    
O6    V2    S    
O10   C6    A    
O18   C8    A    
C50   C58   A    
C54   C56   A    
O2    V4    S    
C26   C36   A    
H21   C55   S    
O15   C5    A    
C49   C57   A    
V3    O19   S    
C12   C14   A    
C14   C16   A    
C46   H30   S    
C45   C47   A    
C40   C60   A    
C48   C52   A    
O9    C5    A    
O13   V1    S    
C10   C12   A    
C32   C34   D    
O14   V2    S    
O2    C4    A    
S1    O22   D    
C21   C29   A    
O4    V2    S    
C30   C34   S    
C53   C55   A    
C43   S1    S    
C38   C62   A    
C57   H31   S    
C27   C29   A    
O23   H33   S    
