data_str_m3_o10_o29_f0_pcu.sym.230
_audit_creation_date              2012-12-10T16:59:18-0500
_audit_creation_method            fapswitch 2.2
_symmetry_space_group_name_H-M    P1
_symmetry_Int_Tables_number       1
_space_group_crystal_system       triclinic
_cell_length_a                    7.762515
_cell_length_b                    8.56165
_cell_length_c                    27.72453
_cell_angle_alpha                 90.995761
_cell_angle_beta                  86.196588
_cell_angle_gamma                 93.797255
_cell_volume                      1834.32004698

loop_
_atom_site_label
_atom_site_type_symbol
_atom_type_description
_atom_site_fract_x
_atom_site_fract_y
_atom_site_fract_z
_atom_type_partial_charge
C1    C     C_R   0.545882 0.794751 0.498734 0.971820
C2    C     C_R   0.454118 0.205249 0.501266 0.971819
C3    C     C_R   0.516980 0.497779 0.897855 -0.048240
C4    C     C_R   0.483014 0.502221 0.102145 -0.048240
C5    C     C_R   0.554790 0.637905 0.872296 -0.030158
C6    C     C_R   0.445205 0.362096 0.127703 -0.030159
C7    C     C_R   0.588705 0.777630 0.897430 -0.128819
C8    C     C_R   0.411287 0.222371 0.102569 -0.128819
C9    C     C_R   0.486206 0.356764 0.872004 -0.024370
C10   C     C_R   0.513789 0.643236 0.127996 -0.024369
C11   C     C_R   0.510289 0.498970 0.646244 -0.100901
C12   C     C_R   0.489710 0.501030 0.353755 -0.100901
C13   C     C_R   0.532575 0.643482 0.025760 0.048591
C14   C     C_R   0.467418 0.356520 0.974240 0.048591
C15   C     C_R   0.458087 0.357762 0.025496 0.048499
C16   C     C_R   0.541906 0.642239 0.974504 0.048499
C17   C     C_R   0.491099 0.501176 0.050896 0.076088
C18   C     C_R   0.508894 0.498825 0.949104 0.076088
C19   C     C_R   0.563105 0.782766 0.053068 -0.222096
C20   C     C_R   0.436889 0.217235 0.946932 -0.222095
C21   C     C_R   0.553321 0.782290 0.103109 -0.130006
C22   C     C_R   0.446674 0.217711 0.896891 -0.130006
C23   C     C_R   0.502940 0.499910 0.593830 0.895428
C24   C     C_R   0.497060 0.500090 0.406170 0.895428
C25   C     C_R   0.583487 0.780020 0.947451 -0.221229
C26   C     C_R   0.416504 0.219981 0.052549 -0.221230
C27   C     C_2   0.569990 0.958352 0.498006 -0.362882
C28   C     C_2   0.430010 0.041648 0.501994 -0.362882
C29   C     C_R   0.556833 0.635032 0.821830 0.578385
C30   C     C_R   0.443163 0.364968 0.178170 0.578385
C31   C     C_R   0.494228 0.358427 0.821492 0.541886
C32   C     C_R   0.505768 0.641573 0.178508 0.541886
C33   C     C_R   0.365542 0.472371 0.725701 -0.104124
C34   C     C_R   0.634456 0.527629 0.274298 -0.104123
C35   C     C_R   0.357790 0.474556 0.675878 -0.172575
C36   C     C_R   0.642209 0.525445 0.324122 -0.172575
C37   C     C_R   0.670320 0.521406 0.667015 -0.237203
C38   C     C_R   0.329679 0.478591 0.332985 -0.237203
C39   C     C_R   0.677820 0.520870 0.716987 0.340123
C40   C     C_R   0.322179 0.479127 0.283013 0.340123
C41   C     C_R   0.524565 0.496543 0.746358 0.231099
C42   C     C_R   0.475433 0.503456 0.253642 0.231098
H1    H     H_    0.013712 0.383227 0.463416 0.194329
H2    H     H_    0.986288 0.616773 0.536584 0.194329
H3    H     H_    0.751743 0.548296 0.251423 0.200140
H4    H     H_    0.248255 0.451706 0.748577 0.200141
H5    H     H_    0.702096 0.009679 0.494200 0.182372
H6    H     H_    0.297904 0.990321 0.505800 0.182372
N1    N     N_R   0.528077 0.496397 0.797681 -0.348573
N2    N     N_R   0.471920 0.503602 0.202319 -0.348573
N3    N     N_2   0.950320 0.457960 0.486880 -0.173841
N4    N     N_2   0.049680 0.542040 0.513120 -0.173841
O1    O     O_R   0.389250 0.738570 0.503220 -0.610727
O2    O     O_R   0.610750 0.261430 0.496780 -0.610727
O3    O     O_R   0.678390 0.711630 0.494810 -0.629662
O4    O     O_R   0.321610 0.288370 0.505190 -0.629662
O5    O     O_R   0.355440 0.513440 0.575450 -0.617315
O6    O     O_R   0.644560 0.486560 0.424550 -0.617314
O7    O     O_R   0.644590 0.486500 0.567040 -0.629075
O8    O     O_R   0.355410 0.513500 0.432960 -0.629075
O9    O     O_2   0.585744 0.769531 0.796997 -0.498980
O10   O     O_2   0.414253 0.230468 0.203003 -0.498980
O11   O     O_2   0.532113 0.776369 0.203753 -0.513545
O12   O     O_2   0.467883 0.223631 0.796247 -0.513544
Zn1   Zn    Zn3+2 0.306940 0.517990 0.505620 0.960212
Zn2   Zn    Zn3+2 0.693060 0.482010 0.494380 0.960212
H7    H     H_    0.789282 0.540449 0.644579 0.181807
H8    H     H_    0.210718 0.459547 0.355421 0.181806
Br1   Br    Br    0.898158 0.551609 0.744035 -0.506373
Br2   Br    Br    0.101840 0.448385 0.255965 -0.506372
H9    H     H_    0.620534 0.886404 0.878479 0.193991
H10   H     H_    0.379458 0.113597 0.121521 0.193991
H11   H     H_    0.766886 0.544389 0.339392 0.190762
H12   H     H_    0.233114 0.455613 0.660607 0.190762
H13   H     H_    0.578662 0.891934 0.122256 0.195001
H14   H     H_    0.421333 0.108066 0.877744 0.195000
H15   H     H_    0.595506 0.895411 0.037218 0.139953
H16   H     H_    0.404490 0.104590 0.962783 0.139952
H17   H     H_    0.613226 0.892923 0.963491 0.140208
H18   H     H_    0.386762 0.107079 0.036509 0.140209

loop_
_geom_bond_atom_site_label_1
_geom_bond_atom_site_label_2
_ccdc_geom_bond_type
C35   H12   S    
C8    C26   A    
C14   C18   A    
C34   C42   A    
C22   H14   S    
C39   C41   A    
C29   N1    A    
C23   O7    A    
C40   Br2   S    
C19   C21   A    
O7    Zn2   S    
C7    H9    S    
C9    C22   A    
C38   H8    S    
O4    Zn1   S    
C3    C18   A    
C23   O5    A    
C19   H15   S    
C1    O1    A    
O6    Zn2   S    
C12   C36   A    
O1    Zn1   S    
H2    N4    S    
C40   C42   A    
C30   N2    A    
C33   H4    S    
C31   N1    A    
C41   N1    S    
C5    C29   A    
C10   C21   A    
C29   O9    S    
C8    H10   S    
C13   C19   A    
N3    N4    D    
C14   C20   A    
C4    C6    A    
C2    O2    A    
C5    C7    A    
C15   C26   A    
C6    C8    A    
C26   H18   S    
N3    Zn2   S    
C3    C9    A    
C24   O8    A    
C39   Br1   S    
C34   H3    S    
C32   N2    A    
C42   N2    S    
C4    C17   A    
C24   O6    A    
C6    C30   A    
C20   C22   A    
O8    Zn1   S    
C30   O10   S    
C4    C10   A    
O3    Zn2   S    
C11   C37   A    
C27   H5    S    
C16   C25   A    
C15   C17   A    
C21   H13   S    
C28   H6    S    
C25   H17   S    
C31   O12   S    
C32   O11   S    
O5    Zn1   S    
C3    C5    A    
O2    Zn2   S    
C13   C17   A    
C12   C24   S    
C7    C25   A    
C20   H16   S    
C33   C41   A    
C11   C35   A    
C1    O3    A    
C37   C39   A    
C2    O4    A    
C38   C40   A    
H1    N3    S    
C37   H7    S    
C11   C23   S    
C33   C35   A    
C34   C36   A    
C12   C38   A    
C36   H11   S    
C9    C31   A    
C10   C32   A    
C16   C18   A    
C13   C16   A    
C27   C28   D    
C1    C27   S    
C14   C15   A    
C2    C28   S    
N4    Zn1   S    
