data_str_m3_o12_o15_f0_pcu.sym.112
_audit_creation_date              2012-12-10T17:16:34-0500
_audit_creation_method            fapswitch 2.2
_symmetry_space_group_name_H-M    P1
_symmetry_Int_Tables_number       1
_space_group_crystal_system       triclinic
_cell_length_a                    10.188376
_cell_length_b                    10.670829
_cell_length_c                    10.763032
_cell_angle_alpha                 91.358009
_cell_angle_beta                  95.444353
_cell_angle_gamma                 78.267748
_cell_volume                      1140.51375061

loop_
_atom_site_label
_atom_site_type_symbol
_atom_type_description
_atom_site_fract_x
_atom_site_fract_y
_atom_site_fract_z
_atom_type_partial_charge
C1    C     C_R   0.443216 0.505367 0.266583 0.811142
C2    C     C_R   0.492132 0.740948 0.484481 0.898738
C3    C     C_R   0.751900 0.057470 0.461960 -0.051535
C4    C     C_R   0.245311 0.943030 0.526895 -0.042447
C5    C     C_R   0.840418 0.978574 0.388143 -0.095503
C6    C     C_R   0.155338 0.022372 0.599085 -0.101231
C7    C     C_R   0.801211 0.875372 0.324865 -0.096073
C8    C     C_R   0.194745 0.124000 0.665132 -0.107499
C9    C     C_R   0.677866 0.845245 0.343347 -0.104430
C10   C     C_R   0.319559 0.152841 0.650196 -0.107073
C11   C     C_R   0.591660 0.919030 0.425561 0.079109
C12   C     C_R   0.556659 0.486776 0.733627 0.816833
C13   C     C_R   0.406547 0.079883 0.568049 0.089033
C14   C     C_R   0.621207 0.034451 0.472775 0.071306
C15   C     C_R   0.376779 0.965195 0.519467 0.070455
C16   C     C_R   0.479007 0.877935 0.464331 -0.231839
C17   C     C_R   0.519709 0.121122 0.530181 -0.232073
C18   C     C_2   0.408250 0.497154 0.133331 0.210797
C19   C     C_2   0.589507 0.461445 0.866658 0.204399
C20   C     C_2   0.503087 0.431181 0.065360 -0.200063
C21   C     C_2   0.490684 0.436476 0.930686 -0.221858
C22   C     C_2   0.073983 0.489733 0.491313 -0.011986
C23   C     C_2   0.926283 0.509048 0.510417 -0.005605
C24   C     C_R   0.507470 0.258588 0.513698 0.854977
H1    H     H_    0.127018 0.182949 0.724759 0.160494
H2    H     H_    0.598523 0.381855 0.110329 0.243385
H3    H     H_    0.884447 0.576983 0.579366 0.205872
H4    H     H_    0.116721 0.420182 0.424176 0.193701
H5    H     H_    0.894881 0.424693 0.797989 0.361569
H6    H     H_    0.104147 0.597136 0.205745 0.386022
H7    H     H_    0.808997 0.204999 0.215820 0.382782
H8    H     H_    0.191645 0.809689 0.766146 0.385894
H9    H     H_    0.868097 0.816214 0.264668 0.188255
H10   H     H_    0.789448 0.132869 0.513569 0.181608
H11   H     H_    0.209157 0.867299 0.474407 0.188767
H12   H     H_    0.939171 0.998090 0.379096 0.182531
H13   H     H_    0.055723 0.003849 0.605517 0.175503
H14   H     H_    0.650550 0.763316 0.293940 0.171052
H15   H     H_    0.347075 0.233454 0.701835 0.142987
H16   H     H_    0.392758 0.431295 0.883769 0.217361
N1    N     N_2   0.157300 0.551390 0.551120 0.037060
N2    N     N_2   0.842700 0.448610 0.448880 0.042642
O1    O     O_R   0.568940 0.489660 0.307530 -0.571654
O2    O     O_2   0.816644 0.334527 0.989451 -0.288435
O3    O     O_3   0.850850 0.506294 0.835573 -0.452304
O4    O     O_2   0.268232 0.673304 0.973304 -0.224043
O5    O     O_2   0.174063 0.483832 0.002206 -0.229993
O6    O     O_3   0.155352 0.658489 0.176290 -0.524416
O7    O     O_2   0.951876 0.397052 0.235386 -0.226753
O8    O     O_2   0.006431 0.231424 0.396992 -0.372226
O9    O     O_3   0.769321 0.269319 0.276765 -0.523911
O10   O     O_2   0.993080 0.770551 0.595943 -0.372654
O11   O     O_2   0.052034 0.612985 0.764779 -0.189359
O12   O     O_R   0.431060 0.510340 0.692470 -0.575254
O13   O     O_3   0.232288 0.737593 0.713338 -0.480799
O14   O     O_R   0.348880 0.522640 0.340350 -0.603705
O15   O     O_R   0.651120 0.477360 0.659650 -0.607815
O16   O     O_R   0.610030 0.300280 0.483580 -0.587895
O17   O     O_R   0.389970 0.699720 0.516420 -0.570134
O18   O     O_R   0.389970 0.333270 0.516400 -0.631216
O19   O     O_R   0.610030 0.666730 0.483600 -0.620434
O20   O     O_2   0.743159 0.560146 0.043773 -0.219337
S1    S     S_3+6 0.753141 0.464880 0.938232 0.089032
S2    S     S_3+6 0.248173 0.578721 0.067141 0.091355
S3    S     S_3+6 0.897519 0.334981 0.337784 0.103440
S4    S     S_3+6 0.103446 0.669987 0.657731 0.116281
Zn1   Zn    Zn3+2 0.646940 0.477980 0.478080 1.062843
Zn2   Zn    Zn3+2 0.353060 0.522020 0.521920 1.064328

loop_
_geom_bond_atom_site_label_1
_geom_bond_atom_site_label_2
_ccdc_geom_bond_type
N2    S3    S    
O1    Zn1   S    
O20   S1    D    
O11   S4    D    
C23   H3    S    
O17   Zn2   S    
C2    C16   S    
C11   C16   A    
O19   Zn1   S    
H8    O13   S    
C2    O19   A    
C13   C17   A    
C24   O18   A    
C4    C15   A    
C13   C15   A    
H5    O3    S    
C4    H11   S    
O10   S4    D    
C22   H4    S    
C8    H1    S    
C7    H9    S    
C14   C17   A    
C18   S2    S    
C1    C18   S    
N1    S4    S    
C23   N2    D    
C20   H2    S    
C3    C14   A    
H7    O9    S    
C12   O15   A    
C12   C19   S    
H6    O6    S    
C9    H14   S    
C19   C21   D    
C1    O14   A    
O15   Zn1   S    
N1    Zn2   S    
C18   C20   D    
C9    C11   A    
O2    S1    D    
O3    S1    S    
N2    Zn1   S    
C11   C14   A    
C6    H13   S    
C17   C24   S    
O6    S2    S    
C15   C16   A    
C22   N1    D    
C5    H12   S    
C7    C9    A    
O16   Zn1   S    
O5    S2    D    
O13   S4    S    
O12   Zn2   S    
C20   C21   S    
O18   Zn2   S    
C24   O16   A    
C4    C6    A    
O9    S3    S    
O4    S2    D    
O7    S3    D    
C5    C7    A    
O8    S3    D    
C2    O17   A    
C6    C8    A    
C3    H10   S    
O14   Zn2   S    
C1    O1    A    
C8    C10   A    
C12   O12   A    
C22   C23   S    
C19   S1    S    
C10   H15   S    
C3    C5    A    
C10   C13   A    
C21   H16   S    
