data_str_m12_o9_o10_f0_bcu.sym.43
_audit_creation_date              2012-12-11T17:37:48-0500
_audit_creation_method            fapswitch 2.2
_symmetry_space_group_name_H-M    P1
_symmetry_Int_Tables_number       1
_space_group_crystal_system       triclinic
_cell_length_a                    13.034634
_cell_length_b                    13.049553
_cell_length_c                    15.483291
_cell_angle_alpha                 117.371945
_cell_angle_beta                  63.523596
_cell_angle_gamma                 97.98388
_cell_volume                      2086.24338954

loop_
_atom_site_label
_atom_site_type_symbol
_atom_type_description
_atom_site_fract_x
_atom_site_fract_y
_atom_site_fract_z
_atom_type_partial_charge
C1    C     C_R   0.999590 0.832829 0.057419 -0.107855
C2    C     C_R   0.305548 0.583325 0.787048 -0.149908
C3    C     C_R   0.258988 0.418153 0.048626 -0.147595
C4    C     C_R   0.679249 0.475217 0.219329 -0.137359
C5    C     C_R   0.039391 0.277555 0.684359 -0.132493
C6    C     C_R   0.361583 0.436328 0.976210 0.150899
C7    C     C_R   0.023808 0.166249 0.676520 0.067077
C8    C     C_R   0.307588 0.540928 0.686604 0.057806
C9    C     C_R   0.012565 0.149042 0.036737 0.052684
C10   C     C_R   0.386051 0.987297 0.120919 -0.114191
C11   C     C_R   0.335823 0.956384 0.205658 -0.161011
C12   C     C_R   0.673005 0.553395 0.319973 0.041083
C13   C     C_R   0.226136 0.006040 0.288791 0.116233
C14   C     C_R   0.168029 0.087127 0.286340 -0.182834
C15   C     C_R   0.218521 0.117252 0.201382 -0.130974
C16   C     C_R   0.755776 0.518937 0.893537 -0.152831
C17   C     C_R   0.327500 0.067355 0.118653 -0.088291
C18   C     C_R   0.150610 0.068773 0.481986 -0.236962
C19   C     C_R   0.074335 0.058675 0.575869 0.065807
C20   C     C_R   0.048214 0.946586 0.567628 0.076023
C21   C     C_R   0.092751 0.852195 0.466683 -0.217966
C22   C     C_R   0.130965 0.869826 0.375013 0.045395
C23   C     C_R   0.662502 0.458757 0.926202 0.157731
C24   C     C_R   0.172830 0.977784 0.380878 0.030921
C25   C     C_R   0.983150 0.907173 0.727152 0.046514
C26   C     C_R   0.897437 0.879469 0.805935 -0.319522
C27   C     C_R   0.786635 0.862356 0.811668 0.083672
C28   C     C_R   0.024259 0.698825 0.297928 -0.132964
C29   C     C_R   0.758571 0.879589 0.741222 -0.010258
C30   C     C_R   0.844174 0.908821 0.661895 -0.033181
C31   C     C_R   0.957030 0.922461 0.654760 -0.031847
C32   C     C_R   0.867053 0.348574 0.347184 -0.112348
C33   C     C_R   0.751428 0.384276 0.390493 -0.109749
C34   C     C_R   0.089031 0.792242 0.294546 0.077373
C35   C     C_R   0.709851 0.498585 0.469531 0.114638
C36   C     C_R   0.781805 0.573089 0.511686 -0.190999
C37   C     C_R   0.898345 0.538743 0.464416 -0.133924
C38   C     C_R   0.941424 0.427314 0.380585 -0.104236
C39   C     C_R   0.506610 0.549588 0.585516 -0.231529
C40   C     C_R   0.676284 0.421376 0.990402 -0.124868
C41   C     C_R   0.395428 0.560308 0.598857 0.071306
C42   C     C_R   0.373969 0.577223 0.523970 0.027281
C43   C     C_R   0.467050 0.584269 0.436819 -0.243960
C44   C     C_R   0.578575 0.566939 0.420893 0.075122
C45   C     C_R   0.338339 0.516941 0.951481 -0.111790
C46   C     C_R   0.598099 0.545115 0.494246 0.018391
C47   C     C_R   0.240052 0.463627 0.449035 -0.170102
C48   C     C_R   0.128824 0.428388 0.471251 -0.152256
C49   C     C_R   0.035945 0.498420 0.566520 -0.130015
C50   C     C_R   0.053231 0.606803 0.636640 -0.124523
C51   C     C_R   0.164732 0.641648 0.616004 -0.126706
C52   C     C_R   0.102772 0.797233 0.203152 -0.153321
C53   C     C_R   0.259237 0.567047 0.525007 0.108454
C54   C     C_2   0.474392 0.395068 0.948659 -0.195396
C55   C     C_2   0.567587 0.438479 0.897628 -0.194004
C56   C     C_R   0.959494 0.179048 0.781055 -0.126023
C57   C     C_2   0.830988 0.957507 0.099488 -0.192812
C58   C     C_2   0.824637 0.044178 0.192454 -0.176127
C59   C     C_R   0.783287 0.574478 0.309227 -0.084190
C60   C     C_R   0.897765 0.747560 0.962497 -0.177511
C61   C     C_R   0.910086 0.852273 0.039475 0.132563
C62   C     C_1   0.094722 0.929606 0.727452 0.045118
C63   C     C_1   0.703660 0.823571 0.888130 -0.025679
C64   C     C_1   0.642386 0.866661 0.750068 0.032818
C65   C     C_1   0.816856 0.923553 0.586925 0.067183
C66   C     C_R   0.209815 0.484991 0.688428 -0.127923
C67   C     C_R   0.055201 0.253582 0.082985 -0.123917
C68   C     C_R   0.953539 0.170133 0.989950 -0.110697
H1    H     H_    0.029222 0.894513 0.115574 0.101651
H2    H     H_    0.470608 0.949979 0.057128 0.131606
H3    H     H_    0.608933 0.437569 0.199156 0.099771
H4    H     H_    0.083412 0.126424 0.350040 0.115061
H5    H     H_    0.173341 0.179644 0.200064 0.097142
H6    H     H_    0.183819 0.150531 0.485459 0.130049
H7    H     H_    0.073221 0.767385 0.462753 0.120754
H8    H     H_    0.032476 0.402242 0.340294 0.101020
H9    H     H_    0.778471 0.547307 0.832120 0.098305
H10   H     H_    0.900157 0.261780 0.284240 0.114401
H11   H     H_    0.696188 0.325581 0.358021 0.116697
H12   H     H_    0.922604 0.115845 0.808917 0.114193
H13   H     H_    0.750731 0.661264 0.572068 0.131380
H14   H     H_    0.955753 0.600274 0.490198 0.130424
H15   H     H_    0.522557 0.530888 0.640191 0.130302
H16   H     H_    0.452889 0.594632 0.377228 0.133651
H17   H     H_    0.311819 0.404106 0.379324 0.121740
H18   H     H_    0.115533 0.343945 0.417610 0.118036
H19   H     H_    0.950536 0.468460 0.586348 0.129174
H20   H     H_    0.981174 0.659295 0.710828 0.127190
H21   H     H_    0.008220 0.659135 0.349592 0.096633
H22   H     H_    0.178450 0.718730 0.677261 0.126055
H23   H     H_    0.183308 0.443446 0.625212 0.131617
H24   H     H_    0.476925 0.348844 0.990689 0.122988
H25   H     H_    0.566153 0.481107 0.852338 0.129392
H26   H     H_    0.878792 0.043521 0.228845 0.132401
H27   H     H_    0.160307 0.846495 0.164610 0.124896
H28   H     H_    0.808871 0.635786 0.370364 0.117974
H29   H     H_    0.832407 0.730132 0.934385 0.125188
H30   H     H_    0.397720 0.555488 0.901828 0.092073
H31   H     H_    0.382177 0.894578 0.206783 0.124773
H32   H     H_    0.917997 0.870957 0.862559 0.148125
H33   H     H_    0.772088 0.963151 0.069462 0.146116
H34   H     H_    0.094420 0.271964 0.136331 0.076235
H35   H     H_    0.628905 0.359077 0.017792 0.084094
H36   H     H_    0.898066 0.111724 0.958360 0.102497
H37   H     H_    0.362429 0.642491 0.816351 0.105722
H38   H     H_    0.248640 0.365405 0.088440 0.092115
H39   H     H_    0.075581 0.302175 0.619909 0.094969
H40   H     H_    0.366801 0.091011 0.052985 0.106658
N1    N     N_R   0.037320 0.720000 0.995830 -0.045540
N2    N     N_R   0.824900 0.517970 0.936430 -0.040409
N3    N     N_R   0.003190 0.648180 0.211390 -0.042255
N4    N     N_R   0.774330 0.457010 0.995830 -0.043576
N5    N     N_R   0.053760 0.709130 0.151980 -0.042778
N6    N     N_R   0.853840 0.498830 0.211390 -0.041264
N7    N     N_R   0.974250 0.667320 0.936430 -0.040545
N8    N     N_R   0.225670 0.542990 0.004170 -0.046678
N9    N     N_1   0.183930 0.948421 0.727950 -0.081233
N10   N     N_1   0.637510 0.791219 0.948526 -0.109425
N11   N     N_1   0.549751 0.856139 0.757069 -0.085762
N12   N     N_R   0.946240 0.290870 0.848020 -0.043978
N13   N     N_1   0.795287 0.935101 0.526898 -0.082089
N14   N     N_R   0.146160 0.501170 0.788610 -0.039536
N15   N     N_R   0.025750 0.332680 0.063570 -0.036308
N16   N     N_R   0.962680 0.280000 0.004170 -0.044585
N17   N     N_R   0.209230 0.553860 0.848010 -0.039131
N18   N     N_R   0.175100 0.482030 0.063570 -0.041301
N19   N     N_R   0.996810 0.351820 0.788610 -0.038902
N20   N     N_R   0.790770 0.446140 0.151990 -0.043556
Ni1   Ni    Ni4+2 0.130310 0.630310 0.000000 0.216073
Ni2   Ni    Ni4+2 0.869690 0.369690 0.000000 0.213309
Ni3   Ni    Ni4+2 0.985660 0.509480 0.863750 0.216233
Ni4   Ni    Ni4+2 0.014340 0.490520 0.136250 0.220721

loop_
_geom_bond_atom_site_label_1
_geom_bond_atom_site_label_2
_ccdc_geom_bond_type
C25   C31   A    
C8    C66   A    
C6    C45   A    
N15   Ni4   S    
C27   C29   A    
C41   C42   A    
C49   H19   S    
C19   C20   A    
C55   H25   S    
C3    C6    A    
C68   N16   A    
C3    N18   A    
C16   N2    A    
N15   N16   A    
C40   N4    A    
N7    Ni3   S    
C52   N5    A    
C26   C27   A    
C29   C30   A    
C64   N11   T    
N5    Ni1   S    
N12   Ni2   S    
C47   H17   S    
C22   C24   A    
C36   C37   A    
C18   C19   A    
C45   H30   S    
C42   C53   S    
C30   C31   A    
C10   C17   A    
C23   C40   A    
C52   H27   S    
C11   H31   S    
C16   H9    S    
C62   N9    T    
C34   C52   A    
C1    N1    A    
C12   C59   A    
N8    Ni1   S    
C35   C36   A    
C66   N14   A    
C28   H21   S    
C65   N13   T    
C4    C12   A    
C50   H20   S    
C47   C53   A    
C29   C64   S    
C28   C34   A    
C18   H6    S    
N8    N18   A    
C13   C14   A    
C43   H16   S    
C56   N12   A    
C14   H4    S    
C7    C56   A    
C6    C54   S    
C44   C46   A    
N19   Ni3   S    
C28   N3    A    
C22   C34   S    
N12   N19   A    
C4    N20   A    
C8    C41   S    
C39   C41   A    
C60   H29   S    
C17   H40   S    
C5    C7    A    
C63   N10   T    
C33   H11   S    
C38   H8    S    
C25   C26   A    
C1    H1    S    
C13   C24   S    
C1    C61   A    
C60   C61   A    
C51   C53   A    
C43   C44   A    
C9    C67   A    
C54   H24   S    
C37   C38   A    
N6    N20   A    
C47   C48   A    
N18   Ni4   S    
C36   H13   S    
C5    N19   A    
C50   C51   A    
N16   Ni2   S    
N2    Ni3   S    
N3    N5    A    
C57   C61   S    
C27   C63   S    
C39   C46   A    
C10   H2    S    
C48   C49   A    
C15   H5    S    
C16   C23   A    
C32   C38   A    
N1    Ni1   S    
C18   C24   A    
C37   H14   S    
C42   C43   A    
N14   Ni3   S    
C5    H39   S    
C15   C17   A    
C54   C55   D    
N6    Ni4   S    
C2    C8    A    
C68   H36   S    
N20   Ni2   S    
C23   C55   S    
C66   H23   S    
C57   H33   S    
C21   H7    S    
C2    H37   S    
C7    C19   S    
C56   H12   S    
C32   C33   A    
N14   N17   A    
C3    H38   S    
C58   H26   S    
C9    C68   A    
C39   H15   S    
C67   N15   A    
C51   H22   S    
C40   H35   S    
C11   C13   A    
C45   N8    A    
C57   C58   D    
C59   N6    A    
C33   C35   A    
C48   H18   S    
C25   C62   S    
N2    N4    A    
C30   C65   S    
C10   C11   A    
N1    N7    A    
C32   H10   S    
C2    N17   A    
N17   Ni1   S    
N3    Ni4   S    
C20   C21   A    
C12   C44   S    
C49   C50   A    
C59   H28   S    
C14   C15   A    
C60   N7    A    
N4    Ni2   S    
C21   C22   A    
C35   C46   S    
C4    H3    S    
C67   H34   S    
C26   H32   S    
C20   C31   S    
