data_str_m9_o1_o2_f0_sra.sym.59
_audit_creation_date              2012-12-11T15:54:43-0500
_audit_creation_method            fapswitch 2.2
_symmetry_space_group_name_H-M    P1
_symmetry_Int_Tables_number       1
_space_group_crystal_system       triclinic
_cell_length_a                    6.929578
_cell_length_b                    14.559075
_cell_length_c                    16.038106
_cell_angle_alpha                 89.977745
_cell_angle_beta                  89.946004
_cell_angle_gamma                 90.035428
_cell_volume                      1618.05523035

loop_
_atom_site_label
_atom_site_type_symbol
_atom_type_description
_atom_site_fract_x
_atom_site_fract_y
_atom_site_fract_z
_atom_type_partial_charge
O1    O     O_R   0.638180 0.333920 0.163320 -0.541564
O2    O     O_R   0.361820 0.666080 0.836680 -0.541564
O3    O     O_R   0.308470 0.344960 0.336080 -0.544874
O4    O     O_R   0.691530 0.655040 0.663920 -0.544874
O5    O     O_R   0.138140 0.166110 0.336680 -0.533116
O6    O     O_R   0.861860 0.833890 0.663320 -0.533116
C1    C     C_R   0.477473 0.366919 0.365268 0.688033
C2    C     C_R   0.522527 0.633081 0.634732 0.688034
O7    O     O_R   0.308460 0.344950 0.163930 -0.544477
O8    O     O_R   0.691540 0.655050 0.836070 -0.544477
O9    O     O_R   0.138140 0.166100 0.163310 -0.541181
O10   O     O_R   0.861860 0.833900 0.836690 -0.541181
C3    C     C_R   0.477609 0.367315 0.135092 0.681658
C4    C     C_R   0.522391 0.632684 0.864908 0.681657
O11   O     O_R   0.638180 0.333930 0.336700 -0.541037
O12   O     O_R   0.361820 0.666070 0.663300 -0.541037
O13   O     O_3   0.471670 0.191340 0.250000 -0.362961
O14   O     O_3   0.528330 0.808660 0.750000 -0.362961
V1    V     V_3+5 0.196830 0.260900 0.250000 1.395995
V2    V     V_3+5 0.803170 0.739100 0.750000 1.395994
O15   O     O_R   0.808420 0.155070 0.163920 -0.543468
O16   O     O_R   0.191580 0.844930 0.836080 -0.543468
C5    C     C_R   0.977518 0.132756 0.135029 0.676875
C6    C     C_R   0.022482 0.867244 0.864971 0.676876
O17   O     O_R   0.808420 0.155080 0.336070 -0.535546
O18   O     O_R   0.191580 0.844920 0.663930 -0.535546
C7    C     C_R   0.977053 0.134223 0.365575 0.699371
C8    C     C_R   0.022947 0.865777 0.634425 0.699371
V3    V     V_3+5 0.696830 0.239130 0.250000 1.412937
V4    V     V_3+5 0.303170 0.760870 0.750000 1.412937
O19   O     O_3   0.971850 0.308690 0.250010 -0.373326
O20   O     O_3   0.028150 0.691310 0.749990 -0.373326
H1    H     H_    0.121010 0.833949 0.250268 0.108058
H2    H     H_    0.878991 0.166051 0.749732 0.108058
C9    C     C_R   0.919924 0.186194 0.538607 -0.192721
C10   C     C_R   0.080076 0.813806 0.461393 -0.192721
C11   C     C_R   0.895443 0.215107 0.621212 0.480842
C12   C     C_R   0.104557 0.784893 0.378788 0.480842
C13   C     C_R   0.903354 0.148571 0.685092 -0.238142
C14   C     C_R   0.096646 0.851429 0.314908 -0.238142
C15   C     C_R   0.942047 0.057030 0.666634 -0.189523
C16   C     C_R   0.057953 0.942970 0.333366 -0.189523
C17   C     C_R   0.971260 0.027657 0.583743 0.075758
C18   C     C_R   0.028740 0.972343 0.416256 0.075758
C19   C     C_R   0.958927 0.093363 0.518288 -0.006991
C20   C     C_R   0.041073 0.906637 0.481712 -0.006991
C21   C     C_R   0.012693 0.934361 0.565694 -0.139463
C22   C     C_R   0.987307 0.065639 0.434306 -0.139463
H3    H     H_    0.909638 0.238022 0.490373 0.117239
H4    H     H_    0.090362 0.761978 0.509627 0.117239
H5    H     H_    0.948503 0.009501 0.718453 0.118929
H6    H     H_    0.051497 0.990498 0.281546 0.118929
C23   C     C_R   0.179669 0.974054 0.968007 -0.159435
C24   C     C_R   0.820331 0.025946 0.031993 -0.159435
H7    H     H_    0.320575 0.955041 0.944468 0.117400
H8    H     H_    0.679425 0.044959 0.055532 0.117400
C25   C     C_R   0.168554 0.037533 0.033359 -0.156212
C26   C     C_R   0.831446 0.962467 0.966641 -0.156212
H9    H     H_    0.301442 0.065667 0.058001 0.119728
H10   H     H_    0.698558 0.934333 0.941999 0.119728
C27   C     C_R   0.988728 0.064365 0.066252 -0.047070
C28   C     C_R   0.011272 0.935635 0.933748 -0.047070
C29   C     C_R   0.320131 0.470309 0.471175 -0.115978
C30   C     C_R   0.679868 0.529691 0.528825 -0.115979
H11   H     H_    0.179098 0.448109 0.450329 0.117450
H12   H     H_    0.820901 0.551891 0.549671 0.117451
C31   C     C_R   0.331338 0.534645 0.535785 -0.103273
C32   C     C_R   0.668662 0.465355 0.464215 -0.103273
H13   H     H_    0.198388 0.560635 0.562221 0.111808
H14   H     H_    0.801612 0.439365 0.437779 0.111808
C33   C     C_R   0.511372 0.564886 0.565797 -0.068762
C34   C     C_R   0.488628 0.435114 0.434202 -0.068762
C35   C     C_R   0.320776 0.476361 0.033992 -0.163027
C36   C     C_R   0.679223 0.523639 0.966008 -0.163027
H15   H     H_    0.180247 0.459264 0.059197 0.114312
H16   H     H_    0.819753 0.540736 0.940803 0.114312
C37   C     C_R   0.331779 0.539785 0.968567 -0.157777
C38   C     C_R   0.668221 0.460215 0.031433 -0.157777
H17   H     H_    0.199198 0.569759 0.945486 0.116857
H18   H     H_    0.800802 0.430241 0.054514 0.116858
C39   C     C_R   0.511161 0.564322 0.933707 -0.042333
C40   C     C_R   0.488839 0.435678 0.066293 -0.042333
O21   O     O_3   0.854092 0.307866 0.634266 -0.556755
C41   C     C_3   0.907886 0.339037 0.714479 0.066081
H19   H     H_    0.056235 0.315874 0.731162 0.119084
H20   H     H_    0.801960 0.314897 0.761801 0.122646
C42   C     C_3   0.906022 0.443456 0.715905 -0.644535
H21   H     H_    0.758172 0.468890 0.702837 0.212132
H22   H     H_    0.951011 0.468509 0.778349 0.164496
H23   H     H_    0.007333 0.470861 0.668370 0.205855
O22   O     O_3   0.145908 0.692134 0.365734 -0.556755
C43   C     C_3   0.092113 0.660963 0.285521 0.066080
H24   H     H_    0.198039 0.685102 0.238199 0.122646
H25   H     H_    0.943764 0.684126 0.268838 0.119084
C44   C     C_3   0.093976 0.556544 0.284095 -0.644533
H26   H     H_    0.992666 0.529139 0.331631 0.205855
H27   H     H_    0.048984 0.531491 0.221652 0.164496
H28   H     H_    0.241826 0.531109 0.297162 0.212132

loop_
_geom_bond_atom_site_label_1
_geom_bond_atom_site_label_2
_ccdc_geom_bond_type
C7    C22   S    
C26   C28   A    
V4    O20   S    
C42   H21   S    
C29   H11   S    
C8    C21   S    
O13   V3    S    
C44   H26   S    
C41   C42   S    
O4    C2    A    
V1    O19   S    
C44   H28   S    
C13   C15   A    
O9    V1    S    
C36   H16   S    
C30   C32   A    
C9    C11   A    
C41   H20   S    
O3    C1    A    
C24   C26   A    
C38   H18   S    
C25   H9    S    
C26   H10   S    
C30   C33   A    
O7    C3    A    
O5    C7    A    
O7    V1    S    
O6    C8    A    
O8    V2    S    
C9    H3    S    
O3    V1    S    
O14   V4    S    
C31   C33   A    
C37   H17   S    
C2    O12   A    
V3    O19   S    
C15   C17   A    
C16   C18   A    
O1    V3    S    
C18   C20   A    
O11   V3    S    
C24   H8    S    
C23   H7    S    
O17   V3    S    
C29   C31   A    
H1    C14   S    
H2    C13   S    
O12   V4    S    
C41   H19   S    
O8    C4    A    
O22   C43   S    
C23   C25   A    
C1    O11   A    
O15   V3    S    
C12   O22   S    
C43   C44   S    
C31   H13   S    
C30   H12   S    
C23   C28   A    
C38   C40   A    
O21   C41   S    
C37   C39   A    
C32   C34   A    
O10   V2    S    
C43   H25   S    
C10   C20   A    
C17   C19   A    
O18   V4    S    
O15   C5    A    
O16   C6    A    
O1    C3    A    
C35   H15   S    
C36   C39   A    
C9    C19   A    
C35   C40   A    
C1    C34   S    
C10   H4    S    
V2    O20   S    
C19   C22   A    
C20   C21   A    
C2    C33   S    
C6    C28   S    
O16   V4    S    
C14   C16   A    
C44   H27   S    
C25   C27   A    
O5    V1    S    
C24   C27   A    
O17   C7    A    
O6    V2    S    
O10   C6    A    
O18   C8    A    
O2    V4    S    
C10   C12   A    
C11   C13   A    
C12   C14   A    
C3    C40   S    
O9    C5    A    
C43   H24   S    
O13   V1    S    
O14   V2    S    
O2    C4    A    
O4    V2    S    
C5    C27   S    
C29   C34   A    
C32   H14   S    
C36   C38   A    
C42   H23   S    
C42   H22   S    
C35   C37   A    
C11   O21   S    
C4    C39   S    
C17   C21   A    
C15   H5    S    
C18   C22   A    
C16   H6    S    
