data_str_m4_o1_o15_f0_acs.sym.181
_audit_creation_date              2012-12-11T14:46:02-0500
_audit_creation_method            fapswitch 2.2
_symmetry_space_group_name_H-M    P1
_symmetry_Int_Tables_number       1
_space_group_crystal_system       triclinic
_cell_length_a                    10.89137
_cell_length_b                    11.012816
_cell_length_c                    18.899538
_cell_angle_alpha                 90.649875
_cell_angle_beta                  90.042718
_cell_angle_gamma                 120.099993
_cell_volume                      1961.03024313

loop_
_atom_site_label
_atom_site_type_symbol
_atom_type_description
_atom_site_fract_x
_atom_site_fract_y
_atom_site_fract_z
_atom_type_partial_charge
C1    C     C_R   0.863777 0.640300 0.602724 0.533053
C2    C     C_R   0.458857 0.697653 0.775375 -0.111293
C3    C     C_R   0.433186 0.683890 0.703307 -0.136442
C4    C     C_R   0.303795 0.662180 0.678473 0.040225
C5    C     C_R   0.836750 0.154277 0.823254 -0.010428
C6    C     C_R   0.094482 0.267765 0.843688 -0.105159
C7    C     C_R   0.229084 0.320277 0.815719 -0.104525
C8    C     C_R   0.247592 0.335467 0.743231 -0.106536
C9    C     C_R   0.133759 0.307711 0.699186 -0.095301
C10   C     C_R   0.998125 0.268759 0.726717 -0.000822
C11   C     C_R   0.976642 0.232100 0.799002 -0.000545
C12   C     C_R   0.267036 0.630954 0.604616 0.535765
C13   C     C_R   0.750664 0.218376 0.720987 -0.025920
C14   C     C_R   0.722252 0.134668 0.779309 0.000883
C15   C     C_R   0.639146 0.237313 0.694735 -0.025781
C16   C     C_R   0.497872 0.147150 0.712385 0.231297
C17   C     C_R   0.467532 0.039679 0.759445 -0.100549
C18   C     C_R   0.579013 0.033998 0.791842 -0.106094
C19   C     C_R   0.882851 0.264724 0.686930 -0.031792
C20   C     C_R   0.699371 0.567789 0.705480 -0.158335
C21   C     C_R   0.687906 0.577742 0.778993 0.220919
C22   C     C_R   0.784534 0.703463 0.814399 0.052004
C23   C     C_R   0.889352 0.294426 0.610465 0.544614
C24   C     C_R   0.888922 0.815790 0.775799 -0.195738
C25   C     C_R   0.907236 0.799017 0.704820 -0.149191
C26   C     C_R   0.817487 0.671193 0.670041 -0.014296
C27   C     C_R   0.403405 0.622014 0.294609 -0.162665
C28   C     C_R   0.425600 0.633877 0.222675 -0.158788
C29   C     C_R   0.368918 0.698792 0.180242 0.010960
C30   C     C_R   0.296430 0.761238 0.211932 0.210990
C31   C     C_R   0.278162 0.751695 0.284942 -0.070350
C32   C     C_R   0.326034 0.676940 0.325789 -0.027780
C33   C     C_R   0.716014 0.096418 0.293839 -0.130199
C34   C     C_R   0.864140 0.637610 0.397835 0.549954
C35   C     C_R   0.703597 0.074773 0.221613 -0.092842
C36   C     C_R   0.825232 0.133350 0.178849 0.064892
C37   C     C_R   0.960120 0.208012 0.209063 -0.124190
C38   C     C_R   0.972804 0.229258 0.281870 -0.142594
C39   C     C_R   0.850258 0.176560 0.324092 0.019349
C40   C     C_R   0.888215 0.784549 0.298143 -0.140797
C41   C     C_R   0.887731 0.799122 0.225493 0.231083
C42   C     C_R   0.809571 0.678035 0.181703 0.050042
C43   C     C_R   0.733350 0.543611 0.212397 0.167433
C44   C     C_R   0.737378 0.532768 0.285484 -0.091654
C45   C     C_R   0.270653 0.634040 0.396555 0.547391
C46   C     C_R   0.819626 0.652371 0.327808 -0.063555
C47   C     C_R   0.803489 0.097584 0.894267 0.518594
C48   C     C_R   0.392345 0.699185 0.897409 0.518811
C49   C     C_R   0.774310 0.727747 0.889946 0.566736
C50   C     C_R   0.804647 0.101894 0.104019 0.553006
C51   C     C_R   0.401359 0.707079 0.105260 0.521379
C52   C     C_R   0.796164 0.699892 0.106690 0.560804
C53   C     C_R   0.862844 0.229574 0.395637 0.557755
C54   C     C_R   0.200415 0.655253 0.725769 -0.122456
C55   C     C_R   0.225954 0.666547 0.798526 -0.149449
C56   C     C_R   0.355349 0.686130 0.823082 0.029158
Cr1   Cr    Cr6+3 0.791660 0.390250 0.499930 1.027276
Cr2   Cr    Cr6+3 0.098520 0.708290 0.500540 1.032586
Cr3   Cr    Cr6+3 0.109770 0.401430 0.499480 1.014496
Cr4   Cr    Cr6+3 0.874790 0.925890 0.000070 1.046925
Cr5   Cr    Cr6+3 0.574120 0.948670 0.999300 1.034838
Cr6   Cr    Cr6+3 0.551420 0.625320 0.000920 1.055994
H1    H     H_    0.098406 0.635960 0.706395 0.123131
H2    H     H_    0.659030 0.316453 0.657083 0.169088
H3    H     H_    0.617933 0.479133 0.676534 0.120718
H4    H     H_    0.960227 0.915810 0.801147 0.146935
H5    H     H_    0.441953 0.565296 0.325344 0.146353
H6    H     H_    0.145778 0.658788 0.835011 0.124218
H7    H     H_    0.216383 0.793613 0.308694 0.170643
H8    H     H_    0.598173 0.012265 0.199069 0.160064
H9    H     H_    0.054264 0.250759 0.176556 0.136279
H10   H     H_    0.950094 0.876640 0.331357 0.131900
H11   H     H_    0.685533 0.429017 0.308297 0.178096
H12   H     H_    0.513327 0.690047 0.667245 0.121074
H13   H     H_    0.317776 0.344747 0.850322 0.180708
H14   H     H_    0.350868 0.370760 0.720526 0.161832
H15   H     H_    0.084688 0.256060 0.900375 0.140681
H16   H     H_    0.156914 0.313257 0.644390 0.193280
H17   H     H_    0.553874 0.949800 0.826174 0.164629
O1    O     O_R   0.766500 0.250040 0.579790 -0.511277
O2    O     O_R   0.218690 0.701900 0.425960 -0.505167
O3    O     O_R   0.249490 0.516440 0.419420 -0.515930
O4    O     O_R   0.982880 0.281910 0.424890 -0.501314
O5    O     O_3   0.999980 0.499990 0.499980 -0.272534
O6    O     O_R   0.895110 0.806860 0.920430 -0.533020
O7    O     O_R   0.872260 0.046970 0.925000 -0.537980
O8    O     O_R   0.691430 0.085060 0.918550 -0.511083
O9    O     O_R   0.451490 0.822460 0.925250 -0.525651
O10   O     O_R   0.413330 0.603360 0.920440 -0.503599
O11   O     O_R   0.676110 0.626250 0.926750 -0.429302
O12   O     O_R   0.798570 0.516780 0.574780 -0.533331
O13   O     O_R   0.895350 0.809870 0.080950 -0.433912
O14   O     O_R   0.872490 0.049760 0.073800 -0.470295
O15   O     O_R   0.691680 0.088070 0.079070 -0.507425
O16   O     O_R   0.451720 0.825250 0.074050 -0.499645
O17   O     O_R   0.413580 0.606370 0.080960 -0.514994
O18   O     O_R   0.676340 0.629040 0.075550 -0.512072
O19   O     O_3   0.666780 0.833290 0.000090 -0.292548
O20   O     O_R   0.984000 0.732950 0.581090 -0.515857
O21   O     O_R   0.218600 0.700890 0.574760 -0.492685
O22   O     O_R   0.249390 0.515350 0.579940 -0.546245
O23   O     O_R   0.982790 0.280900 0.573700 -0.514380
O24   O     O_R   0.766600 0.251130 0.419260 -0.510734
O25   O     O_R   0.798660 0.517790 0.425980 -0.505372
O26   O     O_R   0.984100 0.734040 0.420570 -0.516470
O27   O     O_3   0.392979 0.162311 0.679968 -0.738437
H18   H     H_    0.299435 0.089504 0.697999 0.322029
H19   H     H_    0.359089 0.962848 0.772088 0.113117
O28   O     O_3   0.583950 0.467561 0.816530 -0.691589
H20   H     H_    0.537174 0.383663 0.785241 0.323948
H21   H     H_    0.996129 0.884480 0.678203 0.153914
H22   H     H_    0.486628 0.590184 0.200004 0.171827
O29   O     O_3   0.236724 0.825862 0.174402 -0.676792
H23   H     H_    0.231600 0.800917 0.123638 0.340352
H24   H     H_    0.620928 0.055362 0.325607 0.135801
H25   H     H_    0.077934 0.293408 0.304469 0.148694
O30   O     O_3   0.963953 0.931253 0.196584 -0.647908
H26   H     H_    0.024442 0.999981 0.233584 0.323698
O31   O     O_3   0.659737 0.420655 0.173435 -0.683295
H27   H     H_    0.697565 0.436503 0.124750 0.339990
H28   H     H_    0.561606 0.722715 0.794636 0.114702

loop_
_geom_bond_atom_site_label_1
_geom_bond_atom_site_label_2
_ccdc_geom_bond_type
C8    C9    A    
C55   C56   A    
Cr6   O17   S    
C41   C42   A    
C14   C18   A    
C35   C36   A    
Cr3   O3    S    
C49   O11   A    
C1    O20   A    
C55   H6    S    
C7    C8    A    
C39   C53   S    
C28   H22   S    
C40   C46   A    
C5    C47   S    
C29   C30   A    
C28   C29   A    
Cr3   O4    S    
C5    C11   A    
Cr4   O19   S    
C38   C39   A    
C23   O23   A    
C54   H1    S    
C15   C16   A    
Cr6   O10   S    
C52   O18   A    
C8    H14   S    
C32   C45   S    
C3    H12   S    
Cr5   O8    S    
Cr6   O19   S    
C45   O3    A    
C35   H8    S    
C18   H17   S    
C51   O16   A    
C15   H2    S    
C48   O9    A    
C34   C46   S    
C23   O1    A    
C4    C12   S    
C40   H10   S    
C9    C10   A    
C16   O27   S    
C51   O17   A    
Cr4   O14   S    
C1    O12   A    
C13   C14   A    
Cr3   O23   S    
Cr1   O1    S    
C44   C46   A    
Cr4   O13   S    
Cr1   O24   S    
C45   O2    A    
C33   H24   S    
C13   C19   A    
Cr3   O22   S    
C47   O7    A    
C49   O6    A    
C20   H3    S    
Cr2   O21   S    
Cr3   O5    S    
O28   H20   S    
Cr2   O2    S    
C6    C11   A    
Cr4   O7    S    
Cr5   O15   S    
C16   C17   A    
C6    H15   S    
C7    H13   S    
C25   C26   A    
C34   O25   A    
C47   O8    A    
C19   C23   S    
C43   C44   A    
C37   C38   A    
Cr5   O9    S    
Cr2   O5    S    
Cr6   O18   S    
C38   H25   S    
C31   C32   A    
C10   C19   A    
O31   H27   S    
C17   C18   A    
Cr1   O5    S    
C33   C39   A    
C24   C25   A    
C5    C14   A    
C22   C49   S    
C40   C41   A    
C48   O10   A    
C13   C15   A    
C1    C26   S    
C22   C24   A    
C17   H19   S    
C42   C43   A    
C3    C4    A    
C36   C50   S    
O29   H23   S    
C29   C51   S    
C2    H28   S    
C48   C56   S    
Cr1   O25   S    
C54   C55   A    
C36   C37   A    
Cr1   O12   S    
C4    C54   A    
C27   C32   A    
C34   O26   A    
C50   O15   A    
Cr2   O20   S    
C21   O28   S    
Cr4   O6    S    
Cr5   O16   S    
C50   O14   A    
C6    C7    A    
C24   H4    S    
C53   O4    A    
Cr2   O26   S    
C37   H9    S    
C2    C3    A    
C12   O22   A    
C2    C56   A    
O30   H26   S    
Cr5   O19   S    
C30   C31   A    
C20   C26   A    
C53   O24   A    
Cr6   O11   S    
C33   C35   A    
C9    H16   S    
C44   H11   S    
C12   O21   A    
C27   H5    S    
C10   C11   A    
C25   H21   S    
C31   H7    S    
C20   C21   A    
O27   H18   S    
C42   C52   S    
C27   C28   A    
C41   O30   S    
C21   C22   A    
C52   O13   A    
C43   O31   S    
C30   O29   S    
