data_str_m3_o5_o29_f0_pcu.sym.26
_audit_creation_date              2013-03-05T16:48:41-0500
_audit_creation_method            fapswitch 2.2
_symmetry_space_group_name_H-M    P1
_symmetry_Int_Tables_number       1
_space_group_crystal_system       triclinic
_cell_length_a                    27.714645
_cell_length_b                    8.918651
_cell_length_c                    8.102926
_cell_angle_alpha                 89.998926
_cell_angle_beta                  89.997528
_cell_angle_gamma                 89.985405
_cell_volume                      2002.85886881

loop_
_atom_site_label
_atom_site_type_symbol
_atom_site_description
_atom_site_fract_x
_atom_site_fract_y
_atom_site_fract_z
_atom_type_partial_charge
O1    O     O_R   0.500000 0.285350 0.636850 -0.614325
O2    O     O_R   0.500000 0.714650 0.363150 -0.614633
O3    O     O_R   0.500000 0.714650 0.636850 -0.614337
O4    O     O_R   0.500000 0.285350 0.363150 -0.614613
C1    C     C_R   0.500001 0.218009 0.500001 0.939134
C2    C     C_R   0.499999 0.781991 0.499999 0.939103
O5    O     O_R   0.428760 0.500000 0.636860 -0.616008
O6    O     O_R   0.571240 0.500000 0.363140 -0.616008
O7    O     O_R   0.571240 0.500000 0.636860 -0.615969
O8    O     O_R   0.428760 0.500000 0.363140 -0.616059
C3    C     C_R   0.405831 0.500293 0.500052 0.932181
C4    C     C_R   0.594169 0.499717 0.500045 0.932228
Zn1   Zn    Zn3+2 0.500000 0.500000 0.682780 1.025658
Zn2   Zn    Zn3+2 0.500000 0.500000 0.317220 1.024774
C5    C     C_R   0.177433 0.372216 0.544527 0.648189
C6    C     C_R   0.822561 0.628234 0.544393 0.648658
C7    C     C_R   0.176993 0.631774 0.471203 0.660072
C8    C     C_R   0.823013 0.368684 0.471048 0.659588
O9    O     O_2   0.202584 0.248272 0.586265 -0.470944
O10   O     O_2   0.797403 0.752172 0.586108 -0.470810
O11   O     O_2   0.201678 0.756175 0.428001 -0.490198
O12   O     O_2   0.798335 0.244286 0.427797 -0.490327
N1    N     N_R   0.201192 0.502082 0.506644 -0.325564
N2    N     N_R   0.798808 0.498356 0.506522 -0.325490
C9    C     C_R   0.278492 0.568733 0.635831 0.461088
C10   C     C_R   0.721526 0.431574 0.635774 0.460956
C11   C     C_R   0.277588 0.435630 0.370743 0.440221
C12   C     C_R   0.722394 0.564715 0.370701 0.438865
C13   C     C_R   0.328680 0.566832 0.632868 -0.240015
C14   C     C_R   0.671338 0.433339 0.632829 -0.239724
C15   C     C_R   0.327846 0.437045 0.369956 -0.253566
C16   C     C_R   0.672136 0.563160 0.369930 -0.253434
C17   C     C_R   0.252697 0.502325 0.504257 0.013562
C18   C     C_R   0.747303 0.498060 0.504193 0.013824
C19   C     C_R   0.101434 0.501375 0.510300 -0.049388
C20   C     C_R   0.898566 0.499098 0.510195 -0.049312
C21   C     C_R   0.127067 0.367689 0.539454 -0.043999
C22   C     C_R   0.872928 0.632777 0.539335 -0.044018
C23   C     C_R   0.126656 0.635536 0.479847 -0.026567
C24   C     C_R   0.873349 0.364935 0.479712 -0.026368
C25   C     C_R   0.101959 0.233456 0.563587 -0.116234
C26   C     C_R   0.898032 0.767013 0.563481 -0.116268
C27   C     C_R   0.101166 0.769351 0.457374 -0.104370
C28   C     C_R   0.898843 0.231126 0.457243 -0.104359
C29   C     C_R   0.353328 0.501613 0.500655 -0.187384
C30   C     C_R   0.646672 0.498500 0.500624 -0.187237
H1    H     H_    0.347240 0.384866 0.269054 0.211223
H2    H     H_    0.652728 0.615311 0.269045 0.211314
H3    H     H_    0.348696 0.618372 0.732701 0.217073
H4    H     H_    0.651335 0.381751 0.732670 0.217245
H5    H     H_    0.120893 0.129693 0.588880 0.197371
H6    H     H_    0.879094 0.870773 0.588757 0.197380
H7    H     H_    0.119773 0.873514 0.431383 0.194092
H8    H     H_    0.880240 0.126964 0.431226 0.194108
C31   C     C_R   0.974870 0.362101 0.501965 0.048614
C32   C     C_R   0.025131 0.638380 0.502002 0.048612
C33   C     C_R   0.974496 0.637742 0.521181 0.049254
C34   C     C_R   0.025502 0.362737 0.521207 0.049260
C35   C     C_R   0.949450 0.499632 0.511244 0.081820
C36   C     C_R   0.050549 0.500846 0.511302 0.081841
C37   C     C_R   0.948814 0.229083 0.471067 -0.211897
C38   C     C_R   0.051193 0.771398 0.471149 -0.211861
C39   C     C_R   0.948041 0.770108 0.551702 -0.211355
C40   C     C_R   0.051951 0.230368 0.551763 -0.211397
H9    H     H_    0.966546 0.123144 0.449894 0.134224
H10   H     H_    0.033465 0.877342 0.449970 0.134211
H11   H     H_    0.965464 0.876386 0.573655 0.136013
H12   H     H_    0.034525 0.124093 0.573705 0.136017
C41   C     C_1   0.500000 0.065220 0.500002 -0.160468
C42   C     C_1   0.499999 0.934780 0.499999 -0.160478
N3    N     N_1   0.500000 0.500000 0.073640 -0.019217
N4    N     N_1   0.500000 0.500000 0.926360 -0.019101
S1    S     S_3+6 0.247113 0.344799 0.206386 0.083991
O13   O     O_2   0.278205 0.343401 0.054403 -0.223945
O14   O     O_2   0.236821 0.185689 0.256312 -0.231618
O15   O     O_3   0.194803 0.432126 0.163739 -0.542189
H13   H     H_    0.176030 0.359307 0.097464 0.396923
S2    S     S_3+6 0.752837 0.655699 0.206365 0.083130
O16   O     O_2   0.721769 0.656838 0.054330 -0.224653
O17   O     O_2   0.763004 0.814892 0.256253 -0.230608
O18   O     O_3   0.805219 0.568737 0.163828 -0.543311
H14   H     H_    0.823938 0.641647 0.097488 0.397187
S3    S     S_3+6 0.249342 0.657427 0.804287 0.096853
O19   O     O_2   0.237286 0.815997 0.757095 -0.217576
O20   O     O_2   0.203675 0.575882 0.848037 -0.277613
O21   O     O_3   0.286167 0.660609 0.969290 -0.515305
H15   H     H_    0.266540 0.704442 0.059417 0.413471
S4    S     S_3+6 0.750708 0.343011 0.804248 0.097032
O22   O     O_2   0.762938 0.184580 0.757028 -0.216191
O23   O     O_2   0.796285 0.424988 0.848128 -0.278606
O24   O     O_3   0.713839 0.339383 0.969144 -0.515423
H16   H     H_    0.733846 0.299315 0.060369 0.413977

loop_
_geom_bond_atom_site_label_1
_geom_bond_atom_site_label_2
_geom_bond_distance
_ccdc_geom_bond_type
C31   C35   1.416356 A    
S1    O14   1.502958 D    
Zn2   N3    1.973711 S    
C20   C35   1.410278 A    
O18   H14   0.990496 S    
C13   H3    1.083330 S    
C11   C17   1.414167 A    
C5    O9    1.349752 S    
C7    N1    1.367396 A    
C8    N2    1.367389 A    
C40   H12   1.078642 S    
C19   C21   1.407703 A    
C22   C26   1.398603 A    
S2    O17   1.502945 D    
C33   C35   1.416317 A    
C34   C36   1.416312 A    
C32   C33   1.411927 A    
C7    C23   1.397226 A    
C8    C24   1.397204 A    
C5    C21   1.397082 A    
O7    Zn1   2.009128 S    
C27   H7    1.083297 S    
N1    C17   1.427572 S    
C1    C41   1.362674 S    
C8    O12   1.349786 S    
C12   S2    1.773044 S    
C24   C28   1.398604 A    
O3    Zn1   1.950221 S    
C6    O10   1.349746 S    
O3    C2    1.261081 A    
C5    N1    1.367362 A    
C14   H4    1.083324 S    
C12   C18   1.414158 A    
C6    N2    1.367369 A    
C15   H1    1.083405 S    
C21   C25   1.398597 A    
C16   H2    1.083413 S    
O2    C2    1.261086 A    
C10   C18   1.413810 A    
C33   C39   1.411351 A    
S1    O13   1.503063 D    
C9    C13   1.391228 A    
C39   H11   1.078642 S    
C38   H10   1.078618 S    
C11   C15   1.392971 A    
C20   C24   1.407701 A    
O15   H13   0.990484 S    
C4    C30   1.455142 S    
O8    Zn2   2.009131 S    
O24   H16   0.990695 S    
O21   H15   0.990911 S    
C23   C27   1.398610 A    
C34   C40   1.411346 A    
C7    O11   1.349777 S    
C32   C36   1.416361 A    
C13   C29   1.397310 A    
C19   C36   1.410278 A    
C19   C23   1.407702 A    
C37   H9    1.078619 S    
O5    C3    1.277794 A    
S3    O19   1.502549 D    
S4    O24   1.682356 S    
C12   C16   1.392964 A    
O6    C4    1.278476 A    
S3    O20   1.502297 D    
S4    O23   1.502342 D    
C10   C14   1.391236 A    
S1    O15   1.681452 S    
C32   C38   1.411396 A    
C3    C29   1.455144 S    
O1    Zn1   1.950236 S    
O1    C1    1.261084 A    
C2    C42   1.362674 S    
O6    Zn2   2.009160 S    
S2    O16   1.503069 D    
C16   C30   1.397225 A    
C14   C30   1.397308 A    
O4    C1    1.261082 A    
Zn1   N4    1.973711 S    
C28   C37   1.389574 A    
C20   C22   1.407704 A    
N3    N4    1.193398 T    
S2    O18   1.681442 S    
C31   C37   1.411390 A    
O4    Zn2   1.950222 S    
C41   C42   1.163353 T    
O2    Zn2   1.950235 S    
O7    C4    1.277796 A    
N2    C18   1.427571 S    
C9    C17   1.413792 A    
O8    C3    1.278481 A    
C28   H8    1.083299 S    
O5    Zn1   2.009162 S    
S3    O21   1.682301 S    
S4    O22   1.502527 D    
C10   S4    1.772372 S    
C15   C29   1.397221 A    
C31   C34   1.411906 A    
C6    C22   1.397107 A    
C9    S3    1.772349 S    
C25   C40   1.389543 A    
C11   S1    1.773044 S    
C26   C39   1.389558 A    
C25   H5    1.083299 S    
C27   C38   1.389588 A    
C26   H6    1.083297 S    
