data_str_m2_o41_o41_f0_fof.sym.97
_audit_creation_date              2012-10-26T17:13:12-0400
_audit_creation_method            fapswitch 2.2
_symmetry_space_group_name_H-M    P1
_symmetry_Int_Tables_number       1
_space_group_crystal_system       triclinic
_cell_length_a                    16.663787
_cell_length_b                    16.757926
_cell_length_c                    16.751007
_cell_angle_alpha                 67.54692
_cell_angle_beta                  67.7507
_cell_angle_gamma                 67.605967
_cell_volume                      3845.45350646

loop_
_atom_site_label
_atom_site_type_symbol
_atom_type_description
_atom_site_fract_x
_atom_site_fract_y
_atom_site_fract_z
_atom_type_partial_charge
C1    C     C_R   0.326119 0.943633 0.457001 0.044826
C2    C     C_R   0.673881 0.056365 0.542999 0.044825
C3    C     C_R   0.018313 0.424449 0.308750 0.049094
C4    C     C_R   0.981694 0.575549 0.691248 0.049096
C5    C     C_R   0.424694 0.308577 0.017930 0.048580
C6    C     C_R   0.575307 0.691420 0.982074 0.048591
C7    C     C_R   0.542823 0.052524 0.675712 0.044513
C8    C     C_R   0.457177 0.947475 0.324288 0.044515
C9    C     C_R   0.672911 0.550271 0.052070 0.052545
C10   C     C_R   0.327090 0.449725 0.947931 0.052552
C11   C     C_R   0.051059 0.673223 0.550329 0.056504
C12   C     C_R   0.948947 0.326775 0.449670 0.056504
C13   C     C_R   0.458632 0.973502 0.458064 -0.057415
C14   C     C_R   0.541369 0.026495 0.541937 -0.057414
C15   C     C_R   0.993706 0.449887 0.451920 -0.054678
C16   C     C_R   0.006307 0.550107 0.548078 -0.054679
C17   C     C_R   0.450038 0.451880 0.993402 -0.057312
C18   C     C_R   0.549956 0.548120 0.006605 -0.057312
C19   C     C_R   0.028915 0.828119 0.564700 0.818393
C20   C     C_R   0.971087 0.171880 0.435299 0.818389
C21   C     C_R   0.828115 0.564378 0.029500 0.816320
C22   C     C_R   0.171884 0.435621 0.970504 0.816285
C23   C     C_R   0.564180 0.029289 0.827841 0.815273
C24   C     C_R   0.435820 0.970711 0.172159 0.815265
C25   C     C_R   0.429660 0.168369 0.986997 0.833359
C26   C     C_R   0.570338 0.831628 0.013008 0.833348
C27   C     C_R   0.986942 0.429766 0.168350 0.827064
C28   C     C_R   0.013060 0.570233 0.831650 0.827066
C29   C     C_R   0.172243 0.970376 0.435962 0.817200
C30   C     C_R   0.827757 0.029624 0.564038 0.817200
C31   C     C_R   0.413847 0.954903 0.413008 -0.006962
C32   C     C_R   0.586154 0.045095 0.586992 -0.006960
C33   C     C_R   0.986698 0.400635 0.403645 -0.015160
C34   C     C_R   0.013311 0.599361 0.596354 -0.015161
C35   C     C_R   0.400926 0.403578 0.986102 -0.016880
C36   C     C_R   0.599071 0.596419 0.013905 -0.016880
C37   C     C_R   0.272539 0.950508 0.403710 -0.116724
C38   C     C_R   0.727460 0.049492 0.596290 -0.116724
C39   C     C_R   0.992227 0.386971 0.262027 -0.109787
C40   C     C_R   0.007778 0.613027 0.737972 -0.109786
C41   C     C_R   0.386987 0.261995 0.991901 -0.112352
C42   C     C_R   0.613010 0.738001 0.008108 -0.112343
C43   C     C_R   0.596249 0.047982 0.728130 -0.115278
C44   C     C_R   0.403751 0.952018 0.271870 -0.115278
C45   C     C_R   0.729390 0.600897 0.043029 -0.111086
C46   C     C_R   0.270607 0.399099 0.956979 -0.111078
C47   C     C_R   0.042045 0.729525 0.601111 -0.111974
C48   C     C_R   0.957960 0.270473 0.398888 -0.111970
C49   C     C_R   0.448124 0.061870 0.707914 0.117747
C50   C     C_R   0.551876 0.938128 0.292086 0.117751
C51   C     C_R   0.097405 0.686091 0.457399 0.125613
C52   C     C_R   0.902598 0.313909 0.542601 0.125606
C53   C     C_R   0.686049 0.457256 0.098383 0.121438
C54   C     C_R   0.313975 0.542731 0.901586 0.121433
C55   C     C_R   0.295991 0.928148 0.552176 0.135770
C56   C     C_R   0.704009 0.071850 0.447824 0.135763
C57   C     C_R   0.482576 0.265227 0.075524 0.108166
C58   C     C_R   0.517447 0.734768 0.924458 0.108193
C59   C     C_R   0.075818 0.482217 0.265580 0.110821
C60   C     C_R   0.924185 0.517783 0.734418 0.110824
C61   C     C_R   0.313026 0.953103 0.312971 -0.281287
C62   C     C_R   0.686974 0.046897 0.687028 -0.281284
C63   C     C_R   0.968734 0.306682 0.306989 -0.282825
C64   C     C_R   0.031272 0.693316 0.693009 -0.282825
C65   C     C_R   0.306590 0.307162 0.967999 -0.285862
C66   C     C_R   0.693404 0.692832 0.032015 -0.285870
C67   C     C_R   0.666717 0.039766 0.406928 0.093149
C68   C     C_R   0.333284 0.960231 0.593073 0.093140
C69   C     C_R   0.921168 0.465109 0.687126 0.094338
C70   C     C_R   0.078837 0.534889 0.312872 0.094338
C71   C     C_R   0.464834 0.687412 0.921060 0.093377
C72   C     C_R   0.535202 0.312581 0.078896 0.093385
C73   C     C_R   0.590019 0.973853 0.328429 0.085281
C74   C     C_R   0.409982 0.026145 0.671571 0.085267
C75   C     C_R   0.362987 0.591269 0.909589 0.091262
C76   C     C_R   0.637053 0.408719 0.090357 0.091265
C77   C     C_R   0.910377 0.363039 0.591080 0.093421
C78   C     C_R   0.089628 0.636959 0.408919 0.093423
C79   C     C_R   0.709597 0.029100 0.319868 -0.207443
C80   C     C_R   0.290404 0.970897 0.680133 -0.207477
C81   C     C_R   0.875835 0.397783 0.731086 -0.205843
C82   C     C_R   0.124166 0.602220 0.268911 -0.205844
C83   C     C_R   0.397512 0.731440 0.875286 -0.207658
C84   C     C_R   0.602598 0.268531 0.124579 -0.207615
C85   C     C_R   0.673627 0.993158 0.282746 -0.221088
C86   C     C_R   0.326374 0.006839 0.717255 -0.221095
C87   C     C_R   0.347322 0.684591 0.870223 -0.210366
C88   C     C_R   0.652794 0.315380 0.129632 -0.210400
C89   C     C_R   0.871145 0.347488 0.684315 -0.204804
C90   C     C_R   0.128855 0.652514 0.315682 -0.204806
C91   C     C_R   0.543797 0.989580 0.413095 0.015762
C92   C     C_R   0.456204 0.010417 0.586905 0.015762
C93   C     C_R   0.956782 0.430333 0.545714 0.010920
C94   C     C_R   0.043229 0.569662 0.454284 0.010920
C95   C     C_R   0.430302 0.545815 0.956379 0.008508
C96   C     C_R   0.569703 0.454182 0.043611 0.008512
C97   C     C_R   0.584519 0.017536 0.454409 0.011244
C98   C     C_R   0.415482 0.982461 0.545592 0.011247
C99   C     C_R   0.480661 0.593996 0.962751 0.013423
C100  C     C_R   0.519344 0.406003 0.037241 0.013422
C101  C     C_R   0.962847 0.480816 0.593850 0.014637
C102  C     C_R   0.037164 0.519178 0.406149 0.014638
Cu1   Cu    Cu3+1 0.995180 0.995180 0.424630 0.919537
Cu2   Cu    Cu3+1 0.004820 0.004820 0.575370 0.919543
Cu3   Cu    Cu3+1 0.995180 0.424630 0.995180 0.914435
Cu4   Cu    Cu3+1 0.004820 0.575370 0.004820 0.914460
Cu5   Cu    Cu3+1 0.424630 0.995180 0.995180 0.906706
Cu6   Cu    Cu3+1 0.575370 0.004820 0.004820 0.906688
H1    H     H_    0.271848 0.960638 0.272291 0.188993
H2    H     H_    0.728152 0.039362 0.727709 0.188992
H3    H     H_    0.962050 0.270276 0.269564 0.189230
H4    H     H_    0.037956 0.729722 0.730434 0.189230
H5    H     H_    0.269855 0.269828 0.961393 0.191563
H6    H     H_    0.730136 0.730165 0.038626 0.191560
H7    H     H_    0.289950 0.016179 0.783379 0.143864
H8    H     H_    0.710050 0.983819 0.216622 0.143846
H9    H     H_    0.163299 0.704290 0.277261 0.153122
H10   H     H_    0.836695 0.295716 0.722736 0.153118
H11   H     H_    0.704587 0.276936 0.164420 0.149233
H12   H     H_    0.295607 0.723023 0.835335 0.149236
H13   H     H_    0.226803 0.955419 0.718537 0.144745
H14   H     H_    0.773198 0.044579 0.281464 0.144730
H15   H     H_    0.618514 0.196825 0.155886 0.157390
H16   H     H_    0.381663 0.803127 0.843892 0.157444
H17   H     H_    0.155423 0.618023 0.197285 0.151585
H18   H     H_    0.844573 0.381983 0.802712 0.151584
O1    O     O_R   0.124540 0.978640 0.385460 -0.588942
O2    O     O_R   0.875460 0.021360 0.614540 -0.588939
O3    O     O_R   0.978640 0.385460 0.124540 -0.593635
O4    O     O_R   0.021360 0.614540 0.875460 -0.593620
O5    O     O_R   0.385460 0.124540 0.978640 -0.594234
O6    O     O_R   0.614540 0.875460 0.021360 -0.594232
O7    O     O_R   0.614540 0.021360 0.875460 -0.584546
O8    O     O_R   0.385460 0.978640 0.124540 -0.584547
O9    O     O_R   0.875460 0.614540 0.021360 -0.585203
O10   O     O_R   0.124540 0.385460 0.978640 -0.585206
O11   O     O_R   0.021360 0.875460 0.614540 -0.591932
O12   O     O_R   0.978640 0.124540 0.385460 -0.591934
O13   O     O_R   0.013780 0.867370 0.487190 -0.569216
O14   O     O_R   0.986220 0.132630 0.512810 -0.569214
O15   O     O_R   0.867370 0.487190 0.013780 -0.586308
O16   O     O_R   0.132630 0.512810 0.986220 -0.586291
O17   O     O_R   0.487190 0.013780 0.867370 -0.590112
O18   O     O_R   0.512810 0.986220 0.132630 -0.590119
O19   O     O_R   0.512810 0.132630 0.986220 -0.575679
O20   O     O_R   0.487190 0.867370 0.013780 -0.575666
O21   O     O_R   0.986220 0.512810 0.132630 -0.575514
O22   O     O_R   0.013780 0.487190 0.867370 -0.575512
O23   O     O_R   0.132630 0.986220 0.512810 -0.572614
O24   O     O_R   0.867370 0.013780 0.487190 -0.572614
C103  C     C_3   0.384879 0.130259 0.758964 -0.781963
H19   H     H_    0.344947 0.097850 0.825501 0.235838
H20   H     H_    0.421848 0.167689 0.767994 0.225486
H21   H     H_    0.337095 0.180832 0.720061 0.214942
C104  C     C_3   0.615121 0.869740 0.241035 -0.781975
H22   H     H_    0.578152 0.832310 0.232005 0.225486
H23   H     H_    0.655053 0.902149 0.174498 0.235838
H24   H     H_    0.662905 0.819167 0.279938 0.214941
C105  C     C_3   0.166732 0.739329 0.413240 -0.826286
H25   H     H_    0.143508 0.801258 0.361820 0.242576
H26   H     H_    0.182021 0.757521 0.461877 0.208835
H27   H     H_    0.232098 0.697747 0.380538 0.219557
C106  C     C_3   0.833271 0.260672 0.586760 -0.826259
H28   H     H_    0.817990 0.242466 0.538126 0.208836
H29   H     H_    0.856490 0.198748 0.638190 0.242561
H30   H     H_    0.767904 0.302263 0.619451 0.219556
C107  C     C_3   0.739666 0.412929 0.167539 -0.821660
H31   H     H_    0.801766 0.361538 0.144645 0.241577
H32   H     H_    0.758147 0.461506 0.182571 0.219688
H33   H     H_    0.697973 0.380074 0.232618 0.215638
C108  C     C_3   0.260357 0.587044 0.832433 -0.821626
H34   H     H_    0.241813 0.538472 0.817459 0.219684
H35   H     H_    0.198292 0.638486 0.855292 0.241540
H36   H     H_    0.302078 0.619827 0.767328 0.215622
C109  C     C_3   0.243192 0.859993 0.611485 -0.814417
H37   H     H_    0.176790 0.891662 0.652342 0.240858
H38   H     H_    0.232849 0.826522 0.571749 0.217119
H39   H     H_    0.281819 0.806248 0.657981 0.208752
C110  C     C_3   0.756808 0.140005 0.388515 -0.814408
H40   H     H_    0.767151 0.173477 0.428250 0.217118
H41   H     H_    0.823211 0.108336 0.347658 0.240854
H42   H     H_    0.718181 0.193749 0.342018 0.208776
C111  C     C_3   0.475261 0.177039 0.146444 -0.796518
H43   H     H_    0.417291 0.156514 0.151528 0.214350
H44   H     H_    0.538982 0.123696 0.132724 0.251548
H45   H     H_    0.462979 0.184218 0.213667 0.217322
C112  C     C_3   0.524775 0.822957 0.853545 -0.796587
H46   H     H_    0.461049 0.876299 0.867246 0.251555
H47   H     H_    0.582729 0.843486 0.848484 0.214362
H48   H     H_    0.537088 0.815782 0.786318 0.217300
C113  C     C_3   0.147290 0.474558 0.177821 -0.795685
H49   H     H_    0.152485 0.416837 0.157355 0.216395
H50   H     H_    0.133674 0.537889 0.124160 0.251040
H51   H     H_    0.214737 0.462069 0.185580 0.216799
C114  C     C_3   0.852711 0.525445 0.822173 -0.795698
H52   H     H_    0.866323 0.462113 0.875835 0.251036
H53   H     H_    0.847512 0.583165 0.842639 0.216403
H54   H     H_    0.785267 0.537932 0.814410 0.216802

loop_
_geom_bond_atom_site_label_1
_geom_bond_atom_site_label_2
_ccdc_geom_bond_type
C68   C80   A    
C83   C87   A    
C108  H34   S    
C9    C45   A    
C81   H18   S    
C104  H23   S    
C18   C96   A    
C6    C58   A    
C11   C47   A    
C106  H28   S    
Cu6   O18   S    
C108  H36   S    
C12   C48   A    
C61   H1    S    
C55   C68   A    
C75   C95   A    
C107  H32   S    
C78   C90   A    
C84   H15   S    
C108  H35   S    
C77   C89   A    
C106  H29   S    
C69   C81   A    
C24   O18   A    
Cu5   O8    S    
C111  H44   S    
C105  H25   S    
Cu3   O15   S    
C19   C47   S    
C58   C71   A    
C64   H4    S    
C3    C33   A    
C95   C99   A    
C20   O12   A    
C96   C100  A    
C1    C31   A    
C23   C43   S    
Cu2   O11   S    
C30   C38   S    
C2    C32   A    
C103  H21   S    
C74   C92   A    
C13   C98   A    
C26   O20   A    
C112  H48   S    
C80   C86   A    
Cu1   O24   S    
C16   C34   A    
C59   C113  S    
C53   C107  S    
C30   O2    A    
C4    C40   A    
C27   C39   S    
C62   H2    S    
C10   C46   A    
C9    C36   A    
Cu5   Cu6   S    
C105  H26   S    
C50   C73   A    
C10   C35   A    
C17   C95   A    
C7    C43   A    
C83   H16   S    
C109  H39   S    
Cu1   O1    S    
C76   C88   A    
C71   C83   A    
C1    C37   A    
C110  H42   S    
C81   C89   A    
C73   C91   A    
C3    C39   A    
C15   C102  A    
C13   C91   A    
C104  H24   S    
C23   O17   A    
C60   C114  S    
C10   C54   A    
C12   C52   A    
Cu4   O16   S    
C107  H33   S    
C21   C45   S    
C80   H13   S    
C85   H8    S    
C79   H14   S    
C4    C34   A    
C28   O22   A    
Cu6   O6    S    
C49   C103  S    
C92   C98   A    
C113  H49   S    
C90   H9    S    
C8    C44   A    
C106  H30   S    
C67   C79   A    
C7    C49   A    
C46   C65   A    
C109  H38   S    
C111  H45   S    
C25   C41   S    
C107  H31   S    
Cu5   O20   S    
C23   O7    A    
C48   C63   A    
C41   C65   A    
C114  H52   S    
C52   C106  S    
Cu3   O22   S    
C71   C99   A    
C91   C97   A    
Cu4   O21   S    
C110  H40   S    
C22   O10   A    
C86   H7    S    
C45   C66   A    
Cu2   O23   S    
C55   C109  S    
C111  H43   S    
C113  H50   S    
C82   H17   S    
Cu1   O13   S    
C2    C38   A    
C109  H37   S    
Cu2   O2    S    
C50   C104  S    
C19   O11   A    
C14   C92   A    
C22   O16   A    
C70   C102  A    
C105  H27   S    
C38   C62   A    
C20   C48   S    
C74   C86   A    
C88   H11   S    
C73   C85   A    
C72   C84   A    
Cu3   O10   S    
C75   C87   A    
Cu4   O9    S    
C22   C46   S    
C29   O1    A    
Cu3   O3    S    
C24   C44   S    
C15   C33   A    
Cu1   O12   S    
C53   C76   A    
C9    C53   A    
C18   C99   A    
C93   C101  A    
C52   C77   A    
C25   O5    A    
C8    C50   A    
C57   C111  S    
C26   O6    A    
C26   C42   S    
C14   C97   A    
Cu6   O19   S    
C72   C100  A    
C24   O8    A    
Cu4   O4    S    
C5    C41   A    
C25   O19   A    
C7    C32   A    
C66   H6    S    
C30   O24   A    
C58   C112  S    
C8    C31   A    
C65   H5    S    
C54   C108  S    
C13   C31   A    
C11   C34   A    
C84   C88   A    
C14   C32   A    
C4    C60   A    
C82   C90   A    
C15   C93   A    
C37   C61   A    
C47   C64   A    
C69   C101  A    
C44   C61   A    
C56   C67   A    
C39   C63   A    
Cu3   Cu4   S    
C16   C94   A    
C40   C64   A    
C5    C57   A    
C114  H54   S    
Cu5   O5    S    
C1    C55   A    
C51   C78   A    
C21   O15   A    
Cu6   O7    S    
C27   O21   A    
C2    C56   A    
C76   C96   A    
C77   C93   A    
C20   O14   A    
C18   C36   A    
C60   C69   A    
C78   C94   A    
C27   O3    A    
C5    C35   A    
C51   C105  S    
C79   C85   A    
C6    C36   A    
C28   O4    A    
C103  H20   S    
C57   C72   A    
C63   H3    S    
C70   C82   A    
C17   C100  A    
C68   C98   A    
C112  H47   S    
C11   C51   A    
C67   C97   A    
C59   C70   A    
C29   O23   A    
C54   C75   A    
Cu2   O14   S    
C16   C101  A    
C87   H12   S    
C89   H10   S    
C94   C102  A    
C19   O13   A    
C6    C42   A    
C29   C37   S    
Cu1   Cu2   S    
C42   C66   A    
C28   C40   S    
C49   C74   A    
C112  H46   S    
C17   C35   A    
C114  H53   S    
C12   C33   A    
C104  H22   S    
Cu5   O17   S    
C103  H19   S    
C21   O9    A    
C113  H51   S    
C43   C62   A    
C110  H41   S    
C56   C110  S    
C3    C59   A    
