data_str_m12_o9_o11_f0_bcu.sym.70
_audit_creation_date              2012-12-11T17:39:39-0500
_audit_creation_method            fapswitch 2.2
_symmetry_space_group_name_H-M    P1
_symmetry_Int_Tables_number       1
_space_group_crystal_system       triclinic
_cell_length_a                    15.09348
_cell_length_b                    14.913235
_cell_length_c                    14.952214
_cell_angle_alpha                 108.453289
_cell_angle_beta                  110.014281
_cell_angle_gamma                 110.085561
_cell_volume                      2585.89594956

loop_
_atom_site_label
_atom_site_type_symbol
_atom_type_description
_atom_site_fract_x
_atom_site_fract_y
_atom_site_fract_z
_atom_type_partial_charge
C1    C     C_R   0.908184 0.973176 0.720665 -0.123756
C2    C     C_R   0.996845 0.325951 0.532161 0.049965
C3    C     C_R   0.364978 0.301309 0.800412 0.144425
C4    C     C_R   0.638450 0.941471 0.439987 0.136340
C5    C     C_R   0.750278 0.686471 0.279299 -0.128031
C6    C     C_R   0.245525 0.026516 0.433562 -0.104824
C7    C     C_R   0.090373 0.793243 0.598889 -0.139122
C8    C     C_R   0.908540 0.005315 0.202798 -0.132849
C9    C     C_R   0.089290 0.096080 0.289924 -0.120315
C10   C     C_R   0.909428 0.705136 0.512343 -0.134107
C11   C     C_R   0.750680 0.779265 0.187232 -0.070338
C12   C     C_R   0.090366 0.316162 0.554169 -0.105557
C13   C     C_R   0.256205 0.941610 0.533383 -0.137176
C14   C     C_R   0.723692 0.676238 0.177145 0.129610
C15   C     C_R   0.283137 0.961331 0.459102 0.058952
C16   C     C_R   0.999962 0.705363 0.579103 0.068209
C17   C     C_R   0.996219 0.066789 0.196616 0.116500
C18   C     C_R   0.494217 0.599622 0.310933 -0.276421
C19   C     C_R   0.478468 0.687442 0.314600 0.768991
C20   C     C_R   0.450829 0.736526 0.389917 -0.093327
C21   C     C_R   0.431932 0.690695 0.455290 -0.271183
C22   C     C_R   0.443559 0.599955 0.447808 -0.033608
C23   C     C_R   0.302260 0.207608 0.798590 -0.134438
C24   C     C_R   0.475903 0.555231 0.376545 -0.138559
C25   C     C_R   0.362901 0.849453 0.413417 -0.254147
C26   C     C_R   0.366346 0.949856 0.440708 0.054617
C27   C     C_R   0.454444 0.042052 0.459020 0.045012
C28   C     C_R   0.536101 0.030542 0.446783 -0.289810
C29   C     C_R   0.536567 0.932857 0.425300 0.101031
C30   C     C_R   0.449448 0.839850 0.407183 0.113217
C31   C     C_R   0.446897 0.204093 0.447186 -0.292306
C32   C     C_R   0.475311 0.314048 0.497446 -0.253675
C33   C     C_R   0.535765 0.377560 0.611386 0.791241
C34   C     C_R   0.698978 0.998398 0.406059 -0.114834
C35   C     C_R   0.567059 0.330770 0.675038 -0.274624
C36   C     C_R   0.536675 0.220239 0.625113 -0.226398
C37   C     C_R   0.476349 0.156061 0.510769 0.148122
C38   C     C_R   0.692682 0.252279 0.219600 -0.070480
C39   C     C_R   0.790525 0.326290 0.319311 -0.083170
C40   C     C_R   0.793447 0.339620 0.417791 0.068961
C41   C     C_R   0.697209 0.278374 0.415148 -0.186840
C42   C     C_R   0.600943 0.200744 0.314717 -0.095908
C43   C     C_R   0.598224 0.188823 0.217276 -0.161020
C44   C     C_R   0.896406 0.527339 0.558622 -0.210906
C45   C     C_R   0.301605 0.300045 0.707715 -0.140220
C46   C     C_R   0.996606 0.624273 0.616360 0.044623
C47   C     C_R   0.091976 0.625587 0.678970 0.032769
C48   C     C_R   0.087919 0.525427 0.656575 -0.233952
C49   C     C_R   0.991725 0.426757 0.570977 0.068806
C50   C     C_R   0.893443 0.428457 0.522789 0.022770
C51   C     C_R   0.288650 0.751583 0.748834 -0.194350
C52   C     C_R   0.378608 0.858142 0.809924 -0.116487
C53   C     C_R   0.379701 0.941662 0.887486 -0.109209
C54   C     C_R   0.290873 0.918826 0.904414 -0.123130
C55   C     C_R   0.199076 0.813275 0.840943 -0.130161
C56   C     C_R   0.698582 0.909083 0.500301 -0.165579
C57   C     C_R   0.196409 0.729438 0.761016 0.117019
C58   C     C_2   0.535043 0.471169 0.881177 -0.107236
C59   C     C_2   0.481366 0.376276 0.877556 -0.226413
C60   C     C_2   0.635583 0.566365 0.979554 -0.089404
C61   C     C_2   0.667668 0.572382 0.077621 -0.199065
C62   C     C_R   0.389857 0.324582 0.107839 -0.203256
C63   C     C_R   0.294939 0.253865 0.100247 -0.080463
C64   C     C_R   0.195488 0.248179 0.043133 0.205075
C65   C     C_R   0.193060 0.315510 0.995518 -0.156402
C66   C     C_R   0.288303 0.386543 0.003982 -0.061036
C67   C     C_R   0.907323 0.221183 0.465840 -0.109992
C68   C     C_R   0.386293 0.390564 0.059538 -0.098132
C69   C     C_R   0.088638 0.171041 0.122033 0.673085
C70   C     C_R   0.991037 0.098002 0.110572 -0.095920
C71   C     C_R   0.892170 0.046580 0.009875 0.069037
C72   C     C_R   0.897334 0.048400 0.920078 -0.220085
C73   C     C_R   0.997837 0.094967 0.925690 -0.028747
C74   C     C_R   0.093093 0.169567 0.029488 -0.183875
C75   C     C_R   0.725239 0.868141 0.932476 -0.254211
C76   C     C_R   0.625377 0.808096 0.923615 -0.124719
C77   C     C_R   0.582117 0.862600 0.973129 -0.173025
C78   C     C_R   0.091070 0.061860 0.812805 -0.143809
C79   C     C_R   0.635135 0.977122 0.025836 -0.315454
C80   C     C_R   0.733414 0.037710 0.032133 0.753757
C81   C     C_R   0.781427 0.983366 0.989973 -0.059985
C82   C     C_R   0.000215 0.049647 0.823947 0.102717
H1    H     H_    0.823522 0.941651 0.697272 0.097459
H2    H     H_    0.175135 0.826388 0.653919 0.127549
H3    H     H_    0.824920 0.981806 0.159099 0.117107
H4    H     H_    0.825877 0.658171 0.491577 0.093592
H5    H     H_    0.740122 0.800956 0.123609 0.099099
H6    H     H_    0.276642 0.896383 0.572875 0.103518
H7    H     H_    0.487412 0.486613 0.372554 0.146223
H8    H     H_    0.522285 0.567010 0.258244 0.149414
H9    H     H_    0.174908 0.381305 0.603595 0.095682
H10   H     H_    0.411233 0.727041 0.514348 0.145691
H11   H     H_    0.429816 0.565818 0.499034 0.152378
H12   H     H_    0.294651 0.780238 0.400862 0.143116
H13   H     H_    0.606413 0.102995 0.466511 0.133802
H14   H     H_    0.400418 0.155955 0.358869 0.142883
H15   H     H_    0.451213 0.350113 0.447951 0.161389
H16   H     H_    0.616118 0.380293 0.763077 0.166743
H17   H     H_    0.562212 0.185214 0.675316 0.148792
H18   H     H_    0.522701 0.130757 0.140045 0.104408
H19   H     H_    0.331998 0.175501 0.850220 0.096903
H20   H     H_    0.689691 0.244665 0.144115 0.165184
H21   H     H_    0.863131 0.375720 0.320203 0.135050
H22   H     H_    0.697439 0.289931 0.490490 0.131117
H23   H     H_    0.527993 0.150019 0.311790 0.122499
H24   H     H_    0.820695 0.526007 0.519573 0.129650
H25   H     H_    0.161762 0.525633 0.700874 0.125471
H26   H     H_    0.287472 0.688800 0.686352 0.121777
H27   H     H_    0.449007 0.024278 0.933799 0.101711
H28   H     H_    0.291717 0.983685 0.964254 0.102867
H29   H     H_    0.128349 0.797950 0.850700 0.115531
H30   H     H_    0.496880 0.487075 0.816721 0.155786
H31   H     H_    0.519161 0.356252 0.938186 0.131770
H32   H     H_    0.668500 0.639958 0.973799 0.125873
H33   H     H_    0.639013 0.500472 0.086647 0.120756
H34   H     H_    0.459814 0.445999 0.066307 0.122648
H35   H     H_    0.466157 0.328270 0.151122 0.122978
H36   H     H_    0.298401 0.201865 0.136529 0.122888
H37   H     H_    0.117264 0.312289 0.951236 0.126630
H38   H     H_    0.286081 0.438010 0.966923 0.127424
H39   H     H_    0.329649 0.350941 0.674327 0.106655
H40   H     H_    0.821134 0.003823 0.843632 0.135964
H41   H     H_    0.760463 0.825256 0.897773 0.166542
H42   H     H_    0.582586 0.719421 0.880324 0.143596
H43   H     H_    0.506527 0.816011 0.969186 0.170922
H44   H     H_    0.600695 0.018682 0.063051 0.156168
H45   H     H_    0.671146 0.854223 0.530245 0.099888
H46   H     H_    0.822888 0.194569 0.437797 0.114915
H47   H     H_    0.176122 0.110240 0.875154 0.112832
H48   H     H_    0.739882 0.622194 0.300580 0.093315
N1    N     N_R   0.941940 0.944580 0.650780 -0.043720
N2    N     N_R   0.206190 0.054080 0.497260 -0.042896
N3    N     N_R   0.056380 0.847410 0.553580 -0.042748
N4    N     N_R   0.944890 0.999100 0.292900 -0.053128
N5    N     N_R   0.058060 0.055420 0.349220 -0.056441
N6    N     N_R   0.943200 0.791100 0.497260 -0.042556
N7    N     N_R   0.795540 0.849750 0.292910 -0.040487
N8    N     N_R   0.205730 0.996760 0.553580 -0.041461
N9    N     N_R   0.056800 0.208900 0.502740 -0.040381
N10   N     N_R   0.204460 0.150250 0.707090 -0.044253
N11   N     N_R   0.794270 0.003240 0.446420 -0.049594
N12   N     N_R   0.204920 0.207570 0.650770 -0.046734
N13   N     N_R   0.793810 0.945920 0.502740 -0.041051
N14   N     N_R   0.943620 0.152590 0.446420 -0.043810
N15   N     N_R   0.055110 0.000900 0.707100 -0.042784
N16   N     N_R   0.795080 0.792430 0.349230 -0.037165
Ni1   Ni    Ni4+2 0.869690 0.869690 0.500000 0.221122
Ni2   Ni    Ni4+2 0.130310 0.130310 0.500000 0.226435
Ni3   Ni    Ni4+2 0.129250 0.998840 0.629170 0.211328
Ni4   Ni    Ni4+2 0.870750 0.001160 0.370830 0.237678
H49   H     H_    0.250387 0.054477 0.376402 0.103214
H50   H     H_    0.173258 0.153405 0.319976 0.175397
F1    F     F_    0.492964 0.726097 0.246805 -0.719490
F2    F     F_    0.564928 0.484714 0.660070 -0.743410
H51   H     H_    0.446855 0.876340 0.795863 0.131617
H52   H     H_    0.670794 0.023735 0.346862 0.113881
F3    F     F_    0.179137 0.244272 0.222250 -0.735187
F4    F     F_    0.786116 0.148822 0.086161 -0.730336

loop_
_geom_bond_atom_site_label_1
_geom_bond_atom_site_label_2
_ccdc_geom_bond_type
C66   C68   A    
C9    H50   S    
C73   C74   A    
C12   H9    S    
C60   H32   S    
C35   C36   A    
C2    C12   A    
C24   H7    S    
C34   N11   A    
C20   C30   S    
C53   C54   A    
C52   H51   S    
N13   Ni1   S    
C28   C29   A    
C26   C27   A    
C29   C30   A    
C28   H13   S    
C75   H41   S    
C36   C37   A    
C78   H47   S    
N10   N12   A    
C7    N3    A    
N11   N13   A    
C38   C39   A    
C11   C14   A    
C48   H25   S    
N2    N8    A    
C31   H14   S    
N4    Ni4   S    
C32   H15   S    
C54   H28   S    
C8    H3    S    
C41   C42   A    
C56   H45   S    
C49   C50   A    
C78   C82   A    
C62   H35   S    
N14   Ni4   S    
C78   N15   A    
C6    C15   A    
C54   C55   A    
C56   N13   A    
C3    C23   A    
C47   C48   A    
C11   H5    S    
C51   H26   S    
C61   H33   S    
N3    N6    A    
C69   F3    S    
N1    Ni1   S    
C70   C71   A    
C51   C57   A    
C35   H16   S    
C13   H6    S    
C4    C29   S    
C72   C73   A    
C72   H40   S    
C7    H2    S    
C17   C70   S    
C66   H38   S    
C21   C22   A    
C4    C56   A    
C48   C49   A    
C67   N14   A    
C44   C46   A    
N11   Ni4   S    
C77   C79   A    
N8    Ni3   S    
C4    C34   A    
N9    Ni2   S    
C8    N4    A    
C51   C52   A    
N2    Ni2   S    
N12   Ni2   S    
C23   N10   A    
N3    Ni3   S    
C76   C77   A    
C18   C24   A    
C6    N2    A    
C2    C67   A    
C16   C46   S    
C39   C40   A    
C63   H36   S    
C33   F2    S    
C18   C19   A    
C15   C26   S    
C45   H39   S    
C25   C26   A    
C63   C64   A    
C14   C61   S    
C3    C45   A    
C31   C37   A    
C60   C61   D    
C18   H8    S    
C75   C76   A    
C62   C63   A    
C2    C49   S    
C47   C57   S    
N9    N14   A    
N7    N16   A    
C80   F4    S    
C31   C32   A    
C59   H31   S    
C65   H37   S    
C12   N9    A    
C69   C74   A    
C43   H18   S    
C5    C14   A    
C68   H34   S    
C6    H49   S    
C9    N5    A    
C9    C17   A    
C40   C41   A    
C79   H44   S    
N5    Ni2   S    
C34   H52   S    
C13   C15   A    
C7    C16   A    
C45   N12   A    
C19   F1    S    
C22   H11   S    
C58   H30   S    
N7    Ni4   S    
C58   C59   D    
C42   C43   A    
C73   C82   S    
C77   H43   S    
C52   C53   A    
N16   Ni1   S    
C44   C50   A    
C25   C30   A    
C46   C47   A    
C10   H4    S    
C5    N16   A    
C55   H29   S    
C75   C81   A    
C10   N6    A    
C80   C81   A    
C1    N1    A    
C39   H21   S    
N4    N5    A    
C44   H24   S    
C1    H1    S    
C8    C17   A    
C41   H22   S    
C62   C68   A    
C32   C33   A    
C19   C20   A    
C55   C57   A    
C1    C82   A    
C38   C43   A    
C38   H20   S    
C10   C16   A    
C67   H46   S    
C13   N8    A    
C23   H19   S    
C27   C37   S    
C40   C50   S    
C64   C65   A    
C33   C35   A    
N1    N15   A    
C36   H17   S    
C22   C24   A    
C11   N7    A    
C69   C70   A    
C42   H23   S    
N6    Ni1   S    
C76   H42   S    
C79   C80   A    
C5    H48   S    
C25   H12   S    
C71   C72   A    
C20   C21   A    
C65   C66   A    
C27   C28   A    
C64   C74   S    
C53   H27   S    
C58   C60   S    
N10   Ni3   S    
N15   Ni3   S    
C71   C81   S    
C21   H10   S    
C3    C59   S    
