data_str_m12_o9_o10_f0_bcu.sym.162
_audit_creation_date              2012-12-11T17:37:41-0500
_audit_creation_method            fapswitch 2.2
_symmetry_space_group_name_H-M    P1
_symmetry_Int_Tables_number       1
_space_group_crystal_system       triclinic
_cell_length_a                    12.958267
_cell_length_b                    12.983474
_cell_length_c                    15.309952
_cell_angle_alpha                 116.01098
_cell_angle_beta                  64.327896
_cell_angle_gamma                 96.716
_cell_volume                      2077.88775374

loop_
_atom_site_label
_atom_site_type_symbol
_atom_type_description
_atom_site_fract_x
_atom_site_fract_y
_atom_site_fract_z
_atom_type_partial_charge
C1    C     C_R   0.999048 0.832358 0.054468 -0.120473
C2    C     C_R   0.675773 0.523690 0.321710 0.055551
C3    C     C_R   0.661769 0.462930 0.927001 0.148969
C4    C     C_R   0.073285 0.791496 0.302356 0.077799
C5    C     C_R   0.337172 0.512315 0.947191 -0.224440
C6    C     C_R   0.970166 0.179807 0.783522 -0.109547
C7    C     C_R   0.199249 0.507320 0.694905 -0.128976
C8    C     C_R   0.037143 0.260089 0.100585 -0.088563
C9    C     C_R   0.942467 0.175355 0.002130 -0.117780
C10   C     C_R   0.296883 0.596707 0.792949 -0.146214
C11   C     C_R   0.258948 0.412019 0.044237 0.578312
C12   C     C_R   0.680569 0.459407 0.219911 -0.147991
C13   C     C_R   0.047724 0.279289 0.685034 -0.139978
C14   C     C_R   0.362068 0.429721 0.970417 -0.014429
C15   C     C_R   0.030960 0.170601 0.680921 0.056707
C16   C     C_R   0.293774 0.566934 0.696581 0.053560
C17   C     C_R   0.988997 0.158869 0.061562 0.013276
C18   C     C_R   0.456039 0.823580 0.160776 -0.268701
C19   C     C_R   0.352749 0.837488 0.252104 0.600161
C20   C     C_R   0.274104 0.934124 0.300518 -0.251901
C21   C     C_R   0.298301 0.015185 0.257361 0.585060
C22   C     C_R   0.399412 0.996054 0.163107 -0.280012
C23   C     C_R   0.755003 0.522077 0.893959 -0.169052
C24   C     C_R   0.478024 0.901582 0.116161 -0.230079
C25   C     C_R   0.151470 0.046081 0.494565 -0.178595
C26   C     C_R   0.048362 0.067587 0.586391 0.036603
C27   C     C_R   0.959827 0.993806 0.585440 0.013454
C28   C     C_R   0.977389 0.898505 0.492067 -0.264912
C29   C     C_R   0.077321 0.879278 0.398249 0.101540
C30   C     C_R   0.166553 0.952194 0.398384 0.186525
C31   C     C_R   0.800502 0.954672 0.731831 -0.195050
C32   C     C_R   0.687764 0.977613 0.811825 -0.107714
C33   C     C_R   0.614988 0.064777 0.832219 -0.102462
C34   C     C_R   0.017482 0.695291 0.300479 -0.146242
C35   C     C_R   0.655078 0.129310 0.772907 -0.119703
C36   C     C_R   0.768404 0.108309 0.694417 -0.115296
C37   C     C_R   0.841916 0.020785 0.673414 0.129629
C38   C     C_R   0.853471 0.318041 0.385603 -0.110799
C39   C     C_R   0.753523 0.364375 0.397346 -0.128244
C40   C     C_R   0.698986 0.471047 0.483728 0.117990
C41   C     C_R   0.744726 0.528784 0.559276 -0.186505
C42   C     C_R   0.843826 0.481347 0.547810 -0.134342
C43   C     C_R   0.898541 0.376399 0.460718 -0.088347
C44   C     C_R   0.495964 0.541284 0.592365 -0.233584
C45   C     C_R   0.676360 0.423332 0.991027 -0.124279
C46   C     C_R   0.388698 0.573279 0.606383 0.060530
C47   C     C_R   0.375290 0.591167 0.527519 0.011446
C48   C     C_R   0.472556 0.574978 0.433923 -0.229576
C49   C     C_R   0.578901 0.539749 0.419453 0.058915
C50   C     C_R   0.591467 0.520645 0.498302 0.017778
C51   C     C_R   0.225343 0.561356 0.458932 -0.178242
C52   C     C_R   0.120152 0.593735 0.469124 -0.094764
C53   C     C_R   0.051631 0.690207 0.559652 -0.090060
C54   C     C_R   0.087933 0.754248 0.640506 -0.105607
C55   C     C_R   0.193093 0.722022 0.630738 -0.117395
C56   C     C_R   0.095358 0.799419 0.209098 -0.158450
C57   C     C_R   0.262746 0.625246 0.539684 0.131592
C58   C     C_2   0.476445 0.397405 0.948123 -0.204762
C59   C     C_2   0.567404 0.442420 0.897148 -0.218785
C60   C     C_2   0.828574 0.954349 0.091556 -0.195491
C61   C     C_2   0.810913 0.033369 0.190206 -0.159208
C62   C     C_R   0.784125 0.550738 0.314370 -0.109626
C63   C     C_R   0.900008 0.747662 0.956493 -0.147558
C64   C     C_R   0.910712 0.851501 0.032946 0.131993
H1    H     H_    0.027261 0.894186 0.112946 0.104830
H2    H     H_    0.941483 0.111282 0.807757 0.103349
H3    H     H_    0.167183 0.478612 0.634275 0.097909
H4    H     H_    0.061305 0.284505 0.165726 0.155338
H5    H     H_    0.353669 0.653262 0.823562 0.094601
H6    H     H_    0.087500 0.302644 0.618740 0.103656
H7    H     H_    0.556579 0.888870 0.044932 0.148029
H8    H     H_    0.520141 0.752924 0.124308 0.148693
H9    H     H_    0.611382 0.420741 0.198458 0.096488
H10   H     H_    0.417159 0.053850 0.125519 0.133741
H11   H     H_    0.218583 0.104124 0.497425 0.125207
H12   H     H_    0.906504 0.845153 0.490776 0.136393
H13   H     H_    0.855588 0.886357 0.716181 0.102682
H14   H     H_    0.656526 0.927163 0.857316 0.097578
H15   H     H_    0.527306 0.081497 0.893185 0.090965
H16   H     H_    0.598000 0.194515 0.786578 0.132591
H17   H     H_    0.798334 0.158689 0.648764 0.116621
H18   H     H_    0.975608 0.340104 0.451671 0.116431
H19   H     H_    0.777373 0.551052 0.832127 0.092738
H20   H     H_    0.895894 0.236638 0.318506 0.114962
H21   H     H_    0.718869 0.317451 0.339156 0.120709
H22   H     H_    0.703712 0.610617 0.626876 0.112291
H23   H     H_    0.878226 0.525991 0.606483 0.112451
H24   H     H_    0.504171 0.522218 0.651513 0.130676
H25   H     H_    0.465734 0.589932 0.372127 0.147182
H26   H     H_    0.277392 0.486135 0.388346 0.107213
H27   H     H_    0.091827 0.543923 0.406744 0.120365
H28   H     H_    0.970267 0.714736 0.567048 0.097376
H29   H     H_    0.034825 0.828976 0.710722 0.100542
H30   H     H_    0.997103 0.657422 0.355817 0.098764
H31   H     H_    0.220560 0.772817 0.693599 0.109147
H32   H     H_    0.482096 0.356428 0.993545 0.144165
H33   H     H_    0.565536 0.482293 0.848706 0.137558
H34   H     H_    0.775381 0.963023 0.056119 0.129733
H35   H     H_    0.858216 0.027798 0.231850 0.134658
H36   H     H_    0.145532 0.860376 0.181189 0.113823
H37   H     H_    0.810255 0.597823 0.378551 0.105595
H38   H     H_    0.836226 0.731353 0.925427 0.097128
H39   H     H_    0.395354 0.551725 0.897699 0.132513
N1    N     N_R   0.037320 0.720000 0.995830 -0.043589
N2    N     N_R   0.946240 0.290870 0.848020 -0.041794
N3    N     N_R   0.146160 0.501170 0.788610 -0.038988
N4    N     N_R   0.025750 0.332680 0.063570 -0.048027
N5    N     N_R   0.962680 0.280000 0.004170 -0.047945
N6    N     N_R   0.209230 0.553860 0.848010 -0.033366
N7    N     N_R   0.175100 0.482030 0.063570 -0.098140
N8    N     N_R   0.996810 0.351820 0.788610 -0.041053
N9    N     N_R   0.790770 0.446140 0.151990 -0.039646
N10   N     N_R   0.824900 0.517970 0.936430 -0.038546
N11   N     N_R   0.003190 0.648180 0.211390 -0.040659
N12   N     N_R   0.774330 0.457010 0.995830 -0.041132
N13   N     N_R   0.053760 0.709130 0.151980 -0.039280
N14   N     N_R   0.853840 0.498830 0.211390 -0.043301
N15   N     N_R   0.974250 0.667320 0.936430 -0.040029
N16   N     N_R   0.225670 0.542990 0.004170 -0.075410
Ni1   Ni    Ni4+2 0.130310 0.630310 0.000000 0.202650
Ni2   Ni    Ni4+2 0.869690 0.369690 0.000000 0.211291
Ni3   Ni    Ni4+2 0.985660 0.509480 0.863750 0.210777
Ni4   Ni    Ni4+2 0.014340 0.490520 0.136250 0.227369
H40   H     H_    0.884337 0.120221 0.972741 0.095643
O1    O     O_3   0.246165 0.358881 0.109208 -0.647765
C65   C     C_3   0.303263 0.246448 0.048525 -0.330491
H41   H     H_    0.378163 0.244459 0.064967 0.147270
H42   H     H_    0.329968 0.210838 0.960242 0.137384
H43   H     H_    0.245168 0.186800 0.076741 0.180018
O2    O     O_3   0.330739 0.764274 0.301332 -0.614960
C66   C     C_3   0.345053 0.648380 0.225610 -0.209782
H44   H     H_    0.437042 0.614658 0.182036 0.141203
H45   H     H_    0.308852 0.636778 0.168299 0.135896
H46   H     H_    0.297571 0.596020 0.268982 0.182695
O3    O     O_3   0.216555 0.105875 0.302759 -0.621168
C67   C     C_3   0.265597 0.211829 0.330562 -0.275493
H47   H     H_    0.314917 0.228724 0.258817 0.149555
H48   H     H_    0.320600 0.216437 0.371281 0.130565
H49   H     H_    0.195024 0.281719 0.388083 0.165521
H50   H     H_    0.630921 0.360096 0.018002 0.084380

loop_
_geom_bond_atom_site_label_1
_geom_bond_atom_site_label_2
_ccdc_geom_bond_type
C5    H39   S    
C65   H41   S    
N12   Ni2   S    
C41   C42   A    
C3    C23   A    
C19   C20   A    
N4    Ni4   S    
N5    Ni2   S    
C66   H46   S    
C2    C12   A    
O3    C67   S    
C20   C30   S    
C53   C54   A    
C9    N5    A    
C41   H22   S    
C28   C29   A    
C26   C27   A    
C23   H19   S    
C5    N16   A    
C18   C24   A    
C36   C37   A    
C11   O1    S    
C56   H36   S    
C60   H34   S    
C67   H49   S    
C51   H26   S    
C38   C39   A    
C11   C14   A    
C47   C57   S    
C13   H6    S    
C35   H16   S    
C9    H40   S    
C10   N6    A    
C18   C19   A    
N15   Ni3   S    
C58   H32   S    
C62   N14   A    
C6    C15   A    
C54   C55   A    
C8    N4    A    
N10   Ni3   S    
C35   C36   A    
C54   H29   S    
C1    H1    S    
N4    N5    A    
C51   C57   A    
C4    C29   S    
C62   H37   S    
C19   O2    S    
N2    N8    A    
C12   H9    S    
C4    C56   A    
C11   N7    A    
C61   H35   S    
C63   H38   S    
C44   C46   A    
C31   H13   S    
N1    N15   A    
C18   H8    S    
C14   C58   S    
C4    C34   A    
C51   C52   A    
C55   H31   S    
C16   C46   S    
C39   C40   A    
C63   N15   A    
C33   H15   S    
C15   C26   S    
C65   H43   S    
C25   C26   A    
C32   H14   S    
C3    C45   A    
C45   H50   S    
C38   C43   A    
C31   C37   A    
C60   C61   D    
C25   H11   S    
N8    Ni3   S    
C29   C30   A    
C2    C49   S    
N7    Ni4   S    
C23   N10   A    
C45   N12   A    
C47   C48   A    
C36   H17   S    
N3    Ni3   S    
C53   H28   S    
C56   N13   A    
C7    N3    A    
N2    Ni2   S    
C1    N1    A    
C5    C14   A    
N11   Ni4   S    
C9    C17   A    
C40   C41   A    
C8    H4    S    
C48   H25   S    
C13   C15   A    
O1    C65   S    
C59   H33   S    
C22   C24   A    
C42   C43   A    
C39   H21   S    
C66   H44   S    
C28   H12   S    
C1    C64   A    
C12   N9    A    
C52   C53   A    
C67   H48   S    
C44   C50   A    
C25   C30   A    
C46   C47   A    
C48   C49   A    
C65   H42   S    
C38   H20   S    
C31   C32   A    
C7    C16   A    
C34   H30   S    
C67   H47   S    
C66   H45   S    
N7    N16   A    
N11   N13   A    
N16   Ni1   S    
C34   N11   A    
C8    C17   A    
C60   C64   S    
C32   C33   A    
C55   C57   A    
O2    C66   S    
C58   C59   D    
N9    Ni2   S    
C13   N8    A    
C10   C16   A    
N9    N14   A    
C27   C37   S    
C40   C50   S    
C33   C35   A    
C6    N2    A    
C44   H24   S    
N14   Ni4   S    
C7    H3    S    
C63   C64   A    
C10   H5    S    
N13   Ni1   S    
C6    H2    S    
C20   C21   A    
C24   H7    S    
C49   C50   A    
C27   C28   A    
C43   H18   S    
C22   H10   S    
C52   H27   S    
C42   H23   S    
N1    Ni1   S    
C21   C22   A    
C21   O3    S    
C2    C62   A    
N6    Ni1   S    
N10   N12   A    
N3    N6    A    
C3    C59   S    
