data_str_m4_o4_o15_f0_acs.sym.13
_audit_creation_date              2012-12-11T15:44:51-0500
_audit_creation_method            fapswitch 2.2
_symmetry_space_group_name_H-M    P1
_symmetry_Int_Tables_number       1
_space_group_crystal_system       triclinic
_cell_length_a                    19.430095
_cell_length_b                    11.051123
_cell_length_c                    18.692537
_cell_angle_alpha                 90.226601
_cell_angle_beta                  91.144789
_cell_angle_gamma                 89.92693
_cell_volume                      4012.90782509

loop_
_atom_site_label
_atom_site_type_symbol
_atom_type_description
_atom_site_fract_x
_atom_site_fract_y
_atom_site_fract_z
_atom_type_partial_charge
C1    C     C_R   0.759679 0.534226 0.646449 0.544950
C2    C     C_R   0.176262 0.072477 0.546750 -0.178904
C3    C     C_R   0.507952 0.951543 0.961625 0.083960
C4    C     C_R   0.016774 0.233722 0.957084 -0.181700
C5    C     C_R   0.018691 0.231480 0.031901 -0.172115
C6    C     C_R   0.516774 0.733722 0.957084 -0.181700
C7    C     C_R   0.518691 0.731480 0.031901 -0.172115
C8    C     C_3   0.962895 0.551464 0.043926 -0.250780
C9    C     C_3   0.959152 0.557263 0.963463 -0.193498
C10   C     C_3   0.462895 0.051464 0.043926 -0.250780
C11   C     C_3   0.459152 0.057263 0.963463 -0.193498
C12   C     C_R   0.760879 0.531802 0.852044 0.514280
C13   C     C_R   0.321429 0.558173 0.455894 -0.158627
C14   C     C_R   0.237343 0.528683 0.146216 0.539609
C15   C     C_R   0.260879 0.031802 0.852044 0.514277
C16   C     C_R   0.737343 0.028683 0.146216 0.539609
C17   C     C_R   0.772640 0.124113 0.851802 0.530145
C18   C     C_R   0.227166 0.128063 0.146686 0.555990
C19   C     C_R   0.272640 0.624112 0.851802 0.530144
C20   C     C_R   0.727166 0.628063 0.146686 0.555990
C21   C     C_R   0.971075 0.347384 0.852614 0.519814
C22   C     C_R   0.031277 0.346475 0.145637 0.540801
C23   C     C_R   0.471075 0.847384 0.852614 0.519812
C24   C     C_R   0.676260 0.572477 0.546751 -0.178903
C25   C     C_R   0.531278 0.846475 0.145637 0.540802
C26   C     C_R   0.763942 0.102242 0.417527 0.009500
C27   C     C_R   0.237987 0.103756 0.582621 0.006995
C28   C     C_R   0.263941 0.602240 0.417528 0.009500
C29   C     C_R   0.737984 0.603760 0.582623 0.006942
C30   C     C_R   0.726427 0.194760 0.448756 0.002935
C31   C     C_R   0.280938 0.184870 0.548644 0.011715
C32   C     C_R   0.226426 0.694758 0.448756 0.002935
C33   C     C_R   0.780933 0.684876 0.548647 0.011677
C34   C     C_R   0.739446 0.229680 0.520156 -0.030319
C35   C     C_3   0.651694 0.191062 0.459537 0.107815
C36   C     C_R   0.268733 0.217843 0.477274 -0.023453
C37   C     C_R   0.239444 0.729678 0.520157 -0.030295
C38   C     C_R   0.768728 0.717850 0.477276 -0.023454
C39   C     C_3   0.898228 0.200332 0.334852 -0.100435
C40   C     C_3   0.082569 0.153602 0.671275 -0.105521
C41   C     C_3   0.398227 0.700335 0.334853 -0.100433
C42   C     C_3   0.582568 0.653601 0.671277 -0.105514
C43   C     C_3   0.355403 0.170087 0.537043 0.110761
C44   C     C_3   0.151693 0.691061 0.459537 0.107809
C45   C     C_3   0.855399 0.670095 0.537044 0.110765
C46   C     C_3   0.665166 0.234100 0.535451 -0.231806
C47   C     C_3   0.342572 0.207503 0.459898 -0.235570
C48   C     C_3   0.165164 0.734098 0.535452 -0.231808
C49   C     C_R   0.240519 0.534266 0.353514 0.545875
C50   C     C_3   0.842568 0.707516 0.459901 -0.235523
C51   C     C_R   0.789296 0.168991 0.561546 0.003350
C52   C     C_R   0.213333 0.168575 0.438337 0.007480
C53   C     C_R   0.289294 0.668989 0.561547 0.003360
C54   C     C_R   0.713330 0.668578 0.438338 0.007476
C55   C     C_R   0.998418 0.342241 0.425795 -0.048259
C56   C     C_R   0.005802 0.334056 0.576920 -0.041812
C57   C     C_R   0.498420 0.842242 0.425797 -0.048259
C58   C     C_R   0.505804 0.834055 0.576922 -0.041810
C59   C     C_R   0.975739 0.123172 0.421942 0.298355
C60   C     C_R   0.259680 0.034225 0.646448 0.544995
C61   C     C_R   0.012501 0.108207 0.569629 0.287293
C62   C     C_R   0.475738 0.623174 0.421943 0.298354
C63   C     C_R   0.512499 0.608205 0.569630 0.287293
C64   C     C_R   0.985695 0.012915 0.454977 -0.174237
C65   C     C_R   0.003181 0.005377 0.527180 -0.186173
C66   C     C_R   0.485690 0.512916 0.454978 -0.174237
C67   C     C_R   0.503175 0.505376 0.527181 -0.186172
C68   C     C_R   0.003417 0.224361 0.537157 -0.035571
C69   C     C_R   0.992390 0.230357 0.460959 -0.044923
C70   C     C_R   0.503418 0.724361 0.537158 -0.035570
C71   C     C_R   0.740519 0.034267 0.353514 0.545874
C72   C     C_R   0.492391 0.730358 0.460960 -0.044922
C73   C     C_R   0.015604 0.442716 0.540298 0.048537
C74   C     C_R   0.998592 0.449168 0.467137 0.063630
C75   C     C_R   0.515608 0.942715 0.540300 0.048531
C76   C     C_R   0.498597 0.949170 0.467140 0.063599
C77   C     C_R   0.792857 0.175200 0.640070 0.568475
C78   C     C_R   0.207744 0.174608 0.360120 0.562992
C79   C     C_R   0.292857 0.675199 0.640070 0.568481
C80   C     C_R   0.707743 0.674609 0.360120 0.562991
C81   C     C_R   0.034297 0.549071 0.577310 -0.027489
C82   C     C_R   0.834180 0.091181 0.526323 -0.159321
C83   C     C_R   0.984625 0.564077 0.437424 0.012914
C84   C     C_R   0.534301 0.049069 0.577314 -0.027493
C85   C     C_R   0.484630 0.064080 0.437427 0.012866
C86   C     C_R   0.019602 0.660686 0.548167 -0.063501
C87   C     C_R   0.995969 0.668423 0.477740 -0.052223
C88   C     C_R   0.519606 0.160686 0.548173 -0.063516
C89   C     C_R   0.495974 0.168426 0.477746 -0.052250
C90   C     C_R   0.742104 0.063709 0.071022 -0.053912
C91   C     C_R   0.252725 0.067369 0.926223 -0.041979
C92   C     C_R   0.242104 0.563709 0.071022 -0.053913
C93   C     C_R   0.163686 0.105286 0.476027 -0.161871
C94   C     C_R   0.752725 0.567369 0.926223 -0.041980
C95   C     C_R   0.800602 0.023099 0.037034 0.066951
C96   C     C_R   0.219113 0.983127 0.968794 -0.014286
C97   C     C_R   0.300602 0.523099 0.037034 0.066951
C98   C     C_R   0.719113 0.483127 0.968794 -0.014287
C99   C     C_R   0.806625 0.028624 0.964465 0.048376
C100  C     C_R   0.216921 0.994661 0.041578 -0.053368
C101  C     C_R   0.306625 0.528624 0.964465 0.048375
C102  C     C_R   0.716921 0.494661 0.041578 -0.053367
C103  C     C_R   0.688885 0.095336 0.951815 0.244331
C104  C     C_R   0.334179 0.591179 0.526323 -0.159326
C105  C     C_R   0.295148 0.164070 0.035348 0.253802
C106  C     C_R   0.188885 0.595336 0.951815 0.244330
C107  C     C_R   0.795148 0.664070 0.035348 0.253802
C108  C     C_R   0.683816 0.096407 0.026999 0.250560
C109  C     C_R   0.292520 0.158467 0.960250 0.238879
C110  C     C_R   0.183817 0.596407 0.026999 0.250560
C111  C     C_R   0.792520 0.658467 0.960250 0.238878
C112  C     C_3   0.873691 0.056891 0.051504 -0.262877
C113  C     C_3   0.146595 0.938820 0.963388 -0.231574
C114  C     C_3   0.373691 0.556892 0.051504 -0.262877
C115  C     C_R   0.663684 0.605283 0.476028 -0.161866
C116  C     C_3   0.646595 0.438819 0.963388 -0.231573
C117  C     C_3   0.880614 0.064740 0.971318 -0.241848
C118  C     C_3   0.144244 0.951791 0.043732 -0.251839
C119  C     C_3   0.380614 0.564740 0.971318 -0.241848
C120  C     C_3   0.644244 0.451791 0.043732 -0.251839
C121  C     C_R   0.753693 0.074605 0.920874 -0.052536
C122  C     C_R   0.250387 0.089335 0.076397 -0.046103
C123  C     C_R   0.253693 0.574605 0.920874 -0.052535
C124  C     C_R   0.750387 0.589336 0.076397 -0.046103
C125  C     C_R   0.971422 0.344970 0.647197 0.545673
C126  C     C_R   0.821430 0.058175 0.455894 -0.158623
C127  C     C_R   0.030011 0.347127 0.353891 0.550730
C128  C     C_R   0.471422 0.844970 0.647197 0.545683
C129  C     C_R   0.530012 0.847127 0.353891 0.550741
C130  C     C_R   0.012095 0.339581 0.071030 -0.000381
C131  C     C_R   0.004844 0.343874 0.921912 0.001951
C132  C     C_R   0.512095 0.839581 0.071030 -0.000381
C133  C     C_R   0.504844 0.843874 0.921912 0.001952
C134  C     C_R   0.010848 0.448206 0.034461 0.104082
C135  C     C_R   0.007952 0.451542 0.961625 0.083959
C136  C     C_R   0.510848 0.948206 0.034461 0.104082
Cr1   Cr    Cr6+3 0.885860 0.491680 0.749630 1.037097
Cr2   Cr    Cr6+3 0.112430 0.179310 0.249850 1.039450
Cr3   Cr    Cr6+3 0.387570 0.679310 0.750150 1.044866
Cr4   Cr    Cr6+3 0.612430 0.679310 0.249850 1.039453
Cr5   Cr    Cr6+3 0.114140 0.491680 0.250370 1.028591
Cr6   Cr    Cr6+3 0.385860 0.991680 0.749630 1.037105
Cr7   Cr    Cr6+3 0.614140 0.991680 0.250370 1.028591
Cr8   Cr    Cr6+3 0.730490 0.332970 0.748720 1.008154
Cr9   Cr    Cr6+3 0.269510 0.332970 0.251280 1.018973
Cr10  Cr    Cr6+3 0.230490 0.832970 0.748720 1.008157
Cr11  Cr    Cr6+3 0.769510 0.832970 0.251280 1.018973
Cr12  Cr    Cr6+3 0.887570 0.179310 0.750150 1.044863
H1    H     H_    0.874329 0.043722 0.555219 0.163175
H2    H     H_    0.143512 0.843663 0.944907 0.220680
H3    H     H_    0.403954 0.481513 0.075703 0.186192
H4    H     H_    0.643512 0.343662 0.944907 0.220679
H5    H     H_    0.879063 0.145699 0.079267 0.112418
H6    H     H_    0.111908 0.002658 0.934288 0.133388
H7    H     H_    0.379063 0.645699 0.079267 0.112419
H8    H     H_    0.611908 0.502657 0.934288 0.133388
H9    H     H_    0.888451 0.158804 0.952629 0.149246
H10   H     H_    0.107829 0.022150 0.060785 0.158824
H11   H     H_    0.388452 0.658804 0.952629 0.149246
H12   H     H_    0.118681 0.069625 0.448819 0.155536
H13   H     H_    0.607829 0.522149 0.060785 0.158823
H14   H     H_    0.915820 0.995389 0.949044 0.175881
H15   H     H_    0.139961 0.865310 0.072410 0.148824
H16   H     H_    0.415820 0.495389 0.949044 0.175881
H17   H     H_    0.639962 0.365310 0.072410 0.148823
H18   H     H_    0.016436 0.149154 0.927678 0.125078
H19   H     H_    0.021955 0.145877 0.059143 0.128957
H20   H     H_    0.516437 0.649154 0.927678 0.125078
H21   H     H_    0.521956 0.645877 0.059143 0.128957
H22   H     H_    0.987992 0.631715 0.069035 0.191890
H23   H     H_    0.374327 0.543720 0.555219 0.163175
H24   H     H_    0.907292 0.533889 0.941979 0.167749
H25   H     H_    0.487992 0.131715 0.069035 0.191890
H26   H     H_    0.407291 0.033889 0.941979 0.167749
H27   H     H_    0.913946 0.522692 0.068471 0.096384
H28   H     H_    0.982060 0.641101 0.941512 0.206343
H29   H     H_    0.413946 0.022692 0.068471 0.096384
H30   H     H_    0.482060 0.141101 0.941512 0.206343
H31   H     H_    0.853442 0.989042 0.433662 0.161279
H32   H     H_    0.139812 0.013710 0.571343 0.161532
H33   H     H_    0.353440 0.489040 0.433662 0.161277
H34   H     H_    0.618681 0.569619 0.448819 0.155535
H35   H     H_    0.639810 0.513708 0.571344 0.161537
H36   H     H_    0.622527 0.255465 0.424890 0.146407
H37   H     H_    0.386653 0.234844 0.569600 0.148595
H38   H     H_    0.122525 0.755466 0.424891 0.146406
H39   H     H_    0.886650 0.734851 0.569602 0.148605
H40   H     H_    0.646198 0.326417 0.544704 0.109715
H41   H     H_    0.365797 0.295517 0.446905 0.097870
H42   H     H_    0.146197 0.826416 0.544705 0.109717
H43   H     H_    0.865792 0.795532 0.446910 0.097855
H44   H     H_    0.651769 0.168475 0.577529 0.150771
H45   H     H_    0.029221 0.739650 0.580499 0.078075
H46   H     H_    0.351861 0.135110 0.419868 0.141650
H47   H     H_    0.151767 0.668474 0.577529 0.150765
H48   H     H_    0.851859 0.635124 0.419870 0.141698
H49   H     H_    0.976660 0.933055 0.423380 0.124869
H50   H     H_    0.007646 0.918409 0.551482 0.122883
H51   H     H_    0.476650 0.433056 0.423381 0.124865
H52   H     H_    0.507633 0.418406 0.551484 0.122881
H53   H     H_    0.963383 0.574447 0.383878 0.105213
H54   H     H_    0.056911 0.546032 0.630759 0.105187
H55   H     H_    0.463390 0.074454 0.383882 0.105223
H56   H     H_    0.986507 0.754317 0.454021 0.058679
H57   H     H_    0.556916 0.046027 0.630763 0.105187
H58   H     H_    0.637346 0.090254 0.861956 0.323384
H59   H     H_    0.361169 0.211875 0.107968 0.315963
H60   H     H_    0.137346 0.590254 0.861956 0.323385
H61   H     H_    0.861169 0.711876 0.107968 0.315963
H62   H     H_    0.629466 0.174689 0.099274 0.319727
H63   H     H_    0.309950 0.248884 0.873527 0.322522
H64   H     H_    0.129466 0.674690 0.099274 0.319727
H65   H     H_    0.809950 0.748884 0.873527 0.322523
H66   H     H_    0.153609 0.519347 0.489504 0.320955
H67   H     H_    0.529227 0.239649 0.580506 0.078082
H68   H     H_    0.847794 0.496257 0.512790 0.318053
H69   H     H_    0.653612 0.019348 0.489505 0.320957
H70   H     H_    0.347834 0.996266 0.512741 0.318032
H71   H     H_    0.875829 0.245820 0.382236 0.097260
H72   H     H_    0.856884 0.150377 0.306044 0.149246
H73   H     H_    0.915499 0.269960 0.296715 0.120480
H74   H     H_    0.109173 0.213305 0.633045 0.089504
H75   H     H_    0.120088 0.089552 0.694787 0.159774
H76   H     H_    0.065539 0.209097 0.717152 0.136106
H77   H     H_    0.375827 0.745820 0.382237 0.097248
H78   H     H_    0.486513 0.254322 0.454029 0.058688
H79   H     H_    0.356885 0.650382 0.306043 0.149242
H80   H     H_    0.415496 0.769966 0.296720 0.120475
H81   H     H_    0.609171 0.713304 0.633046 0.089510
H82   H     H_    0.620088 0.589550 0.694788 0.159776
H83   H     H_    0.565540 0.709095 0.717156 0.136098
H84   H     H_    0.903954 0.981513 0.075703 0.186193
O1    O     O_R   0.957020 0.451640 0.669920 -0.493811
O2    O     O_R   0.168040 0.093290 0.169870 -0.520402
O3    O     O_R   0.331960 0.593290 0.830130 -0.508362
O4    O     O_R   0.668040 0.593290 0.169870 -0.520402
O5    O     O_R   0.945600 0.250580 0.824860 -0.513553
O6    O     O_R   0.054400 0.250580 0.175140 -0.505262
O7    O     O_R   0.445600 0.750580 0.824860 -0.513553
O8    O     O_R   0.554400 0.750580 0.175140 -0.505261
O9    O     O_3   0.834640 0.334650 0.749500 -0.284457
O10   O     O_3   0.165360 0.334650 0.250500 -0.284523
O11   O     O_3   0.334640 0.834650 0.749500 -0.284457
O12   O     O_R   0.042980 0.451640 0.330080 -0.513772
O13   O     O_3   0.665360 0.834650 0.250500 -0.284524
O14   O     O_R   0.821450 0.543440 0.674610 -0.450219
O15   O     O_R   0.178550 0.543440 0.325390 -0.453366
O16   O     O_R   0.321450 0.043440 0.674610 -0.450198
O17   O     O_R   0.678550 0.043440 0.325390 -0.453365
O18   O     O_R   0.715320 0.458650 0.668100 -0.554023
O19   O     O_R   0.284680 0.458650 0.331900 -0.542796
O20   O     O_R   0.215320 0.958650 0.668100 -0.554032
O21   O     O_R   0.784680 0.958650 0.331900 -0.542796
O22   O     O_R   0.737170 0.209590 0.674530 -0.512818
O23   O     O_R   0.457020 0.951640 0.669920 -0.493802
O24   O     O_R   0.262830 0.209590 0.325470 -0.512360
O25   O     O_R   0.237170 0.709590 0.674530 -0.512818
O26   O     O_R   0.762830 0.709590 0.325470 -0.512365
O27   O     O_R   0.832710 0.092740 0.669580 -0.512622
O28   O     O_R   0.167290 0.092740 0.330420 -0.522042
O29   O     O_R   0.332710 0.592740 0.669580 -0.512625
O30   O     O_R   0.667290 0.592740 0.330420 -0.522041
O31   O     O_R   0.946290 0.250060 0.676040 -0.466533
O32   O     O_R   0.053710 0.250060 0.323960 -0.462511
O33   O     O_R   0.446290 0.750060 0.676040 -0.466533
O34   O     O_R   0.542980 0.951640 0.330080 -0.513772
O35   O     O_R   0.553710 0.750060 0.323960 -0.462505
O36   O     O_R   0.956270 0.452200 0.830470 -0.522320
O37   O     O_R   0.043730 0.452200 0.169530 -0.507725
O38   O     O_R   0.456270 0.952200 0.830470 -0.522322
O39   O     O_R   0.543730 0.952200 0.169530 -0.507725
O40   O     O_R   0.820760 0.543950 0.823440 -0.507203
O41   O     O_R   0.179240 0.543950 0.176560 -0.510534
O42   O     O_R   0.320760 0.043950 0.823440 -0.507208
O43   O     O_R   0.679240 0.043950 0.176560 -0.510535
O44   O     O_R   0.714570 0.459210 0.828640 -0.514075
O45   O     O_R   0.736470 0.210100 0.823360 -0.489711
O46   O     O_R   0.285430 0.459210 0.171360 -0.487513
O47   O     O_R   0.214570 0.959210 0.828640 -0.514076
O48   O     O_R   0.785430 0.959210 0.171360 -0.487514
O49   O     O_3   0.630686 0.121239 0.911147 -0.681379
O50   O     O_3   0.338126 0.249665 0.065915 -0.644628
O51   O     O_3   0.130686 0.621239 0.911147 -0.681379
O52   O     O_3   0.838126 0.749665 0.065915 -0.644629
O53   O     O_3   0.621287 0.129538 0.054303 -0.673890
O54   O     O_3   0.329460 0.243072 0.922734 -0.666517
O55   O     O_3   0.121288 0.629538 0.054303 -0.673891
O56   O     O_R   0.263530 0.210100 0.176640 -0.488675
O57   O     O_3   0.829460 0.743072 0.922733 -0.666517
O58   O     O_3   0.127501 0.571189 0.455035 -0.679417
O59   O     O_3   0.876735 0.548785 0.544468 -0.674760
O60   O     O_3   0.627504 0.071189 0.455035 -0.679410
O61   O     O_3   0.376731 0.048773 0.544476 -0.674728
O62   O     O_3   0.952746 0.118762 0.350661 -0.546822
O63   O     O_3   0.026310 0.086793 0.642148 -0.549500
O64   O     O_3   0.452748 0.618769 0.350660 -0.546815
O65   O     O_3   0.526309 0.586790 0.642150 -0.549497
O66   O     O_R   0.236470 0.710100 0.823360 -0.489712
O67   O     O_R   0.763530 0.710100 0.176640 -0.488675
O68   O     O_R   0.831960 0.093290 0.830130 -0.508362

loop_
_geom_bond_atom_site_label_1
_geom_bond_atom_site_label_2
_ccdc_geom_bond_type
C33   C45   S    
C74   C83   A    
C8    H27   S    
C90   C95   A    
H61   O52   S    
C57   C76   A    
C86   H45   S    
C95   C99   A    
C18   O56   A    
C29   C33   A    
C94   C111  A    
Cr4   O8    S    
C128  O23   A    
C36   C47   S    
C26   C126  A    
C91   C96   A    
C55   C74   A    
C20   O4    A    
C62   O64   S    
C128  O33   A    
C81   C86   A    
C99   C121  A    
Cr1   O9    S    
C42   H83   S    
C14   O46   A    
C17   O68   A    
C22   C130  S    
C26   C71   S    
C130  C134  A    
C107  C124  A    
C16   O43   A    
C73   C81   A    
Cr2   O28   S    
C27   C31   A    
C28   C32   A    
C67   H52   S    
C30   C34   A    
C58   C70   A    
C98   C102  A    
C117  H9    S    
C75   C76   A    
Cr6   O38   S    
H65   O57   S    
C39   O62   S    
C1    C29   S    
Cr4   O35   S    
C50   H43   S    
C7    C132  A    
C81   H54   S    
C18   C122  S    
C104  H23   S    
C5    C130  A    
Cr12  O68   S    
C43   O61   S    
Cr3   O3    S    
C118  H10   S    
C103  C121  A    
C87   H56   S    
C56   C73   A    
Cr7   O17   S    
C84   C88   A    
C4    C5    A    
C55   C127  S    
C18   O2    A    
C6    C7    A    
C42   O65   S    
Cr5   O10   S    
C111  O57   S    
Cr8   O44   S    
Cr11  O26   S    
H70   O61   S    
C45   C50   S    
C116  H8    S    
C3    C11   S    
C15   C91   S    
C42   H81   S    
C61   C65   A    
C88   C89   A    
C119  H11   S    
C31   C36   A    
C43   C47   S    
C76   C85   A    
C71   O17   A    
C129  O34   A    
C44   C48   S    
C21   O5    A    
C23   O38   A    
C58   C128  S    
C107  O52   S    
Cr5   O41   S    
C89   H78   S    
C19   C123  S    
C34   C51   A    
C31   C43   S    
C9    H28   S    
Cr7   O39   S    
C39   H71   S    
C75   C84   A    
C43   H37   S    
C53   C104  A    
C127  O32   A    
C3    C136  A    
Cr9   O56   S    
C82   C126  A    
Cr9   O24   S    
Cr8   O45   S    
C34   C46   S    
Cr3   O11   S    
H69   O60   S    
C114  C119  S    
C36   C52   A    
C37   C53   A    
C66   C67   A    
Cr3   O33   S    
C41   H80   S    
Cr4   O30   S    
C2    H32   S    
H64   O55   S    
C92   C97   A    
Cr10  O66   S    
C6    H20   S    
Cr5   O12   S    
C62   C66   A    
C40   H75   S    
C8    C134  S    
C79   O25   A    
C80   O30   A    
C45   H39   S    
C56   C68   A    
Cr8   O22   S    
Cr11  O21   S    
C116  C120  S    
C99   C117  S    
C28   C49   S    
C132  C136  A    
C45   O59   S    
C52   C93   A    
C55   C69   A    
C32   C37   A    
C16   O48   A    
C25   O39   A    
C109  O54   S    
C9    C135  S    
C22   O37   A    
Cr2   O32   S    
C26   C30   A    
C13   H33   S    
Cr3   O29   S    
C48   H47   S    
C115  H34   S    
H60   O51   S    
C105  C109  A    
C11   H26   S    
C10   H29   S    
C107  C111  A    
C113  H2    S    
Cr9   O19   S    
Cr11  O67   S    
C119  H16   S    
C134  C135  A    
H66   O58   S    
C117  H14   S    
C15   O47   A    
C90   C108  A    
C92   C110  A    
C59   O62   S    
C96   C100  A    
Cr5   O15   S    
C105  C122  A    
C20   C124  S    
C82   H1    S    
C10   C11   S    
C65   H50   S    
C77   O27   A    
C78   O28   A    
C33   C38   A    
C97   C114  S    
C25   C132  S    
C17   O45   A    
C83   C87   A    
C16   C90   S    
C88   H67   S    
C73   C74   A    
C113  H6    S    
Cr11  O48   S    
C6    C133  A    
C95   C112  S    
C112  C117  S    
Cr1   O36   S    
C102  C124  A    
C94   C98   A    
C20   O67   A    
C24   C29   A    
C71   O21   A    
C21   O36   A    
C50   H48   S    
C110  O55   S    
C68   C69   A    
C13   C28   A    
C2    C27   A    
Cr5   O37   S    
C48   H42   S    
C10   H25   S    
C27   C60   S    
C64   H49   S    
C24   H35   S    
Cr7   O43   S    
C12   C94   S    
H63   O54   S    
C114  H3    S    
C52   C78   S    
C8    H22   S    
C120  H17   S    
C54   C80   S    
C41   H77   S    
C118  H15   S    
C63   O65   S    
C127  O12   A    
Cr12  O5    S    
C85   C89   A    
C86   C87   A    
C35   H36   S    
C40   H74   S    
C93   H12   S    
C51   C77   S    
C23   O7    A    
C38   C54   A    
C54   C115  A    
C125  O31   A    
C105  O50   S    
C126  H31   S    
C56   C125  S    
C13   C104  A    
C49   O15   A    
C42   H82   S    
C17   C121  S    
C7    H21   S    
C79   O29   A    
C96   C113  S    
Cr2   O2    S    
C100  C118  S    
Cr12  O27   S    
C114  H7    S    
C102  C120  S    
Cr8   O18   S    
C12   O40   A    
C46   H44   S    
C19   O3    A    
C112  H84   S    
C19   O66   A    
Cr7   O34   S    
C78   O24   A    
C64   C65   A    
C57   C72   A    
C85   H55   S    
C49   O19   A    
Cr10  O20   S    
Cr4   O4    S    
H62   O53   S    
C39   H73   S    
C9    H24   S    
C35   C46   S    
C44   H38   S    
C22   O6    A    
C41   H79   S    
C47   H46   S    
Cr9   O46   S    
C61   C68   A    
C83   H53   S    
C12   O44   A    
C59   C64   A    
C101  C123  A    
C44   O58   S    
C30   C35   S    
C40   H76   S    
C57   C129  S    
C53   C79   S    
C10   C136  S    
C131  C135  A    
C1    O14   A    
Cr6   O11   S    
C106  O51   S    
C108  O53   S    
C84   H57   S    
C8    C9    S    
C61   O63   S    
C106  C123  A    
Cr9   O10   S    
H58   O49   S    
C103  C108  A    
Cr6   O42   S    
C66   H51   S    
C129  O35   A    
Cr8   O9    S    
Cr1   O40   S    
C58   C75   A    
C4    C131  A    
C63   C67   A    
C23   C133  S    
Cr3   O7    S    
Cr4   O13   S    
C101  C119  S    
C39   H72   S    
C1    O18   A    
C25   O8    A    
Cr6   O23   S    
Cr7   O13   S    
C3    C133  A    
C47   H41   S    
Cr10  O11   S    
C15   O42   A    
C98   C116  S    
C35   O60   S    
C63   C70   A    
C32   C44   S    
C62   C72   A    
C11   H30   S    
C37   C48   S    
C51   C82   A    
C14   C92   S    
C120  H13   S    
C59   C69   A    
C60   O16   A    
Cr6   O16   S    
C112  H5    S    
Cr12  O9    S    
Cr1   O1    S    
Cr10  O47   S    
C116  H4    S    
C106  C110  A    
C2    C93   A    
C77   O22   A    
C40   O63   S    
Cr2   O10   S    
C38   C50   S    
H68   O59   S    
C91   C109  A    
H59   O50   S    
Cr1   O14   S    
C14   O41   A    
C21   C131  S    
C4    H18   S    
Cr2   O6    S    
C100  C122  A    
C5    H19   S    
Cr12  O31   S    
C125  O1    A    
C113  C118  S    
C41   O64   S    
C80   O26   A    
Cr11  O13   S    
C24   C115  A    
C60   O20   A    
Cr10  O25   S    
C70   C72   A    
C46   H40   S    
C103  O49   S    
C97   C101  A    
