data_str_m2_o10_o17_f0_pcu.sym.46
_audit_creation_date              2012-10-26T19:40:07-0400
_audit_creation_method            fapswitch 2.2
_symmetry_space_group_name_H-M    P1
_symmetry_Int_Tables_number       1
_space_group_crystal_system       triclinic
_cell_length_a                    15.056008
_cell_length_b                    8.740145
_cell_length_c                    7.430914
_cell_angle_alpha                 103.104386
_cell_angle_beta                  94.016243
_cell_angle_gamma                 92.069054
_cell_volume                      948.682388942

loop_
_atom_site_label
_atom_site_type_symbol
_atom_type_description
_atom_site_fract_x
_atom_site_fract_y
_atom_site_fract_z
_atom_type_partial_charge
C1    C     C_R   0.495613 0.199675 0.453494 0.553742
C2    C     C_R   0.187885 0.398234 0.576865 -0.158330
C3    C     C_R   0.768168 0.495251 0.491655 -0.011617
C4    C     C_R   0.233377 0.513316 0.510235 -0.017648
C5    C     C_R   0.813552 0.363613 0.518724 -0.027093
C6    C     C_R   0.186882 0.630163 0.444818 -0.038468
C7    C     C_R   0.907625 0.372954 0.542408 0.010994
C8    C     C_R   0.093983 0.635114 0.458150 0.008978
C9    C     C_R   0.954540 0.506105 0.510222 0.050414
C10   C     C_R   0.048120 0.511997 0.514983 0.050107
C11   C     C_R   0.907641 0.629644 0.463096 0.014410
C12   C     C_R   0.498332 0.799974 0.547137 0.541951
C13   C     C_R   0.095244 0.391272 0.569226 0.012648
C14   C     C_R   0.956077 0.251216 0.590560 -0.134255
C15   C     C_R   0.045089 0.756539 0.409719 -0.137442
C16   C     C_R   0.764756 0.209531 0.467528 0.030833
C17   C     C_R   0.740727 0.144380 0.278759 -0.076301
C18   C     C_R   0.696886 0.996598 0.223271 -0.121834
C19   C     C_R   0.677359 0.913618 0.356000 -0.127785
C20   C     C_R   0.700837 0.978224 0.544717 -0.126519
C21   C     C_R   0.743771 0.127113 0.601049 -0.094268
C22   C     C_R   0.232819 0.738278 0.349183 0.038716
C23   C     C_R   0.048955 0.262718 0.609099 -0.135443
C24   C     C_R   0.244950 0.687811 0.159439 -0.050594
C25   C     C_R   0.277745 0.793754 0.061504 -0.102782
C26   C     C_R   0.296784 0.951259 0.151361 -0.109382
C27   C     C_R   0.284352 0.002338 0.339822 -0.115334
C28   C     C_R   0.253760 0.895975 0.439612 -0.115960
C29   C     C_R   0.953172 0.755438 0.416529 -0.137109
C30   C     C_2   0.490771 0.031997 0.427878 -0.134038
C31   C     C_2   0.494425 0.967540 0.573941 -0.152567
C32   C     C_R   0.329261 0.504958 0.503353 0.542057
C33   C     C_R   0.671249 0.498935 0.496962 0.550000
C34   C     C_R   0.815462 0.624880 0.460651 -0.161008
Cu1   Cu    Cu3+1 0.510010 0.517380 0.684380 0.941642
Cu2   Cu    Cu3+1 0.489990 0.482620 0.315620 0.944095
H1    H     H_    0.430026 0.379363 0.948172 0.232951
H2    H     H_    0.227374 0.567222 0.086877 0.116842
H3    H     H_    0.286894 0.754411 0.915336 0.126334
H4    H     H_    0.321304 0.033760 0.075180 0.113468
H5    H     H_    0.299278 0.124286 0.408657 0.111191
H6    H     H_    0.243282 0.937319 0.584979 0.093274
H7    H     H_    0.922852 0.147807 0.617233 0.118511
H8    H     H_    0.076960 0.853618 0.366588 0.129102
H9    H     H_    0.084633 0.168274 0.648536 0.108490
H10   H     H_    0.917336 0.850903 0.379916 0.120544
H11   H     H_    0.486560 0.960736 0.286822 0.138922
H12   H     H_    0.569973 0.620529 0.051562 0.230029
H13   H     H_    0.498721 0.038675 0.715059 0.124507
H14   H     H_    0.780604 0.720147 0.428683 0.114414
H15   H     H_    0.224590 0.308625 0.624819 0.095550
H16   H     H_    0.756759 0.207862 0.174747 0.111436
H17   H     H_    0.678779 0.945887 0.077792 0.110175
H18   H     H_    0.645313 0.797570 0.312107 0.132706
H19   H     H_    0.686187 0.912183 0.646906 0.115905
H20   H     H_    0.761913 0.176702 0.746837 0.107791
N1    N     N_2   0.474890 0.456420 0.038520 -0.257404
N2    N     N_2   0.525110 0.543580 0.961480 -0.255715
O1    O     O_R   0.506510 0.286130 0.619770 -0.504017
O2    O     O_R   0.493490 0.713870 0.380230 -0.508046
O3    O     O_R   0.489600 0.256770 0.308360 -0.501903
O4    O     O_R   0.510400 0.743230 0.691640 -0.509011
O5    O     O_R   0.378710 0.514640 0.655720 -0.516632
O6    O     O_R   0.621290 0.485360 0.344280 -0.509786
O7    O     O_R   0.361800 0.485290 0.344300 -0.500755
O8    O     O_R   0.638200 0.514710 0.655700 -0.493683

loop_
_geom_bond_atom_site_label_1
_geom_bond_atom_site_label_2
_ccdc_geom_bond_type
C14   C23   A    
C15   H8    S    
C21   H20   S    
C2    C4    A    
C24   C25   A    
H12   N2    S    
C16   C21   A    
C23   H9    S    
Cu1   O4    S    
C12   O4    A    
C9    C10   A    
C27   H5    S    
C24   H2    S    
C19   C20   A    
C3    C34   A    
C29   H10   S    
C3    C5    A    
Cu1   O5    S    
C17   C18   A    
N1    N2    D    
C22   C28   A    
C25   H3    S    
C11   C29   A    
C9    C11   A    
C26   H4    S    
C26   C27   A    
C4    C32   S    
C31   H13   S    
Cu1   N2    S    
C17   H16   S    
Cu1   O1    S    
C1    C30   S    
C13   C23   A    
C33   O8    A    
C15   C29   A    
C8    C15   A    
C5    C7    A    
C1    O1    A    
C12   C31   S    
C30   C31   D    
C8    C10   A    
C22   C24   A    
C34   H14   S    
C20   H19   S    
C2    H15   S    
C3    C33   S    
Cu2   O3    S    
C12   O2    A    
C16   C17   A    
C33   O6    A    
C30   H11   S    
C20   C21   A    
C19   H18   S    
C4    C6    A    
C18   C19   A    
C28   H6    S    
C27   C28   A    
C7    C9    A    
C2    C13   A    
Cu2   O7    S    
C14   H7    S    
Cu2   N1    S    
C6    C8    A    
Cu1   O8    S    
Cu2   O2    S    
C25   C26   A    
Cu2   O6    S    
H1    N1    S    
C10   C13   A    
C11   C34   A    
C7    C14   A    
C18   H17   S    
C32   O5    A    
C1    O3    A    
C32   O7    A    
C5    C16   S    
Cu1   Cu2   S    
C6    C22   S    
