data_str_m4_o15_o24_f0_acs.sym.10
_audit_creation_date              2012-12-11T14:28:13-0500
_audit_creation_method            fapswitch 2.2
_symmetry_space_group_name_H-M    P1
_symmetry_Int_Tables_number       1
_space_group_crystal_system       triclinic
_cell_length_a                    10.973766
_cell_length_b                    19.106374
_cell_length_c                    18.478077
_cell_angle_alpha                 89.993892
_cell_angle_beta                  91.275201
_cell_angle_gamma                 89.806784
_cell_volume                      3873.29605121

loop_
_atom_site_label
_atom_site_type_symbol
_atom_type_description
_atom_site_fract_x
_atom_site_fract_y
_atom_site_fract_z
_atom_type_partial_charge
C1    C     C_R   0.319036 0.970179 0.646822 0.523302
C2    C     C_3   0.151415 0.714266 0.032627 -0.096017
C3    C     C_3   0.950375 0.224237 0.989074 -0.127842
C4    C     C_3   0.636190 0.302865 0.470381 -0.086291
C5    C     C_3   0.520260 0.301212 0.023559 -0.075996
C6    C     C_3   0.519258 0.695425 0.520536 -0.112124
C7    C     C_3   0.450381 0.724232 0.989074 -0.127835
C8    C     C_3   0.197313 0.747577 0.519890 -0.100507
C9    C     C_3   0.147766 0.785584 0.993522 -0.121136
C10   C     C_3   0.149018 0.193357 0.489795 -0.183355
C11   C     C_3   0.073300 0.193023 0.016764 -0.193889
C12   C     C_3   0.697316 0.247568 0.519889 -0.100510
C13   C     C_3   0.189178 0.254774 0.539451 -0.147706
C14   C     C_3   0.647760 0.285589 0.993523 -0.121144
C15   C     C_3   0.649001 0.693353 0.489793 -0.183364
C16   C     C_3   0.573310 0.693024 0.016762 -0.193888
C17   C     C_3   0.088880 0.750956 0.570955 0.045641
C18   C     C_3   0.087128 0.749168 0.928222 0.058689
C19   C     C_3   0.107751 0.247317 0.432419 0.074012
C20   C     C_3   0.083394 0.252515 0.072032 0.058817
C21   C     C_3   0.588883 0.250957 0.570954 0.045640
C22   C     C_3   0.587129 0.249168 0.928222 0.058692
C23   C     C_3   0.607750 0.747318 0.432418 0.074009
C24   C     C_3   0.143580 0.238184 0.962763 -0.088393
C25   C     C_3   0.583396 0.752515 0.072031 0.058820
C26   C     C_3   0.028509 0.805682 0.522304 0.380045
C27   C     C_3   0.961660 0.765217 0.956867 0.360277
C28   C     C_3   0.981184 0.249208 0.461970 0.354495
C29   C     C_3   0.962704 0.283069 0.045732 0.350865
C30   C     C_3   0.528529 0.305689 0.522302 0.380046
C31   C     C_3   0.461658 0.265211 0.956866 0.360275
C32   C     C_3   0.481183 0.749219 0.461969 0.354494
C33   C     C_3   0.462701 0.783063 0.045733 0.350865
C34   C     C_3   0.963791 0.746201 0.481199 -0.128317
C35   C     C_3   0.634443 0.187292 0.479190 -0.079174
C36   C     C_3   0.962205 0.693638 0.995840 -0.144620
C37   C     C_3   0.019178 0.310641 0.511121 -0.103909
C38   C     C_3   0.031799 0.328972 0.992521 -0.106649
C39   C     C_3   0.463793 0.246215 0.481198 -0.128319
C40   C     C_3   0.462211 0.193633 0.995840 -0.144614
C41   C     C_3   0.519192 0.810647 0.511122 -0.103906
C42   C     C_3   0.531788 0.828971 0.992523 -0.106653
C43   C     C_3   0.025968 0.690978 0.530801 -0.194858
C44   C     C_3   0.090702 0.678405 0.966707 -0.177808
C45   C     C_3   0.148608 0.308466 0.481028 -0.130269
C46   C     C_3   0.651417 0.214271 0.032629 -0.096024
C47   C     C_3   0.154490 0.297673 0.018625 -0.101527
C48   C     C_3   0.525953 0.190985 0.530800 -0.194861
C49   C     C_3   0.590713 0.178405 0.966710 -0.177804
C50   C     C_3   0.648621 0.808462 0.481030 -0.130255
C51   C     C_3   0.654483 0.797678 0.018626 -0.101527
C52   C     C_3   0.689177 0.754764 0.539451 -0.147698
C53   C     C_3   0.643583 0.738190 0.962762 -0.088398
C54   C     C_3   0.072979 0.742678 0.430664 0.028179
C55   C     C_3   0.024217 0.729318 0.061546 0.009083
C56   C     C_3   0.061256 0.256794 0.568733 0.000799
C57   C     C_R   0.321838 0.971670 0.851924 0.517304
C58   C     C_3   0.022728 0.270342 0.937062 0.002205
C59   C     C_3   0.572980 0.242681 0.430663 0.028176
C60   C     C_3   0.524215 0.229318 0.061546 0.009080
C61   C     C_3   0.561255 0.756795 0.568733 0.000798
C62   C     C_3   0.522726 0.770343 0.937063 0.002200
C63   C     C_R   0.332445 0.993371 0.423682 -0.034277
C64   C     C_R   0.323882 0.002291 0.071310 0.001498
C65   C     C_R   0.324043 0.004060 0.575238 -0.050985
C66   C     C_R   0.334278 0.012489 0.919764 -0.039675
C67   C     C_R   0.832449 0.493367 0.423680 -0.034289
C68   C     C_R   0.321800 0.029420 0.353008 0.535536
C69   C     C_R   0.823882 0.502290 0.071310 0.001508
C70   C     C_R   0.824046 0.504057 0.575236 -0.050988
C71   C     C_R   0.834279 0.512488 0.919765 -0.039674
C72   C     C_R   0.557388 0.994309 0.433100 -0.083136
C73   C     C_R   0.545184 0.981211 0.077001 -0.061331
C74   C     C_R   0.544364 0.021450 0.580924 -0.078832
C75   C     C_R   0.559149 0.006326 0.928827 -0.103506
C76   C     C_R   0.057391 0.494308 0.433097 -0.083134
C77   C     C_R   0.045184 0.481211 0.077001 -0.061326
C78   C     C_R   0.044369 0.521441 0.580923 -0.078835
C79   C     C_R   0.319062 0.031300 0.145405 0.533666
C80   C     C_R   0.059149 0.506325 0.928828 -0.103514
C81   C     C_R   0.662795 0.006787 0.474285 -0.135457
C82   C     C_R   0.656809 0.977429 0.043355 -0.134866
C83   C     C_R   0.655663 0.022001 0.547747 -0.106152
C84   C     C_R   0.664347 0.990994 0.969577 -0.134105
C85   C     C_R   0.162798 0.506785 0.474282 -0.135455
C86   C     C_R   0.156810 0.477430 0.043356 -0.134868
C87   C     C_R   0.155668 0.521992 0.547746 -0.106151
C88   C     C_R   0.164348 0.490995 0.969578 -0.134112
C89   C     C_R   0.436837 0.007260 0.540881 -0.011586
C90   C     C_R   0.819037 0.470178 0.646822 0.523302
C91   C     C_R   0.443841 0.007513 0.961367 -0.019710
C92   C     C_R   0.442199 0.998189 0.465033 0.003220
C93   C     C_R   0.437794 0.998570 0.037329 0.007237
C94   C     C_R   0.936841 0.507254 0.540879 -0.011583
C95   C     C_R   0.943842 0.507512 0.961368 -0.019709
C96   C     C_R   0.942202 0.498186 0.465031 0.003222
C97   C     C_R   0.937794 0.498569 0.037329 0.007246
C98   C     C_R   0.216126 0.004269 0.532511 0.011522
C99   C     C_R   0.224535 0.025605 0.955057 -0.002963
C100  C     C_R   0.221925 0.984664 0.459826 -0.003779
C101  C     C_R   0.821838 0.471670 0.851925 0.517305
C102  C     C_R   0.215915 0.005799 0.027701 0.008840
C103  C     C_R   0.716130 0.504265 0.532508 0.011528
C104  C     C_R   0.724536 0.525604 0.955057 -0.002965
C105  C     C_R   0.721930 0.484658 0.459824 -0.003789
C106  C     C_R   0.715915 0.505798 0.027701 0.008838
C107  C     C_R   0.101532 0.021126 0.560730 -0.053444
C108  C     C_R   0.118946 0.048693 0.916702 -0.073574
C109  C     C_R   0.113689 0.964373 0.422844 -0.074708
C110  C     C_R   0.098748 0.992167 0.054532 -0.081117
C111  C     C_R   0.601537 0.521129 0.560725 -0.053418
C112  C     C_R   0.821800 0.529419 0.353007 0.535535
C113  C     C_R   0.618946 0.548693 0.916702 -0.073575
C114  C     C_R   0.613694 0.464368 0.422842 -0.074691
C115  C     C_R   0.598748 0.492167 0.054532 -0.081114
C116  C     C_R   0.995603 0.007526 0.520667 -0.040920
C117  C     C_R   0.004404 0.040655 0.946248 -0.108378
C118  C     C_R   0.001441 0.975995 0.453052 -0.042041
C119  C     C_R   0.994547 0.010317 0.014290 -0.133611
C120  C     C_R   0.495609 0.507541 0.520656 -0.040909
C121  C     C_R   0.504405 0.540657 0.946249 -0.108381
C122  C     C_R   0.501446 0.476004 0.453044 -0.042014
C123  C     C_R   0.819062 0.531300 0.145405 0.533665
C124  C     C_R   0.494547 0.510319 0.014291 -0.133612
C125  C     C_R   0.128729 0.756924 0.645430 0.549489
C126  C     C_R   0.133685 0.757892 0.856059 0.563193
C127  C     C_R   0.139113 0.241122 0.357666 0.599685
C128  C     C_R   0.130611 0.242976 0.144784 0.585041
C129  C     C_R   0.628731 0.256924 0.645430 0.549491
C130  C     C_R   0.633686 0.257892 0.856060 0.563199
C131  C     C_R   0.639112 0.741122 0.357666 0.599687
C132  C     C_R   0.630612 0.742975 0.144783 0.585044
C133  C     C_R   0.537623 0.770743 0.643501 0.560844
C134  C     C_3   0.134459 0.687295 0.479190 -0.079170
C135  C     C_R   0.496352 0.787515 0.862181 0.564755
C136  C     C_R   0.544609 0.230671 0.354948 0.591357
C137  C     C_R   0.496826 0.213129 0.136645 0.571905
C138  C     C_R   0.037624 0.270742 0.643502 0.560844
C139  C     C_R   0.996353 0.287515 0.862181 0.564756
C140  C     C_R   0.044608 0.730670 0.354949 0.591360
C141  C     C_R   0.996826 0.713130 0.136645 0.571906
C142  C     C_3   0.136170 0.802868 0.470382 -0.086289
C143  C     C_3   0.020271 0.801213 0.023561 -0.075987
C144  C     C_3   0.019275 0.195419 0.520539 -0.112119
Cr1   Cr    Cr6+3 0.488160 0.884660 0.750000 1.025337
Cr2   Cr    Cr6+3 0.333410 0.272740 0.250000 1.009971
Cr3   Cr    Cr6+3 0.833410 0.227260 0.750000 0.992623
Cr4   Cr    Cr6+3 0.833410 0.772740 0.250000 1.009974
Cr5   Cr    Cr6+3 0.488160 0.115340 0.250000 1.019163
Cr6   Cr    Cr6+3 0.988160 0.384660 0.750000 1.025333
Cr7   Cr    Cr6+3 0.988160 0.615340 0.250000 1.019161
Cr8   Cr    Cr6+3 0.173480 0.883120 0.750000 1.077017
Cr9   Cr    Cr6+3 0.173480 0.116880 0.250000 1.036393
Cr10  Cr    Cr6+3 0.673480 0.383120 0.750000 1.077023
Cr11  Cr    Cr6+3 0.673480 0.616880 0.250000 1.036388
Cr12  Cr    Cr6+3 0.333410 0.727260 0.750000 0.992623
F1    F     F_    0.967655 0.862839 0.549352 -0.640299
F2    F     F_    0.872473 0.795336 0.913055 -0.647966
F3    F     F_    0.880678 0.246308 0.415731 -0.657859
F4    F     F_    0.874581 0.306751 0.092164 -0.652046
F5    F     F_    0.467694 0.362853 0.549352 -0.640284
F6    F     F_    0.372469 0.295324 0.913050 -0.647965
F7    F     F_    0.380676 0.746330 0.415729 -0.657860
F8    F     F_    0.374576 0.806739 0.092166 -0.652041
H1    H     H_    0.291685 0.748559 0.541579 0.157807
H2    H     H_    0.923841 0.057369 0.916093 0.111856
H3    H     H_    0.920419 0.960300 0.423354 0.109474
H4    H     H_    0.906749 0.003303 0.037365 0.104313
H5    H     H_    0.409749 0.518806 0.543742 0.105342
H6    H     H_    0.423842 0.557372 0.916094 0.111856
H7    H     H_    0.420423 0.460317 0.423341 0.109453
H8    H     H_    0.406748 0.503306 0.037366 0.104313
H9    H     H_    0.192830 0.842452 0.444017 0.144354
H10   H     H_    0.989056 0.850924 0.048140 0.124018
H11   H     H_    0.963314 0.150998 0.539049 0.111429
H12   H     H_    0.222387 0.824273 0.988983 0.167419
H13   H     H_    0.870237 0.192971 0.971622 0.120850
H14   H     H_    0.692859 0.342446 0.444018 0.144350
H15   H     H_    0.489037 0.350922 0.048135 0.124014
H16   H     H_    0.463285 0.651008 0.539045 0.111426
H17   H     H_    0.370246 0.692963 0.971622 0.120851
H18   H     H_    0.871093 0.745840 0.457339 0.133410
H19   H     H_    0.884976 0.656476 0.998679 0.102330
H20   H     H_    0.963125 0.357711 0.522020 0.131388
H21   H     H_    0.005617 0.381271 0.975193 0.146628
H22   H     H_    0.371094 0.245867 0.457337 0.133424
H23   H     H_    0.203946 0.145959 0.478241 0.129902
H24   H     H_    0.384987 0.156468 0.998679 0.102335
H25   H     H_    0.463151 0.857722 0.522022 0.131398
H26   H     H_    0.505595 0.881269 0.975197 0.146621
H27   H     H_    0.973802 0.649482 0.557628 0.122556
H28   H     H_    0.127116 0.631356 0.940461 0.142937
H29   H     H_    0.202255 0.354372 0.463555 0.163906
H30   H     H_    0.238078 0.328172 0.031553 0.165713
H31   H     H_    0.473774 0.149493 0.557625 0.122553
H32   H     H_    0.627135 0.131357 0.940468 0.142936
H33   H     H_    0.702280 0.854364 0.463559 0.163920
H34   H     H_    0.095194 0.138980 0.033317 0.157743
H35   H     H_    0.738067 0.828180 0.031554 0.165717
H36   H     H_    0.185438 0.641699 0.458784 0.171607
H37   H     H_    0.228421 0.692556 0.065580 0.187710
H38   H     H_    0.271838 0.256868 0.575086 0.163977
H39   H     H_    0.210808 0.215573 0.925495 0.194634
H40   H     H_    0.685411 0.141692 0.458782 0.171620
H41   H     H_    0.728425 0.192566 0.065585 0.187712
H42   H     H_    0.771836 0.756850 0.575087 0.163978
H43   H     H_    0.710814 0.715585 0.925493 0.194637
H44   H     H_    0.748823 0.008587 0.447980 0.102750
H45   H     H_    0.791689 0.248537 0.541579 0.157814
H46   H     H_    0.735936 0.961056 0.074762 0.104667
H47   H     H_    0.734268 0.036531 0.579980 0.113104
H48   H     H_    0.750859 0.987416 0.943131 0.132608
H49   H     H_    0.248825 0.508586 0.447976 0.102746
H50   H     H_    0.235936 0.461056 0.074763 0.104668
H51   H     H_    0.234274 0.536516 0.579980 0.113114
H52   H     H_    0.250860 0.487417 0.943132 0.132605
H53   H     H_    0.567072 0.981256 0.376560 0.138312
H54   H     H_    0.542722 0.965755 0.133277 0.150159
H55   H     H_    0.542241 0.036574 0.637359 0.125368
H56   H     H_    0.722377 0.324281 0.988985 0.167424
H57   H     H_    0.569177 0.018242 0.872039 0.137267
H58   H     H_    0.067075 0.481257 0.376556 0.138309
H59   H     H_    0.042722 0.465755 0.133278 0.150160
H60   H     H_    0.042248 0.536564 0.637357 0.125371
H61   H     H_    0.069177 0.518241 0.872039 0.137267
H62   H     H_    0.116203 0.940922 0.369465 0.127244
H63   H     H_    0.086794 0.967563 0.106637 0.146528
H64   H     H_    0.093505 0.044773 0.613688 0.122175
H65   H     H_    0.125105 0.070107 0.862596 0.130587
H66   H     H_    0.616209 0.440915 0.369463 0.127236
H67   H     H_    0.703917 0.645951 0.478237 0.129907
H68   H     H_    0.586794 0.467563 0.106638 0.146530
H69   H     H_    0.593512 0.544779 0.613681 0.122170
H70   H     H_    0.625105 0.570107 0.862597 0.130588
H71   H     H_    0.595215 0.638982 0.033313 0.157739
H72   H     H_    0.909742 0.018775 0.543760 0.105385
O1    O     O_R   0.575450 0.828820 0.667950 -0.489065
O2    O     O_R   0.416860 0.942890 0.825320 -0.533020
O3    O     O_R   0.416860 0.057110 0.325320 -0.508960
O4    O     O_R   0.416860 0.057110 0.174680 -0.526181
O5    O     O_R   0.916860 0.442890 0.674680 -0.510844
O6    O     O_R   0.916860 0.442890 0.825320 -0.533021
O7    O     O_R   0.916860 0.557110 0.325320 -0.508960
O8    O     O_R   0.916860 0.557110 0.174680 -0.526182
O9    O     O_R   0.213790 0.953680 0.668330 -0.501434
O10   O     O_R   0.213790 0.953680 0.831670 -0.509816
O11   O     O_R   0.213790 0.046320 0.331670 -0.519503
O12   O     O_R   0.575450 0.828820 0.832050 -0.466455
O13   O     O_R   0.213790 0.046320 0.168330 -0.528708
O14   O     O_R   0.713790 0.453680 0.668330 -0.501422
O15   O     O_R   0.713790 0.453680 0.831670 -0.509818
O16   O     O_R   0.713790 0.546320 0.331670 -0.519505
O17   O     O_R   0.713790 0.546320 0.168330 -0.528708
O18   O     O_R   0.121360 0.817890 0.672660 -0.446822
O19   O     O_R   0.121360 0.817890 0.827340 -0.469050
O20   O     O_R   0.121360 0.182110 0.327340 -0.475618
O21   O     O_R   0.121360 0.182110 0.172660 -0.500341
O22   O     O_R   0.621360 0.317890 0.672660 -0.446814
O23   O     O_R   0.575450 0.171180 0.332050 -0.494320
O24   O     O_R   0.621360 0.317890 0.827340 -0.469054
O25   O     O_R   0.621360 0.682110 0.327340 -0.475628
O26   O     O_R   0.621360 0.682110 0.172660 -0.500337
O27   O     O_R   0.206850 0.711370 0.665820 -0.546047
O28   O     O_R   0.206850 0.711370 0.834180 -0.557432
O29   O     O_R   0.206850 0.288630 0.334180 -0.544186
O30   O     O_R   0.206850 0.288630 0.165820 -0.543444
O31   O     O_R   0.706850 0.211370 0.665820 -0.546051
O32   O     O_R   0.706850 0.211370 0.834180 -0.557431
O33   O     O_R   0.706850 0.788630 0.334180 -0.544181
O34   O     O_R   0.575450 0.171180 0.167950 -0.497051
O35   O     O_R   0.706850 0.788630 0.165820 -0.543445
O36   O     O_R   0.457710 0.733190 0.672630 -0.518766
O37   O     O_R   0.457710 0.733190 0.827370 -0.513572
O38   O     O_R   0.457710 0.266810 0.327370 -0.517780
O39   O     O_R   0.457710 0.266810 0.172630 -0.505497
O40   O     O_R   0.957710 0.233190 0.672630 -0.518767
O41   O     O_R   0.957710 0.233190 0.827370 -0.513572
O42   O     O_R   0.957710 0.766810 0.327370 -0.517777
O43   O     O_R   0.957710 0.766810 0.172630 -0.505497
O44   O     O_3   0.331690 0.831680 0.750000 -0.293438
O45   O     O_R   0.075450 0.328820 0.667950 -0.489067
O46   O     O_3   0.331690 0.168320 0.250000 -0.290121
O47   O     O_3   0.831690 0.331680 0.750000 -0.293438
O48   O     O_3   0.831690 0.668320 0.250000 -0.290121
O49   O     O_R   0.075450 0.328820 0.832050 -0.466455
O50   O     O_R   0.075450 0.671180 0.332050 -0.494323
O51   O     O_R   0.075450 0.671180 0.167950 -0.497048
O52   O     O_R   0.416860 0.942890 0.674680 -0.510841

loop_
_geom_bond_atom_site_label_1
_geom_bond_atom_site_label_2
_ccdc_geom_bond_type
C46   H41   S    
C6    C32   S    
C71   C104  A    
C73   C82   A    
C73   C93   A    
C74   C83   A    
Cr9   O21   S    
C9    C143  S    
C61   C133  S    
C27   F2    S    
C65   C89   A    
C90   O14   A    
C2    C55   S    
C117  C119  A    
C86   C88   A    
C71   C95   A    
C69   C123  S    
C54   C134  S    
C32   F7    S    
C9    H12   S    
C5    H15   S    
C37   C56   S    
C77   H59   S    
C50   C52   S    
C28   C144  S    
Cr6   O49   S    
C41   C61   S    
C80   H61   S    
C4    C12   S    
C108  H65   S    
C21   C48   S    
C100  C109  A    
C22   C130  S    
C7    C33   S    
C14   H56   S    
Cr3   O41   S    
C109  C118  A    
C113  H70   S    
C11   C20   S    
C140  O42   A    
C141  O43   A    
C70   C103  A    
C67   C105  A    
C137  O39   A    
C17   C43   S    
C7    C62   S    
C18   C44   S    
C4    C59   S    
C42   H26   S    
C124  H8    S    
C117  H2    S    
C137  O34   A    
C94   C96   A    
Cr8   O9    S    
C22   C49   S    
C34   C54   S    
C82   C84   A    
C64   C79   S    
C36   C44   S    
C37   C45   S    
Cr10  O24   S    
C16   C25   S    
C127  O29   A    
C46   C60   S    
C139  O41   A    
Cr2   O38   S    
Cr7   O51   S    
C130  O24   A    
C95   C97   A    
C8    C17   S    
Cr4   O43   S    
C41   H25   S    
C106  C115  A    
C52   C61   S    
C80   C88   A    
C36   C55   S    
C1    O9    A    
C76   C96   A    
C13   C45   S    
C78   C94   A    
C138  O45   A    
Cr5   O3    S    
C116  C118  A    
Cr6   O47   S    
C20   C47   S    
C3    C11   S    
Cr7   O7    S    
Cr11  O25   S    
C67   C112  S    
C135  O37   A    
C76   C85   A    
C1    O52   A    
C44   H28   S    
C78   H60   S    
C78   C87   A    
C40   C60   S    
C57   C66   S    
C13   H38   S    
Cr11  O16   S    
C64   C102  A    
C99   C108  A    
C33   C42   S    
C6    C61   S    
C103  C111  A    
C12   H45   S    
C75   C84   A    
C40   C49   S    
C118  H3    S    
C3    C29   S    
Cr1   O52   S    
Cr12  O28   S    
Cr6   O5    S    
C2    C44   S    
C29   C38   S    
C1    C65   S    
C32   C41   S    
C77   C97   A    
C42   C62   S    
Cr10  O22   S    
C75   C91   A    
C13   C56   S    
C121  H6    S    
C133  O1    A    
C79   O4    A    
C81   C83   A    
C142  H9    S    
C55   C143  S    
C7    H17   S    
C8    C134  S    
Cr10  O14   S    
C16   H71   S    
C51   C53   S    
Cr6   O45   S    
C62   C135  S    
Cr2   O29   S    
C86   H50   S    
C19   C28   S    
C27   C143  S    
Cr1   O2    S    
C23   C131  S    
C103  C105  A    
C36   H19   S    
C10   C144  S    
C12   C35   S    
C101  O6    A    
C21   C129  S    
C115  H68   S    
C48   H31   S    
C132  O26   A    
C63   C68   S    
C5    C60   S    
C15   H67   S    
Cr9   O46   S    
Cr4   O33   S    
C34   C43   S    
C4    H14   S    
C57   O10   A    
C110  C119  A    
C109  H62   S    
C19   C45   S    
C40   H24   S    
C80   C95   A    
C30   F5    S    
C128  O21   A    
C14   C22   S    
C11   H34   S    
C130  O32   A    
Cr7   O48   S    
C18   C126  S    
C28   C37   S    
Cr4   O42   S    
C73   H54   S    
C125  O18   A    
C107  C116  A    
C8    H1    S    
C104  C113  A    
C9    C18   S    
C113  C121  A    
C122  H7    S    
C128  O30   A    
C140  O50   A    
C25   C132  S    
C141  O51   A    
C25   C33   S    
C82   H46   S    
C69   C97   A    
C24   H39   S    
C55   C141  S    
C104  C106  A    
C14   C46   S    
C46   C49   S    
C70   C94   A    
C65   C98   A    
Cr12  O44   S    
C72   C92   A    
C35   H40   S    
C31   C40   S    
C35   C59   S    
Cr5   O23   S    
C38   C58   S    
C39   H22   S    
Cr4   O48   S    
Cr8   O10   S    
C72   C81   A    
Cr2   O46   S    
C6    H16   S    
C71   C101  S    
C31   F6    S    
Cr4   O35   S    
Cr10  O47   S    
C101  O15   A    
C2    H37   S    
C35   C48   S    
C108  C117  A    
C50   H33   S    
C45   H29   S    
Cr2   O39   S    
Cr3   O32   S    
C133  O36   A    
C98   C107  A    
C43   C134  S    
C91   C93   A    
Cr3   O47   S    
C10   C19   S    
C39   C59   S    
C125  O27   A    
C136  O23   A    
C126  O28   A    
C15   C52   S    
C5    C14   S    
C81   H44   S    
C7    C16   S    
C54   C142  S    
C98   C100  A    
C102  C110  A    
C41   C50   S    
C115  C124  A    
C136  O38   A    
C23   C50   S    
C68   O3    A    
Cr5   O34   S    
Cr8   O19   S    
C69   C106  A    
C84   H48   S    
Cr12  O36   S    
C49   H32   S    
C27   C36   S    
C21   C30   S    
C23   C32   S    
Cr9   O11   S    
C111  H69   S    
C120  H5    S    
C123  O17   A    
C56   C144  S    
C3    C58   S    
Cr6   O6    S    
C99   C102  A    
C24   C58   S    
C87   H51   S    
C8    C142  S    
C143  H10   S    
C119  H4    S    
C39   C48   S    
C58   C139  S    
Cr11  O17   S    
C59   C136  S    
C47   H30   S    
C132  O35   A    
C134  H36   S    
C72   H53   S    
C52   H42   S    
C17   C26   S    
C74   C89   A    
C64   C93   A    
C20   C128  S    
C110  H63   S    
Cr10  O15   S    
C11   C24   S    
Cr5   O4    S    
C139  O49   A    
C26   F1    S    
Cr11  O48   S    
Cr2   O30   S    
C16   C53   S    
C121  C124  A    
Cr8   O44   S    
C6    C15   S    
Cr11  O26   S    
C26   C34   S    
C112  O7    A    
C54   C140  S    
Cr1   O1    S    
C74   H55   S    
C30   C39   S    
Cr5   O46   S    
C126  O19   A    
Cr3   O40   S    
C129  O31   A    
C60   C137  S    
C15   C23   S    
Cr7   O8    S    
C43   H27   S    
C79   O13   A    
C116  H72   S    
C70   C90   S    
C123  O8    A    
C120  C122  A    
C112  O16   A    
C20   C29   S    
C85   C87   A    
C68   O11   A    
C22   C31   S    
C127  O20   A    
C105  C114  A    
C33   F8    S    
Cr3   O31   S    
C129  O22   A    
C76   H58   S    
C37   H20   S    
Cr9   O13   S    
C12   C21   S    
C28   F3    S    
C138  O40   A    
C111  C120  A    
C66   C99   A    
C63   C92   A    
C25   C51   S    
C63   C100  A    
C85   H49   S    
Cr12  O27   S    
C56   C138  S    
C53   C62   S    
C131  O33   A    
C29   F4    S    
C107  H64   S    
C10   H23   S    
Cr12  O37   S    
C89   C92   A    
C38   C47   S    
C51   H35   S    
Cr9   O20   S    
C77   C86   A    
C67   C96   A    
Cr1   O44   S    
Cr7   O50   S    
C88   H52   S    
Cr1   O12   S    
C24   C47   S    
C135  O12   A    
C18   C27   S    
C57   O2    A    
C10   C13   S    
C114  H66   S    
C66   C91   A    
C38   H21   S    
C42   C51   S    
C3    H13   S    
Cr8   O18   S    
C2    C9    S    
C17   C125  S    
C144  H11   S    
C19   C127  S    
C53   H43   S    
C34   H18   S    
C83   H47   S    
C114  C122  A    
C75   H57   S    
C90   O5    A    
C131  O25   A    
C26   C142  S    
C4    C30   S    
C5    C31   S    
