data_str_m9_o1_o16_f0_sra.sym.6
_audit_creation_date              2012-12-11T15:47:08-0500
_audit_creation_method            fapswitch 2.2
_symmetry_space_group_name_H-M    P1
_symmetry_Int_Tables_number       1
_space_group_crystal_system       triclinic
_cell_length_a                    20.116782
_cell_length_b                    7.255902
_cell_length_c                    13.557298
_cell_angle_alpha                 90.362664
_cell_angle_beta                  102.858293
_cell_angle_gamma                 89.612921
_cell_volume                      1929.20483749

loop_
_atom_site_label
_atom_site_type_symbol
_atom_type_description
_atom_site_fract_x
_atom_site_fract_y
_atom_site_fract_z
_atom_type_partial_charge
O1    O     O_R   0.449560 0.506810 0.599700 -0.529493
O2    O     O_R   0.550440 0.006810 0.400300 -0.536585
O3    O     O_R   0.587960 0.180060 0.595760 -0.547013
O4    O     O_R   0.412040 0.680060 0.404240 -0.543249
C1    C     C_R   0.614944 0.344068 0.617443 0.690832
C2    C     C_R   0.385045 0.844321 0.382570 0.691649
O5    O     O_R   0.452380 0.177430 0.611700 -0.540819
O6    O     O_R   0.547620 0.677430 0.388300 -0.533801
O7    O     O_R   0.413900 0.001890 0.416350 -0.541601
O8    O     O_R   0.586100 0.501890 0.583650 -0.537893
C3    C     C_R   0.436396 0.346706 0.637783 0.697664
C4    C     C_R   0.563637 0.844714 0.362165 0.697889
O9    O     O_3   0.487530 0.337490 0.435890 -0.380184
O10   O     O_3   0.512470 0.837490 0.564110 -0.380860
V1    V     V_3+5 0.502310 0.064660 0.511890 1.427462
V2    V     V_3+5 0.497690 0.564660 0.488110 1.445184
C5    C     C_R   0.610406 0.782726 0.111321 -0.159510
C6    C     C_R   0.388503 0.461983 0.882897 -0.159572
H1    H     H_    0.517020 0.776407 0.162811 0.102422
H2    H     H_    0.481938 0.457815 0.831401 0.103258
H3    H     H_    0.694289 0.773698 0.985489 0.120016
H4    H     H_    0.304253 0.497511 0.007233 0.120965
H5    H     H_    0.584927 0.753938 0.033601 0.111830
H6    H     H_    0.413515 0.507523 0.958240 0.111772
C7    C     C_R   0.602851 0.846233 0.283502 -0.036164
C8    C     C_R   0.397081 0.361879 0.716024 -0.036877
C9    C     C_R   0.930890 0.873889 0.316692 -0.198428
C10   C     C_R   0.069386 0.324420 0.684716 -0.199538
C11   C     C_R   0.896520 0.847542 0.393573 -0.108373
C12   C     C_R   0.103603 0.334239 0.606603 -0.109026
C13   C     C_R   0.826156 0.818247 0.371749 0.146430
C14   C     C_R   0.173619 0.368518 0.626343 0.146675
C15   C     C_R   0.787662 0.831961 0.269771 0.034705
C16   C     C_R   0.212081 0.377318 0.728582 0.033981
C17   C     C_R   0.824469 0.839085 0.191089 0.046751
C18   C     C_R   0.175211 0.386809 0.807223 0.046453
C19   C     C_R   0.714818 0.831668 0.241704 0.086022
C20   C     C_R   0.284869 0.384412 0.756497 0.085837
C21   C     C_R   0.681566 0.801286 0.138905 0.142348
C22   C     C_R   0.317589 0.437045 0.856653 0.142118
C23   C     C_R   0.719322 0.793614 0.064297 -0.202602
C24   C     C_R   0.279600 0.460451 0.930239 -0.203300
C25   C     C_R   0.789320 0.819545 0.089384 -0.179190
C26   C     C_R   0.209940 0.428607 0.906981 -0.180202
C27   C     C_R   0.673473 0.870807 0.310707 -0.175718
C28   C     C_R   0.326780 0.331092 0.690546 -0.177858
C29   C     C_R   0.571561 0.798591 0.184134 -0.171600
C30   C     C_R   0.427673 0.430788 0.811639 -0.171397
C31   C     C_R   0.896089 0.862061 0.215748 -0.072004
C32   C     C_R   0.103895 0.357988 0.784246 -0.072475
H7    H     H_    0.694966 0.923064 0.385438 0.147216
H8    H     H_    0.306023 0.262833 0.619744 0.147248
H9    H     H_    0.985706 0.892029 0.335960 0.130003
H10   H     H_    0.014800 0.301844 0.666765 0.130222
H11   H     H_    0.925717 0.840030 0.470871 0.153697
H12   H     H_    0.074456 0.324706 0.529321 0.153994
H13   H     H_    0.815847 0.820298 0.028117 0.113840
H14   H     H_    0.183290 0.440937 0.967864 0.114742
C33   C     C_R   0.215960 0.022596 0.226982 -0.132454
C34   C     C_R   0.780677 0.523555 0.781567 -0.123608
H15   H     H_    0.190987 0.155106 0.210628 0.131697
H16   H     H_    0.803026 0.656709 0.804588 0.123192
C35   C     C_R   0.281187 0.018354 0.290316 -0.139292
C36   C     C_R   0.715495 0.518915 0.718102 -0.123605
H17   H     H_    0.304137 0.147105 0.320844 0.132944
H18   H     H_    0.689955 0.648210 0.694111 0.128312
C37   C     C_R   0.316020 0.850313 0.314091 -0.043275
C38   C     C_R   0.683929 0.349949 0.686052 -0.040831
C39   C     C_R   0.283736 0.686588 0.272714 -0.121969
C40   C     C_R   0.719348 0.185684 0.719544 -0.137824
H19   H     H_    0.308763 0.554174 0.289211 0.127066
H20   H     H_    0.696927 0.052626 0.696449 0.126742
C41   C     C_R   0.218505 0.690783 0.209393 -0.130781
C42   C     C_R   0.784503 0.190273 0.783076 -0.139689
H21   H     H_    0.195618 0.561924 0.178954 0.121272
H22   H     H_    0.809958 0.060856 0.807029 0.124673
C43   C     C_R   0.183620 0.858838 0.185608 -0.043242
C44   C     C_R   0.816217 0.359275 0.814859 -0.041114
O11   O     O_R   0.913920 0.203370 0.916260 -0.540282
O12   O     O_R   0.086080 0.703370 0.083740 -0.540041
O13   O     O_R   0.047620 0.535540 0.888290 -0.536483
O14   O     O_R   0.952380 0.035540 0.111710 -0.537479
C45   C     C_R   0.063986 0.367592 0.862446 0.690306
C46   C     C_R   0.935958 0.869030 0.137535 0.690785
O15   O     O_R   0.912040 0.532780 0.904220 -0.545150
O16   O     O_R   0.087960 0.032780 0.095780 -0.545277
O17   O     O_R   0.949550 0.708160 0.099720 -0.534641
O18   O     O_R   0.050450 0.208160 0.900280 -0.535792
C47   C     C_R   0.885417 0.365052 0.883053 0.677846
C48   C     C_R   0.114528 0.864766 0.117119 0.678025
O19   O     O_3   0.012480 0.375300 0.064060 -0.376376
O20   O     O_3   0.987520 0.875300 0.935940 -0.377643
V3    V     V_3+5 0.997690 0.648180 0.988110 1.432813
V4    V     V_3+5 0.002310 0.148180 0.011890 1.431804
I1    I     I_    0.791941 0.698782 0.495378 -0.483156
I2    I     I_    0.206780 0.459818 0.495463 -0.485367

loop_
_geom_bond_atom_site_label_1
_geom_bond_atom_site_label_2
_ccdc_geom_bond_type
C20   C22   A    
C35   H17   S    
O14   V4    S    
C9    C11   A    
C41   H21   S    
O15   V3    S    
O1    C3    A    
C46   O17   A    
O2    C4    A    
C33   C43   A    
C2    O7    A    
C18   C32   A    
C21   C23   A    
O5    C3    A    
C34   C44   A    
C5    H5    S    
C42   H22   S    
C6    H6    S    
C36   C38   A    
C31   C46   S    
H1    C29   S    
C27   H7    S    
C28   H8    S    
C34   H16   S    
C5    C21   A    
C39   H19   S    
C6    C22   A    
O16   V4    S    
C10   C32   A    
C26   H14   S    
C40   C42   A    
C13   C15   A    
C39   C41   A    
C17   C25   A    
C7    C29   A    
C8    C30   A    
O5    V1    S    
C45   O18   A    
O6    V2    S    
C23   C25   A    
C24   C26   A    
C1    C38   S    
O13   C45   A    
C32   C45   S    
O18   V4    S    
C44   C47   S    
C19   C21   A    
C35   C37   A    
C43   C48   S    
C33   H15   S    
C20   C28   A    
O11   V4    S    
O4    C2    A    
O16   C48   A    
C10   H10   S    
C11   H11   S    
C3    C8    S    
C12   H12   S    
C15   C19   A    
C37   C39   A    
C14   C16   A    
O4    V2    S    
C17   C31   A    
O13   V3    S    
O6    C4    A    
O1    V2    S    
O2    V1    S    
H2    C30   S    
H3    C23   S    
C2    C37   S    
C14   I2    S    
O14   C46   A    
C18   C26   A    
C19   C27   A    
C7    C27   A    
O3    V1    S    
O15   C47   A    
C16   C20   A    
C5    C29   A    
O3    C1    A    
C6    C30   A    
C9    H9    S    
C33   C35   A    
C4    C7    S    
C34   C36   A    
C10   C12   A    
O7    V1    S    
C1    O8    A    
C11   C13   A    
O8    V2    S    
O19   V4    S    
C12   C14   A    
H4    C24   S    
C13   I1    S    
O17   V3    S    
C22   C24   A    
O20   V3    S    
C15   C17   A    
C16   C18   A    
O12   C48   A    
O11   C47   A    
C25   H13   S    
C38   C40   A    
C42   C44   A    
O9    V2    S    
C41   C43   A    
O10   V1    S    
C40   H20   S    
O12   V3    S    
C8    C28   A    
C9    C31   A    
C36   H18   S    
