data_str_m4_o14_o22_f0_acs.sym.6
_audit_creation_date              2012-12-11T14:23:14-0500
_audit_creation_method            fapswitch 2.2
_symmetry_space_group_name_H-M    P1
_symmetry_Int_Tables_number       1
_space_group_crystal_system       triclinic
_cell_length_a                    11.115808
_cell_length_b                    10.925361
_cell_length_c                    18.858066
_cell_angle_alpha                 89.884662
_cell_angle_beta                  89.48899
_cell_angle_gamma                 59.825337
_cell_volume                      1979.78718678

loop_
_atom_site_label
_atom_site_type_symbol
_atom_type_description
_atom_site_fract_x
_atom_site_fract_y
_atom_site_fract_z
_atom_type_partial_charge
C1    C     C_R   0.235013 0.646915 0.609367 0.539233
C2    C     C_R   0.547417 0.214454 0.720088 -0.149632
C3    C     C_R   0.557679 0.210893 0.792664 0.205478
C4    C     C_R   0.650817 0.619120 0.602859 0.540376
C5    C     C_R   0.927638 0.123969 0.811245 -0.094291
C6    C     C_R   0.040788 0.094530 0.767601 -0.141284
C7    C     C_R   0.031623 0.086814 0.694637 -0.136153
C8    C     C_R   0.910220 0.105694 0.664652 -0.078860
C9    C     C_R   0.661499 0.181567 0.676387 -0.049572
C10   C     C_R   0.177758 0.661651 0.833453 0.008211
C11   C     C_R   0.166454 0.556476 0.793801 0.041420
C12   C     C_3   0.743440 0.513224 0.797527 -0.242223
C13   C     C_R   0.162748 0.563494 0.718492 0.014335
C14   C     C_R   0.209458 0.757202 0.724977 -0.153046
C15   C     C_R   0.206302 0.755429 0.797858 -0.156835
C16   C     C_R   0.627302 0.228925 0.602855 0.532142
C17   C     C_R   0.154558 0.446690 0.826676 -0.046259
C18   C     C_R   0.124664 0.358038 0.787782 -0.156833
C19   C     C_R   0.111627 0.371323 0.714766 -0.154691
C20   C     C_R   0.130136 0.472968 0.680204 -0.115535
C21   C     C_R   0.190098 0.661963 0.684057 -0.001965
C22   C     C_R   0.714530 0.696990 0.181322 0.010554
C23   C     C_3   0.695817 0.669384 0.814630 0.056307
C24   C     C_R   0.829643 0.611558 0.227031 0.002543
C25   C     C_R   0.806158 0.619966 0.301015 -0.008080
C26   C     C_R   0.558713 0.738122 0.278994 -0.152954
C27   C     C_R   0.579860 0.758054 0.208620 -0.134219
C28   C     C_R   0.293644 0.620195 0.393200 0.567649
C29   C     C_R   0.964107 0.508041 0.202974 -0.159135
C30   C     C_R   0.067970 0.423036 0.250422 -0.092196
C31   C     C_R   0.050064 0.449431 0.322635 0.257982
C32   C     C_R   0.920483 0.555107 0.347561 -0.076001
C33   C     C_R   0.669235 0.674773 0.326269 -0.002304
C34   C     C_3   0.665996 0.642465 0.679145 0.049146
C35   C     C_R   0.626709 0.177540 0.172783 -0.005078
C36   C     C_R   0.546055 0.140631 0.217292 0.027730
C37   C     C_R   0.575897 0.122481 0.289899 0.015969
C38   C     C_R   0.692860 0.258249 0.275506 -0.160034
C39   C     C_R   0.688833 0.248116 0.202078 -0.182729
C40   C     C_R   0.644140 0.626558 0.394178 0.522739
C41   C     C_R   0.432971 0.127276 0.193064 -0.101349
C42   C     C_R   0.363500 0.083238 0.238656 -0.142328
C43   C     C_R   0.406384 0.049755 0.308460 -0.068339
C44   C     C_R   0.519226 0.057617 0.332260 -0.057185
C45   C     C_3   0.757529 0.709499 0.688974 -0.249228
C46   C     C_R   0.643675 0.188652 0.319929 -0.000682
C47   C     C_R   0.137962 0.682639 0.186460 0.007403
C48   C     C_R   0.104218 0.799724 0.231618 0.025358
C49   C     C_R   0.188529 0.779516 0.289058 0.034565
C50   C     C_R   0.294251 0.523980 0.274296 -0.132959
C51   C     C_R   0.240762 0.546466 0.205999 -0.157567
C52   C     C_R   0.615930 0.232724 0.393986 0.522173
C53   C     C_R   0.997165 0.939271 0.217245 -0.067694
C54   C     C_R   0.005206 0.054770 0.242033 -0.115565
C55   C     C_R   0.099626 0.035645 0.293216 -0.150760
C56   C     C_3   0.732797 0.496295 0.717731 -0.210703
C57   C     C_R   0.189855 0.900261 0.316756 -0.092841
C58   C     C_R   0.262722 0.640279 0.317675 -0.002934
C59   C     C_R   0.702363 0.103721 0.896502 0.566715
C60   C     C_R   0.721053 0.685075 0.889878 0.550345
C61   C     C_R   0.118499 0.704080 0.905477 0.548104
C62   C     C_R   0.670713 0.111099 0.102676 0.527309
C63   C     C_R   0.733251 0.715734 0.105583 0.560934
C64   C     C_3   0.540574 0.761032 0.794555 -0.245640
C65   C     C_R   0.086983 0.712603 0.114429 0.535240
C66   C     C_3   0.522995 0.738885 0.715417 -0.234708
C67   C     C_R   0.686465 0.166602 0.825131 0.018598
C68   C     C_3   0.780296 0.719517 0.768758 -0.213660
C69   C     C_R   0.802169 0.144106 0.782257 -0.027037
C70   C     C_R   0.791427 0.142932 0.707060 0.000405
Cr1   Cr    Cr6+3 0.392940 0.397950 0.502230 1.014072
Cr2   Cr    Cr6+3 0.398400 0.708500 0.501260 0.984183
Cr3   Cr    Cr6+3 0.708640 0.393530 0.496460 0.996953
Cr4   Cr    Cr6+3 0.937880 0.938320 0.007620 0.997900
Cr5   Cr    Cr6+3 0.625560 0.937220 0.994510 1.017931
Cr6   Cr    Cr6+3 0.938080 0.625010 0.001190 0.982415
H1    H     H_    0.503150 0.875217 0.804093 0.137087
H2    H     H_    0.235558 0.830075 0.700575 0.139743
H3    H     H_    0.476107 0.731407 0.827820 0.115750
H4    H     H_    0.176681 0.420593 0.882018 0.169302
H5    H     H_    0.220449 0.832781 0.826632 0.132940
H6    H     H_    0.113512 0.278296 0.815504 0.103388
H7    H     H_    0.087696 0.302743 0.684466 0.119525
H8    H     H_    0.111769 0.483476 0.623814 0.131785
H9    H     H_    0.455644 0.767443 0.295800 0.119814
H10   H     H_    0.992923 0.480973 0.148571 0.173623
H11   H     H_    0.490420 0.812074 0.174406 0.146162
H12   H     H_    0.838516 0.423501 0.696138 0.155039
H13   H     H_    0.166088 0.340992 0.230044 0.128062
H14   H     H_    0.463240 0.683545 0.711160 0.139378
H15   H     H_    0.906242 0.576910 0.403963 0.114239
H16   H     H_    0.735465 0.319933 0.297390 0.157134
H17   H     H_    0.388317 0.161930 0.141175 0.139808
H18   H     H_    0.737386 0.291396 0.168151 0.128758
H19   H     H_    0.276020 0.076591 0.219210 0.112262
H20   H     H_    0.352433 0.020129 0.345557 0.107032
H21   H     H_    0.552695 0.025435 0.386265 0.125493
H22   H     H_    0.359002 0.417111 0.293304 0.172537
H23   H     H_    0.892272 0.653685 0.780539 0.151391
H24   H     H_    0.913160 0.957630 0.183512 0.161495
H25   H     H_    0.273269 0.457808 0.170119 0.115369
H26   H     H_    0.465167 0.843268 0.688444 0.123811
H27   H     H_    0.942964 0.158868 0.220579 0.119352
H28   H     H_    0.103809 0.125609 0.314190 0.138916
H29   H     H_    0.263227 0.893133 0.355144 0.142497
H30   H     H_    0.749223 0.830852 0.782246 0.123878
H31   H     H_    0.706051 0.817175 0.665129 0.116460
H32   H     H_    0.852360 0.441567 0.814190 0.149320
H33   H     H_    0.677190 0.480070 0.826872 0.120356
H34   H     H_    0.858689 0.645569 0.661222 0.124758
H35   H     H_    0.668995 0.445508 0.708688 0.135602
H36   H     H_    0.391724 0.202800 0.809029 0.316471
H37   H     H_    0.126366 0.393897 0.417095 0.323113
H38   H     H_    0.444881 0.250892 0.698513 0.161730
H39   H     H_    0.939214 0.136725 0.866950 0.144062
H40   H     H_    0.138265 0.072771 0.790544 0.091066
H41   H     H_    0.120515 0.062478 0.661113 0.103618
H42   H     H_    0.911834 0.088736 0.608159 0.137729
O1    O     O_R   0.507340 0.255690 0.581430 -0.524894
O2    O     O_R   0.837290 0.593240 0.915240 -0.529366
O3    O     O_R   0.065320 0.635310 0.931580 -0.520364
O4    O     O_R   0.280360 0.527380 0.578910 -0.507624
O5    O     O_R   0.068470 0.828620 0.091850 -0.520932
O6    O     O_R   0.799150 0.057200 0.079350 -0.520996
O7    O     O_R   0.585220 0.080180 0.076770 -0.535754
O8    O     O_R   0.627170 0.809480 0.067050 -0.499066
O9    O     O_R   0.816200 0.596410 0.076500 -0.538724
O10   O     O_R   0.045770 0.638240 0.081070 -0.536814
O11   O     O_3   0.833840 0.833520 0.001110 -0.271850
O12   O     O_R   0.524510 0.695820 0.424050 -0.535872
O13   O     O_R   0.260600 0.739610 0.584580 -0.528737
O14   O     O_R   0.532370 0.695050 0.573830 -0.509747
O15   O     O_R   0.744850 0.503430 0.576380 -0.531392
O16   O     O_R   0.699080 0.276500 0.571950 -0.508820
O17   O     O_R   0.498860 0.256520 0.419860 -0.513105
O18   O     O_R   0.272490 0.528150 0.429140 -0.471871
O19   O     O_R   0.252110 0.740440 0.423010 -0.536820
O20   O     O_3   0.441135 0.245418 0.832868 -0.691142
O21   O     O_3   0.158532 0.366886 0.367370 -0.694994
O22   O     O_R   0.736370 0.504260 0.414810 -0.523595
O23   O     O_R   0.691220 0.277270 0.422180 -0.503572
O24   O     O_3   0.499990 0.499990 0.499980 -0.271879
O25   O     O_R   0.089570 0.825450 0.930590 -0.516395
O26   O     O_R   0.818700 0.054260 0.929860 -0.526579
O27   O     O_R   0.606310 0.077010 0.915520 -0.456035
O28   O     O_R   0.646730 0.806540 0.917560 -0.504247

loop_
_geom_bond_atom_site_label_1
_geom_bond_atom_site_label_2
_ccdc_geom_bond_type
C57   H29   S    
Cr4   O25   S    
C1    C21   S    
C46   C52   S    
C11   C13   A    
C64   H1    S    
C66   H26   S    
Cr1   O4    S    
Cr4   O6    S    
C19   C20   A    
C16   O16   A    
C34   C66   S    
C62   O6    A    
C8    H42   S    
C7    C8    A    
C66   H14   S    
Cr3   O23   S    
C53   C54   A    
Cr5   O27   S    
C34   C56   S    
C12   C23   S    
C26   C27   A    
Cr6   O2    S    
C60   O28   A    
Cr6   O3    S    
C14   C21   A    
C36   C37   A    
C9    C16   S    
C10   C15   A    
Cr1   O17   S    
C30   C31   A    
C56   H12   S    
C32   H15   S    
C38   H16   S    
C49   C57   A    
C44   H21   S    
C61   O3    A    
C18   C19   A    
C41   C42   A    
C7    H41   S    
C24   C29   A    
C5    C69   A    
C59   C67   S    
C22   C63   S    
C1    O4    A    
C61   O25   A    
C41   H17   S    
C35   C36   A    
C47   C48   A    
H37   O21   S    
C56   H35   S    
C25   C32   A    
C14   H2    S    
Cr4   O5    S    
Cr5   O28   S    
C5    H39   S    
C36   C41   A    
C23   C60   S    
C68   H30   S    
C30   H13   S    
C19   H7    S    
C12   H33   S    
Cr2   O14   S    
Cr4   O26   S    
Cr3   O24   S    
C53   H24   S    
C48   C53   A    
C4    C34   S    
C50   H22   S    
C33   C40   S    
C42   H19   S    
C50   C58   A    
C65   O10   A    
H36   O20   S    
C54   H27   S    
C38   C39   A    
C9    C70   A    
C15   H5    S    
C16   O1    A    
Cr1   O18   S    
C12   H32   S    
C45   H34   S    
C47   C51   A    
C50   C51   A    
C55   H28   S    
C17   H4    S    
C49   C58   A    
C67   C69   A    
C64   C66   S    
C23   C68   S    
Cr2   O24   S    
C43   C44   A    
C39   H18   S    
C29   C30   A    
C4    O14   A    
C43   H20   S    
Cr6   O11   S    
C26   C33   A    
C31   C32   A    
C45   C68   S    
C17   C18   A    
C13   C21   A    
C3    O20   S    
C24   C25   A    
C27   H11   S    
C6    H40   S    
C29   H10   S    
C12   C56   S    
C34   C45   S    
Cr1   O24   S    
C59   O27   A    
C48   C49   A    
Cr3   O15   S    
C59   O26   A    
C22   C27   A    
C20   H8    S    
Cr6   O10   S    
C64   H3    S    
C22   C24   A    
C10   C61   S    
C42   C43   A    
C31   O21   S    
Cr2   O13   S    
C52   O17   A    
C40   O12   A    
C54   C55   A    
Cr2   O19   S    
C13   C20   A    
C28   O18   A    
C3    C67   A    
C28   O19   A    
C1    O13   A    
C11   C17   A    
C62   O7    A    
Cr2   O12   S    
C6    C7    A    
Cr3   O22   S    
C28   C58   S    
C51   H25   S    
C8    C70   A    
C52   O23   A    
Cr1   O1    S    
Cr5   O8    S    
C37   C44   A    
C55   C57   A    
C2    C3    A    
C23   C64   S    
C2    H38   S    
C5    C6    A    
C26   H9    S    
C35   C39   A    
C40   O22   A    
C18   H6    S    
C60   O2    A    
C35   C62   S    
C65   O5    A    
C69   C70   A    
C38   C46   A    
C63   O8    A    
C10   C11   A    
C45   H31   S    
Cr3   O16   S    
Cr4   O11   S    
Cr6   O9    S    
C14   C15   A    
Cr5   O7    S    
C37   C46   A    
C2    C9    A    
C47   C65   S    
C63   O9    A    
Cr5   O11   S    
C25   C33   A    
C4    O15   A    
C68   H23   S    
