data_str_m4_o5_o14_f0_acs.sym.108
_audit_creation_date              2013-03-05T15:52:54-0500
_audit_creation_method            fapswitch 2.2
_symmetry_space_group_name_H-M    P1
_symmetry_Int_Tables_number       1
_space_group_crystal_system       triclinic
_cell_length_a                    10.729388
_cell_length_b                    10.761449
_cell_length_c                    17.098754
_cell_angle_alpha                 100.081546
_cell_angle_beta                  99.739659
_cell_angle_gamma                 60.88811
_cell_volume                      1690.12637832

loop_
_atom_site_label
_atom_site_type_symbol
_atom_site_description
_atom_site_fract_x
_atom_site_fract_y
_atom_site_fract_z
_atom_type_partial_charge
O1    O     O_R   0.749810 0.499790 0.438040 -0.515421
O2    O     O_R   0.477660 0.726260 0.439290 -0.508945
C1    C     C_R   0.353400 0.779704 0.402858 0.553088
O3    O     O_R   0.260150 0.743000 0.412270 -0.505222
O4    O     O_R   0.297740 0.466550 0.394720 -0.468725
C2    C     C_R   0.372971 0.348019 0.356598 0.578333
O5    O     O_R   0.488080 0.253500 0.386430 -0.520632
O6    O     O_R   0.722670 0.303800 0.421940 -0.510274
C3    C     C_R   0.779963 0.372711 0.405173 0.549466
O7    O     O_R   0.751130 0.502220 0.613520 -0.456753
O8    O     O_R   0.478890 0.728510 0.601960 -0.471690
C4    C     C_R   0.380936 0.715205 0.631237 0.537107
O9    O     O_R   0.261470 0.745430 0.587750 -0.521351
O10   O     O_R   0.298970 0.468800 0.557390 -0.505378
C5    C     C_R   0.406434 0.374955 0.599952 0.527354
O11   O     O_R   0.489400 0.255930 0.561910 -0.509792
O12   O     O_R   0.723890 0.306050 0.584610 -0.550157
C6    C     C_R   0.772880 0.381258 0.629909 0.542606
Cr1   Cr    Cr6+3 0.608100 0.610860 0.522250 1.049131
Cr2   Cr    Cr6+3 0.288890 0.599990 0.488420 1.034550
Cr3   Cr    Cr6+3 0.603040 0.289190 0.489390 0.993112
O13   O     O_3   0.500010 0.500010 0.500020 -0.291388
C7    C     C_1   0.351018 0.338703 0.273125 0.028164
C8    C     C_1   0.338656 0.329367 0.202317 0.035336
H1    H     H_    0.944845 0.458963 0.358385 0.165639
C9    C     C_R   0.867133 0.324177 0.172353 0.007232
C10   C     C_R   0.809835 0.241775 0.192306 -0.033069
C11   C     C_R   0.819730 0.224554 0.273226 0.004949
C12   C     C_R   0.912397 0.393978 0.312538 -0.107199
C13   C     C_R   0.924850 0.394448 0.234148 0.195642
C14   C     C_R   0.749672 0.170180 0.133862 -0.091155
C15   C     C_R   0.721155 0.067766 0.154395 -0.094766
C16   C     C_R   0.746963 0.039479 0.233185 -0.121250
C17   C     C_R   0.796858 0.115222 0.292061 -0.082551
C18   C     C_R   0.851112 0.318376 0.332332 -0.042096
H2    H     H_    0.725614 0.191226 0.072062 0.141445
H3    H     H_    0.681621 0.008303 0.108994 0.146587
H4    H     H_    0.727000 0.960128 0.249556 0.131999
H5    H     H_    0.822471 0.082675 0.351510 0.137020
H6    H     H_    0.101339 0.939748 0.323591 0.139569
C19   C     C_R   0.294827 0.905610 0.176856 0.007833
C20   C     C_R   0.434280 0.842373 0.216319 0.023725
C21   C     C_R   0.449813 0.839631 0.299547 0.027325
C22   C     C_R   0.193842 0.920080 0.295954 -0.141383
C23   C     C_R   0.175840 0.947357 0.217939 -0.143843
C24   C     C_R   0.558742 0.778954 0.175869 -0.102748
C25   C     C_R   0.691659 0.741399 0.217816 -0.121368
C26   C     C_R   0.705146 0.760474 0.300776 -0.122087
C27   C     C_R   0.585202 0.810200 0.341628 -0.073551
C28   C     C_R   0.330907 0.859210 0.336188 -0.001098
H7    H     H_    0.557329 0.754440 0.111955 0.157537
H8    H     H_    0.068401 0.995727 0.188175 0.153014
H9    H     H_    0.781755 0.707564 0.184704 0.192902
H10   H     H_    0.808175 0.738443 0.333373 0.143679
H11   H     H_    0.599445 0.829827 0.405827 0.143009
H12   H     H_    0.173114 0.543817 0.681738 0.163810
C29   C     C_R   0.298486 0.276195 0.799289 -0.010461
C30   C     C_R   0.423783 0.176095 0.761902 -0.006687
C31   C     C_R   0.476010 0.224924 0.711522 0.028212
C32   C     C_R   0.247090 0.444388 0.706550 -0.138042
C33   C     C_R   0.209636 0.408953 0.769968 -0.124927
C34   C     C_R   0.502104 0.030548 0.776295 -0.079532
C35   C     C_R   0.641312 0.942758 0.753867 0.225241
C36   C     C_R   0.702824 0.002317 0.716756 -0.110670
C37   C     C_R   0.621461 0.141341 0.696025 -0.137655
C38   C     C_R   0.379329 0.352639 0.676103 -0.002713
H13   H     H_    0.455173 0.985277 0.805105 0.170755
H14   H     H_    0.111913 0.485674 0.796386 0.194939
H15   H     H_    0.812490 0.940579 0.701860 0.152003
H16   H     H_    0.673416 0.181699 0.667125 0.158332
C39   C     C_1   0.818112 0.342600 0.709069 -0.021128
C40   C     C_1   0.845492 0.313358 0.776500 -0.026501
C41   C     C_1   0.358127 0.764552 0.713520 -0.018777
C42   C     C_1   0.325442 0.811132 0.780539 -0.026047
O14   O     O_R   0.171100 0.914680 0.053100 -0.501061
O15   O     O_R   0.941680 0.184840 0.050710 -0.531937
C43   C     C_R   0.901784 0.307408 0.091319 0.548891
O16   O     O_R   0.922080 0.403420 0.072610 -0.456120
O17   O     O_R   0.196880 0.369150 0.083850 -0.437807
C44   C     C_R   0.321005 0.301427 0.119230 0.571278
O18   O     O_R   0.411730 0.181020 0.091530 -0.542475
O19   O     O_R   0.365010 0.944360 0.063320 -0.514788
C45   C     C_R   0.263671 0.946200 0.096421 0.552894
O20   O     O_R   0.159380 0.906670 0.876210 -0.491756
O21   O     O_R   0.930820 0.177420 0.886730 -0.502847
C46   C     C_R   0.886734 0.296918 0.858858 0.547056
O22   O     O_R   0.910360 0.395420 0.895720 -0.483460
O23   O     O_R   0.186010 0.361730 0.919870 -0.490830
C47   C     C_R   0.279126 0.252687 0.877216 0.532320
O24   O     O_R   0.400000 0.173010 0.914630 -0.515308
O25   O     O_R   0.354140 0.936940 0.899340 -0.509428
C48   C     C_R   0.280945 0.880698 0.857773 0.551324
Cr4   Cr    Cr6+3 0.053960 0.052250 0.967380 1.035206
Cr5   Cr    Cr6+3 0.059890 0.373160 0.992710 1.090474
Cr6   Cr    Cr6+3 0.373370 0.061690 0.991710 1.017744
O26   O     O_3   0.162410 0.162370 0.983930 -0.299177
N1    N     N_R   0.720857 0.795894 0.770827 0.085848
O27   O     O_R   0.667961 0.743324 0.810989 -0.348510
O28   O     O_R   0.846982 0.713108 0.745996 -0.362040
Cl1   Cl    Cl    0.016800 0.485386 0.220657 -0.669102

loop_
_geom_bond_atom_site_label_1
_geom_bond_atom_site_label_2
_geom_bond_distance
_ccdc_geom_bond_type
C30   C34   1.415728 A    
C19   C20   1.409102 A    
O11   Cr3   2.060087 S    
C41   C42   1.204683 T    
Cr6   O26   1.969067 S    
N1    O27   1.301564 A    
O24   Cr6   2.065682 S    
O4    Cr2   1.936839 S    
C43   O16   1.255201 A    
C26   H10   1.082423 S    
O8    Cr1   1.926087 S    
C9    C10   1.409990 A    
C34   C35   1.401577 A    
C29   C47   1.464721 S    
C34   H13   1.067817 S    
O7    C6    1.279638 A    
C31   C38   1.422457 A    
O21   C46   1.284915 A    
O4    C2    1.260387 A    
O18   Cr6   2.059340 S    
C37   H16   1.071208 S    
C19   C45   1.451484 S    
O22   Cr5   2.060725 S    
C13   Cl1   1.754904 S    
C20   C24   1.409918 A    
C42   C48   1.432410 S    
O21   Cr4   1.940079 S    
C8    C44   1.399804 S    
C25   C26   1.390252 A    
C11   C18   1.418672 A    
O6    C3    1.260020 A    
C7    C8    1.187271 T    
C25   H9    1.076147 S    
C32   C38   1.402090 A    
C4    C41   1.431717 S    
N1    O28   1.301581 A    
C1    C28   1.461953 S    
O12   C6    1.260154 A    
H1    C12   1.085102 S    
O23   Cr5   1.937033 S    
O1    Cr1   2.045382 S    
C9    C43   1.453302 S    
C10   C14   1.415993 A    
C17   H5    1.080723 S    
O10   Cr2   1.945965 S    
Cr1   O13   1.987652 S    
O1    C3    1.285554 A    
O15   C43   1.278939 A    
O17   Cr5   1.943610 S    
O25   C48   1.269361 A    
C46   O22   1.248463 A    
C21   C27   1.416565 A    
C23   H8    1.081290 S    
C30   C31   1.393022 A    
C27   H11   1.080021 S    
C5    C38   1.463986 S    
C24   H7    1.077727 S    
O12   Cr3   1.943263 S    
O17   C44   1.268104 A    
C32   C33   1.387112 A    
C12   C13   1.370439 A    
O15   Cr4   1.927123 S    
C14   C15   1.389785 A    
O7    Cr1   2.059147 S    
C16   C17   1.385434 A    
C15   H3    1.082046 S    
C4    O9    1.287719 A    
Cr5   O26   1.971519 S    
C26   C27   1.390553 A    
Cr2   O13   1.969589 S    
C9    C13   1.423501 A    
Cr4   O26   1.987792 S    
C20   C21   1.408378 A    
C1    O3    1.282271 A    
C22   C23   1.377560 A    
O14   Cr4   2.060477 S    
C22   C28   1.393994 A    
C6    C39   1.420951 S    
C24   C25   1.380634 A    
O19   Cr6   1.946842 S    
O9    Cr2   2.052124 S    
O2    Cr1   1.940873 S    
C14   H2    1.081289 S    
C44   O18   1.250872 A    
O6    Cr3   1.939864 S    
C40   C46   1.417884 S    
O8    C4    1.313471 A    
C21   C28   1.423806 A    
C29   C33   1.401802 A    
C2    O5    1.251513 A    
C36   H15   1.082713 S    
C12   C18   1.378789 A    
C16   H4    1.065545 S    
C15   C16   1.385510 A    
O2    C1    1.262796 A    
C39   C40   1.198830 T    
C35   N1    1.440346 S    
O5    Cr3   2.063438 S    
C36   C37   1.391471 A    
C33   H14   1.082782 S    
O14   C45   1.281088 A    
C29   C30   1.420189 A    
O16   Cr5   2.053786 S    
C2    C7    1.400645 S    
O20   Cr4   2.044807 S    
C11   C17   1.410181 A    
O25   Cr6   1.938126 S    
C35   C36   1.394532 A    
O3    Cr2   2.064681 S    
H12   C32   1.083284 S    
H6    C22   1.082788 S    
O23   C47   1.308901 A    
O19   C45   1.298572 A    
C10   C11   1.407469 A    
C3    C18   1.451992 S    
C19   C23   1.400007 A    
O10   C5    1.311246 A    
O20   C48   1.277617 A    
C47   O24   1.286741 A    
Cr3   O13   1.971158 S    
C31   C37   1.416096 A    
C5    O11   1.284885 A    
