data_str_m12_o9_o24_f0_bcu.sym.65
_audit_creation_date              2013-03-05T15:58:19-0500
_audit_creation_method            fapswitch 2.2
_symmetry_space_group_name_H-M    P1
_symmetry_Int_Tables_number       1
_space_group_crystal_system       triclinic
_cell_length_a                    14.795085
_cell_length_b                    14.881774
_cell_length_c                    15.156567
_cell_angle_alpha                 110.518423
_cell_angle_beta                  108.465813
_cell_angle_gamma                 108.631871
_cell_volume                      2593.12366199

loop_
_atom_site_label
_atom_site_type_symbol
_atom_site_description
_atom_site_fract_x
_atom_site_fract_y
_atom_site_fract_z
_atom_type_partial_charge
C1    C     C_R   0.911304 0.197101 0.998060 -0.102718
C2    C     C_R   0.023841 0.749534 0.936923 -0.101324
H1    H     H_    0.853628 0.170914 0.024864 0.122907
H2    H     H_    0.059484 0.763092 0.887853 0.100794
N1    N     N_R   0.947560 0.293820 0.002910 -0.040020
N2    N     N_R   0.052440 0.706180 0.997090 -0.037321
C3    C     C_R   0.292914 0.806105 0.202239 -0.098159
C4    C     C_R   0.685425 0.227893 0.777338 -0.054175
N3    N     N_R   0.208960 0.706170 0.152110 -0.060302
N4    N     N_R   0.791040 0.293830 0.847890 -0.056316
C5    C     C_R   0.223738 0.406968 0.975720 -0.155732
C6    C     C_R   0.786773 0.591391 0.093341 -0.154360
H3    H     H_    0.205183 0.322179 0.940672 0.124720
H4    H     H_    0.813997 0.675116 0.150945 0.114484
N5    N     N_R   0.154330 0.443160 0.946140 -0.045385
N6    N     N_R   0.845670 0.556840 0.053860 -0.044083
C7    C     C_R   0.051886 0.590187 0.313304 -0.146174
C8    C     C_R   0.000553 0.407175 0.699842 -0.164775
H5    H     H_    0.094951 0.674189 0.378248 0.101828
H6    H     H_    0.975517 0.322726 0.646409 0.104040
N7    N     N_R   0.002190 0.556820 0.208880 -0.042975
N8    N     N_R   0.997810 0.443180 0.791120 -0.043412
C9    C     C_R   0.313743 0.590555 0.068151 -0.073732
C10   C     C_R   0.697207 0.409268 0.001358 -0.123907
H7    H     H_    0.377588 0.674706 0.120040 0.094659
H8    H     H_    0.643624 0.326511 0.977086 0.127759
N9    N     N_R   0.210550 0.556810 0.002910 -0.022760
N10   N     N_R   0.789450 0.443190 0.997090 -0.041080
C11   C     C_R   0.967761 0.405651 0.218421 -0.106114
C12   C     C_R   0.087756 0.590275 0.787757 -0.090576
H9    H     H_    0.936428 0.320263 0.195506 0.108586
H10   H     H_    0.140375 0.674362 0.813506 0.131139
N11   N     N_R   0.945970 0.443180 0.152110 -0.038552
N12   N     N_R   0.054030 0.556820 0.847890 -0.037112
C13   C     C_R   0.206947 0.803887 0.298756 -0.133564
C14   C     C_R   0.779704 0.243334 0.687368 -0.109659
H11   H     H_    0.180701 0.829908 0.357610 0.107205
H12   H     H_    0.802029 0.234132 0.624876 0.118069
N13   N     N_R   0.151530 0.706170 0.208880 -0.048187
N14   N     N_R   0.848470 0.293830 0.791120 -0.049557
C15   C     C_R   0.999408 0.196167 0.903554 -0.141458
C16   C     C_R   0.926812 0.743085 0.023624 -0.136813
H13   H     H_    0.017512 0.167636 0.838694 0.119972
H14   H     H_    0.867003 0.742329 0.048955 0.132088
N15   N     N_R   0.004980 0.293810 0.946140 -0.045020
N16   N     N_R   0.995020 0.706190 0.053860 -0.047139
C17   C     C_R   0.942711 0.133370 0.935755 0.039595
C18   C     C_R   0.942710 0.772314 0.950393 0.037128
C19   C     C_R   0.295329 0.867681 0.295574 -0.024106
C20   C     C_R   0.676805 0.199665 0.676136 -0.043576
C21   C     C_R   0.323925 0.498298 0.052324 -0.007240
C22   C     C_R   0.694465 0.500126 0.060917 0.014940
C23   C     C_R   0.029029 0.495561 0.320027 0.043277
C24   C     C_R   0.054449 0.497302 0.694827 0.038043
H15   H     H_    0.321856 0.133582 0.827598 0.123791
H16   H     H_    0.740204 0.886795 0.256693 0.114830
C25   C     C_R   0.931901 0.857551 0.839276 -0.225596
C26   C     C_R   0.833416 0.962965 0.925136 -0.223234
C27   C     C_R   0.151929 0.013735 0.740337 -0.106838
C28   C     C_R   0.867461 0.946110 0.218765 -0.135255
H17   H     H_    0.151213 0.979394 0.664081 0.107760
H18   H     H_    0.930852 0.997016 0.301888 0.111980
Ni1   Ni    Ni4+2 0.869690 0.369690 0.000000 0.251946
Ni2   Ni    Ni4+2 0.130310 0.630310 0.000000 0.269816
Ni3   Ni    Ni4+2 0.001390 0.369680 0.869810 0.212595
Ni4   Ni    Ni4+2 0.998610 0.630320 0.130190 0.207473
C29   C     C_R   0.057025 0.969707 0.746793 -0.192756
C30   C     C_R   0.892304 0.942952 0.136543 -0.148605
H19   H     H_    0.324925 0.208015 0.003691 0.114120
H20   H     H_    0.595673 0.775133 0.068785 0.106153
H21   H     H_    0.553595 0.128173 0.068841 0.090423
H22   H     H_    0.509646 0.864992 0.984788 0.096459
C31   C     C_R   0.672361 0.298081 0.182665 -0.105353
C32   C     C_R   0.395534 0.692971 0.874242 -0.066510
H23   H     H_    0.621333 0.328423 0.149153 0.107704
H24   H     H_    0.430548 0.665730 0.926743 0.099944
C33   C     C_R   0.776290 0.371944 0.271433 -0.121871
C34   C     C_R   0.304144 0.615325 0.774011 -0.144819
H25   H     H_    0.804902 0.459260 0.305792 0.108785
H26   H     H_    0.270893 0.529367 0.750626 0.110974
C35   C     C_R   0.842960 0.332910 0.315364 0.110409
C36   C     C_R   0.253604 0.648690 0.706110 0.102086
C37   C     C_R   0.803363 0.219137 0.270433 -0.183686
C38   C     C_R   0.299104 0.760772 0.738213 -0.163240
H27   H     H_    0.853295 0.187577 0.303836 0.115655
H28   H     H_    0.261085 0.788396 0.687422 0.118638
C39   C     C_R   0.699562 0.145673 0.181406 -0.096345
C40   C     C_R   0.391812 0.838271 0.838174 -0.092216
H29   H     H_    0.669829 0.058211 0.146671 0.113902
H30   H     H_    0.425660 0.924618 0.863358 0.105218
C41   C     C_R   0.634111 0.185121 0.137522 -0.077087
C42   C     C_R   0.439400 0.804517 0.906587 -0.050685
C43   C     C_R   0.965848 0.410956 0.504261 -0.244523
C44   C     C_R   0.138452 0.565263 0.509734 -0.249340
H31   H     H_    0.896597 0.354197 0.502597 0.136398
H32   H     H_    0.205253 0.623468 0.509898 0.134539
C45   C     C_R   0.060841 0.490609 0.600879 0.065541
C46   C     C_R   0.040437 0.489135 0.414239 0.071079
C47   C     C_R   0.149947 0.567126 0.604850 0.025761
C48   C     C_R   0.952842 0.410430 0.410787 0.014374
H33   H     H_    0.984237 0.899450 0.675571 0.106920
H34   H     H_    0.974912 0.992641 0.156380 0.121093
H35   H     H_    0.157910 0.132128 0.015782 0.112134
H36   H     H_    0.638370 0.763998 0.920598 0.122274
C49   C     C_R   0.056760 0.014680 0.845128 0.122632
C50   C     C_R   0.810791 0.874682 0.028213 0.107605
C51   C     C_R   0.249898 0.142815 0.931643 -0.143552
C52   C     C_R   0.678316 0.819777 0.086462 -0.136286
H37   H     H_    0.092138 0.180781 0.359611 0.101930
H38   H     H_    0.936441 0.981583 0.568742 0.104571
C53   C     C_R   0.191040 0.121598 0.306491 -0.126922
C54   C     C_R   0.807435 0.966483 0.609891 -0.117776
H39   H     H_    0.165348 0.128460 0.234947 0.106323
H40   H     H_    0.834709 0.938506 0.664582 0.120038
C55   C     C_R   0.266253 0.084246 0.328915 -0.123787
C56   C     C_R   0.715012 0.979098 0.593702 -0.128770
H41   H     H_    0.299182 0.063878 0.274858 0.136404
H42   H     H_    0.672707 0.962472 0.637517 0.119192
C57   C     C_R   0.302782 0.078612 0.423406 0.117576
C58   C     C_R   0.677481 0.012817 0.520724 0.125963
C59   C     C_R   0.260731 0.107998 0.493556 -0.165800
C60   C     C_R   0.732801 0.033404 0.463986 -0.180716
H43   H     H_    0.288671 0.105064 0.567258 0.136440
H44   H     H_    0.704533 0.059651 0.407432 0.135069
C61   C     C_R   0.183921 0.143410 0.469769 -0.123908
C62   C     C_R   0.827210 0.024144 0.483201 -0.145736
H45   H     H_    0.151937 0.166300 0.524128 0.105881
H46   H     H_    0.871823 0.043529 0.442184 0.103764
C63   C     C_R   0.150134 0.151487 0.376986 -0.096334
C64   C     C_R   0.864111 0.989946 0.555479 -0.095090
C65   C     C_R   0.489924 0.133928 0.550046 -0.145151
C66   C     C_R   0.485331 0.948339 0.411543 -0.163243
H47   H     H_    0.494366 0.208073 0.603993 0.139557
H48   H     H_    0.483119 0.874947 0.358928 0.115503
C67   C     C_R   0.581344 0.118925 0.575212 0.080075
C68   C     C_R   0.392500 0.960774 0.387527 0.123017
C69   C     C_R   0.580837 0.027926 0.503453 -0.006505
C70   C     C_R   0.394172 0.055169 0.454620 -0.003360
C71   C     C_R   0.248247 0.100519 0.832645 -0.091933
C72   C     C_R   0.760307 0.884291 0.193548 -0.106306
C73   C     C_R   0.838203 0.879499 0.943896 0.016232
C74   C     C_R   0.959239 0.961989 0.854422 -0.002745
H49   H     H_    0.964640 0.812940 0.798360 0.124890
H50   H     H_    0.786903 0.998070 0.951763 0.137580
C75   C     C_R   0.154868 0.099915 0.938149 -0.136470
C76   C     C_R   0.702953 0.813979 0.003402 -0.175192
C77   C     C_R   0.894995 0.829170 0.904974 0.070256
C78   C     C_R   0.909189 0.017225 0.899962 0.052782
C79   C     C_3   0.493954 0.394580 0.022707 -0.181637
C80   C     C_3   0.535469 0.602901 0.125693 -0.164356
C81   C     C_3   0.436900 0.447318 0.972078 -0.130330
C82   C     C_3   0.593804 0.550189 0.176687 -0.142922
H51   H     H_    0.371549 0.405000 0.887504 0.113506
H52   H     H_    0.661195 0.592055 0.260061 0.110854
H53   H     H_    0.478805 0.309303 0.980357 0.106561
H54   H     H_    0.552582 0.688718 0.169953 0.104532
C83   C     C_3   0.426517 0.498894 0.072995 0.195798
C84   C     C_3   0.602286 0.498660 0.074862 0.189037
C85   C     C_3   0.482400 0.445912 0.124007 -0.167893
C86   C     C_3   0.545495 0.550968 0.024316 -0.149946
H55   H     H_    0.454194 0.403445 0.165034 0.113170
H56   H     H_    0.571816 0.590989 0.980832 0.118867
C87   C     C_2   0.347147 0.850784 0.148617 0.932745
O1    O     O_2   0.315880 0.793841 0.053089 -0.669199
O2    O     O_R   0.431656 0.958952 0.205908 -0.817819
H57   H     H_    0.461403 0.979581 0.160041 0.316076
C88   C     C_2   0.605637 0.167462 0.801909 0.941081
O3    O     O_2   0.508070 0.129463 0.745427 -0.682190
O4    O     O_R   0.642696 0.151159 0.889055 -0.826655
H58   H     H_    0.581014 0.107620 0.897714 0.306355

loop_
_geom_bond_atom_site_label_1
_geom_bond_atom_site_label_2
_geom_bond_distance
_ccdc_geom_bond_type
C10   C22   1.359173 A    
C37   C39   1.398139 A    
C16   H14   1.068832 S    
N6    N10   1.385749 A    
O2    H57   1.014069 S    
C80   C83   1.534794 S    
C39   C41   1.397751 A    
N7    Ni4   1.879681 S    
N3    Ni2   1.892173 S    
C31   H23   1.080537 S    
C36   C47   1.481341 S    
C2    H2    1.075924 S    
N4    Ni1   1.892174 S    
C54   H40   1.077350 S    
H19   C51   1.080394 S    
C88   O4    1.398201 S    
C12   C24   1.378251 A    
H35   C75   1.083329 S    
C32   H24   1.079391 S    
C25   C74   1.386110 A    
C1    N1    1.331305 A    
C81   C83   1.534090 S    
C28   H18   1.081293 S    
C13   H11   1.081571 S    
C10   H8    1.074412 S    
N16   Ni4   1.879136 S    
C65   C67   1.396650 A    
C20   C67   1.427218 S    
C79   C81   1.533784 S    
C16   N16   1.329412 A    
C51   C75   1.397305 A    
C26   C78   1.401040 A    
N7    N11   1.385628 A    
C44   C46   1.397303 A    
N2    Ni2   1.854181 S    
N5    Ni3   1.878317 S    
C18   C77   1.473185 S    
C11   N11   1.315006 A    
N3    N13   1.387604 A    
H15   C71   1.082022 S    
N1    Ni1   1.854182 S    
N4    N14   1.387605 A    
O4    H58   1.013663 S    
C32   C42   1.398834 A    
C36   C38   1.406471 A    
C27   C29   1.398051 A    
C5    N5    1.332909 A    
C53   C63   1.397942 A    
C49   C74   1.483150 S    
C9    C21   1.374551 A    
C40   C42   1.397090 A    
C55   H41   1.083345 S    
C13   C19   1.375611 A    
C85   H55   1.109779 S    
C24   C45   1.427714 S    
C30   H34   1.079273 S    
C9    N9    1.329120 A    
C79   C84   1.531558 S    
C8    H6    1.082363 S    
C66   C68   1.394984 A    
C57   C59   1.405600 A    
C82   C85   1.557472 S    
C83   C85   1.530347 S    
C80   H54   1.109210 S    
C81   H51   1.111073 S    
C84   C86   1.525483 S    
C15   H13   1.079486 S    
C2    N2    1.330172 A    
C30   C50   1.405647 A    
C6    N6    1.335181 A    
C45   C47   1.407383 A    
C58   C60   1.404853 A    
C11   C23   1.371057 A    
C52   C76   1.399924 A    
C33   H25   1.083233 S    
C22   C84   1.439418 S    
N8    N12   1.385627 A    
C82   C84   1.529767 S    
C27   H17   1.082505 S    
C12   N12   1.332283 A    
C73   C77   1.421757 A    
C74   C78   1.419672 A    
C14   N14   1.319934 A    
C31   C41   1.398159 A    
C68   C70   1.403041 A    
C88   O3    1.221727 D    
C52   C72   1.394210 A    
C62   C64   1.395228 A    
C25   H49   1.080323 S    
C29   C49   1.405489 A    
C2    C18   1.401481 A    
C66   C69   1.366399 A    
C3    C87   1.482380 S    
C21   C83   1.445806 S    
C7    N7    1.330689 A    
C56   C58   1.400582 A    
C1    H1    1.078505 S    
C86   H56   1.109192 S    
C60   C62   1.395805 A    
C13   N13   1.335868 A    
N8    Ni3   1.879682 S    
C59   C61   1.398381 A    
C4    C88   1.475095 S    
H36   C76   1.083116 S    
C34   C36   1.404558 A    
C43   C45   1.392717 A    
N5    N9    1.385750 A    
H16   C72   1.080845 S    
C27   C71   1.396587 A    
N11   Ni1   1.892219 S    
C49   C75   1.406088 A    
C3    N3    1.327247 A    
N12   Ni2   1.892220 S    
C15   C17   1.375999 A    
C53   H39   1.082616 S    
C16   C18   1.383809 A    
C15   N15   1.329353 A    
C44   H32   1.084898 S    
C79   C85   1.548417 S    
C43   C48   1.364861 A    
C3    C19   1.371315 A    
C80   C86   1.537973 S    
C28   C72   1.394092 A    
C4    N4    1.331990 A    
C37   H27   1.083576 S    
C19   C68   1.425867 S    
C40   H30   1.082392 S    
C55   C57   1.404640 A    
N14   Ni3   1.878939 S    
C25   C77   1.399991 A    
N15   Ni3   1.879136 S    
N13   Ni4   1.878941 S    
C80   C82   1.546825 S    
N6    Ni4   1.878314 S    
C60   H44   1.083603 S    
C7    C23   1.387764 A    
C54   C56   1.396077 A    
C14   C20   1.376626 A    
C29   H33   1.082172 S    
C50   C73   1.475377 S    
C67   C69   1.404540 A    
C17   C78   1.467055 S    
C62   H46   1.081385 S    
N2    N16   1.387482 A    
C87   O2    1.398161 S    
C8    N8    1.316249 A    
C57   C70   1.478396 S    
C1    C17   1.392454 A    
C10   N10   1.326712 A    
C82   H52   1.110012 S    
C65   H47   1.085149 S    
C35   C37   1.406724 A    
C35   C48   1.485960 S    
C23   C46   1.424787 S    
C6    C22   1.368590 A    
C46   C48   1.413612 A    
C50   C76   1.401383 A    
C81   C86   1.530382 S    
C14   H12   1.077558 S    
C79   H53   1.108545 S    
C11   H9    1.078191 S    
C65   C70   1.387532 A    
H20   C52   1.075563 S    
C12   H10   1.080265 S    
C5    H3    1.079864 S    
C26   C73   1.385555 A    
C43   H31   1.086076 S    
C38   C40   1.398121 A    
N1    N15   1.387481 A    
C44   C47   1.386234 A    
H22   C42   1.081277 S    
C7    H5    1.081100 S    
C56   H42   1.083303 S    
H38   C64   1.080488 S    
C4    C20   1.391280 A    
C34   H26   1.083328 S    
C26   H50   1.080382 S    
C9    H7    1.078043 S    
C51   C71   1.397528 A    
C59   H43   1.083427 S    
C87   O1    1.222114 D    
C5    C21   1.381560 A    
N9    Ni2   1.854208 S    
C8    C24   1.366402 A    
N10   Ni1   1.854206 S    
C61   C63   1.397680 A    
C6    H4    1.082095 S    
H21   C41   1.082512 S    
C28   C30   1.396601 A    
C66   H48   1.086273 S    
C33   C35   1.405335 A    
C32   C34   1.393265 A    
C61   H45   1.082581 S    
C39   H29   1.082528 S    
C31   C33   1.398388 A    
C38   H28   1.083205 S    
C53   C55   1.396741 A    
C58   C69   1.474167 S    
C54   C64   1.399297 A    
H37   C63   1.082598 S    
