data_str_m3_o22_o24_f0_pcu.sym.181
_audit_creation_date              2013-03-05T16:18:23-0500
_audit_creation_method            fapswitch 2.2
_symmetry_space_group_name_H-M    P1
_symmetry_Int_Tables_number       1
_space_group_crystal_system       triclinic
_cell_length_a                    10.61705
_cell_length_b                    9.756485
_cell_length_c                    10.503891
_cell_angle_alpha                 90.553345
_cell_angle_beta                  89.329995
_cell_angle_gamma                 90.040279
_cell_volume                      1087.92116613

loop_
_atom_site_label
_atom_site_type_symbol
_atom_site_description
_atom_site_fract_x
_atom_site_fract_y
_atom_site_fract_z
_atom_type_partial_charge
O1    O     O_R   0.314910 0.616040 0.499970 -0.615025
O2    O     O_R   0.314910 0.383960 0.499970 -0.615985
C1    C     C_R   0.257896 0.499952 0.495403 0.848899
O3    O     O_R   0.500080 0.616020 0.313900 -0.611570
O4    O     O_R   0.500080 0.383980 0.313900 -0.644830
C2    C     C_R   0.499956 0.499249 0.257394 0.906660
Zn1   Zn    Zn3+2 0.500150 0.654960 0.499940 0.970490
Zn2   Zn    Zn3+2 0.500150 0.345040 0.499940 0.952637
O5    O     O_R   0.685320 0.616040 0.499930 -0.631305
O6    O     O_R   0.685320 0.383960 0.499930 -0.644861
O7    O     O_R   0.500150 0.616060 0.686000 -0.588851
O8    O     O_R   0.500150 0.383940 0.686000 -0.579741
C3    C     C_R   0.742243 0.499995 0.493824 0.847195
C4    C     C_R   0.501302 0.500602 0.742489 0.924257
C5    C     C_3   0.406878 0.579942 0.043552 -0.205791
C6    C     C_3   0.483487 0.369410 0.038550 -0.143549
C7    C     C_3   0.390215 0.451923 0.957207 -0.088108
H1    H     H_    0.300185 0.413613 0.917488 0.177891
H2    H     H_    0.329805 0.644659 0.083621 0.169312
H3    H     H_    0.468269 0.263780 0.074034 0.176182
C8    C     C_3   0.502472 0.501446 0.877256 -0.061715
C9    C     C_3   0.519128 0.629820 0.960695 -0.154088
C10   C     C_3   0.595950 0.418405 0.955421 -0.222403
C11   C     C_3   0.609241 0.545473 0.040750 0.328380
C12   C     C_3   0.499859 0.497546 0.122591 -0.125482
H4    H     H_    0.538837 0.735462 0.928185 0.209928
H5    H     H_    0.673596 0.354557 0.915263 0.171590
C13   C     C_3   0.073080 0.630611 0.424545 -0.401536
C14   C     C_3   0.069713 0.497144 0.630285 -0.357811
H6    H     H_    0.109235 0.633468 0.324639 0.172720
H7    H     H_    0.104233 0.405106 0.680416 0.218391
H8    H     H_    0.106583 0.725064 0.473745 0.216976
H9    H     H_    0.102952 0.588189 0.684657 0.221847
C15   C     C_3   0.929209 0.631392 0.425391 -0.361252
C16   C     C_3   0.925453 0.495705 0.629710 -0.406151
H10   H     H_    0.895657 0.725115 0.476751 0.182751
H11   H     H_    0.888818 0.585571 0.684871 0.187233
H12   H     H_    0.894843 0.636400 0.325989 0.238422
H13   H     H_    0.890316 0.401483 0.677581 0.181905
H14   H     H_    0.110700 0.372743 0.318033 0.170250
H15   H     H_    0.105257 0.276234 0.462871 0.208437
H16   H     H_    0.895622 0.375412 0.315812 0.199664
H17   H     H_    0.893988 0.276362 0.459229 0.181371
C17   C     C_3   0.073046 0.372482 0.417431 -0.393461
C18   C     C_3   0.121385 0.500019 0.491901 0.153146
C19   C     C_3   0.878619 0.500054 0.491000 0.144892
C20   C     C_3   0.928962 0.373131 0.415907 -0.381895
C21   C     C_3   0.378963 0.081800 0.549844 0.225583
C22   C     C_3   0.378214 0.919318 0.548061 0.217445
H18   H     H_    0.302716 0.113125 0.483924 0.051554
H19   H     H_    0.303268 0.888901 0.479660 0.047744
H20   H     H_    0.434742 0.116339 0.305480 0.164986
H21   H     H_    0.438553 0.877979 0.303889 0.170813
C23   C     C_3   0.513130 0.080060 0.365922 -0.355918
C24   C     C_3   0.514782 0.917511 0.366096 -0.324073
C25   C     C_3   0.607662 0.081449 0.569035 -0.241672
C26   C     C_3   0.606467 0.920237 0.570781 -0.249666
N1    N     N_3   0.499750 0.138610 0.497240 -0.102913
N2    N     N_3   0.499750 0.861390 0.497240 -0.108184
H22   H     H_    0.697611 0.115865 0.524227 0.149281
H23   H     H_    0.696999 0.882380 0.529346 0.154690
H24   H     H_    0.611589 0.124023 0.666794 0.208786
H25   H     H_    0.606636 0.882483 0.669654 0.207763
H26   H     H_    0.601118 0.118891 0.320261 0.194254
H27   H     H_    0.604571 0.880217 0.322634 0.228929
N3    N     N_R   0.343950 0.141406 0.674728 0.258404
O9    O     O_R   0.418032 0.135653 0.772237 -0.368798
O10   O     O_R   0.229598 0.185623 0.692985 -0.428497
N4    N     N_R   0.339613 0.859906 0.670749 0.260312
O11   O     O_R   0.410208 0.868165 0.770665 -0.380764
O12   O     O_R   0.224757 0.815855 0.685224 -0.420124
N5    N     N_R   0.727620 0.597493 0.090497 0.188032
O13   O     O_R   0.832402 0.532706 0.066735 -0.432586
O14   O     O_R   0.729621 0.712697 0.153652 -0.441399

loop_
_geom_bond_atom_site_label_1
_geom_bond_atom_site_label_2
_geom_bond_distance
_ccdc_geom_bond_type
N3    O10   1.300217 A    
C24   N2    1.494041 S    
C16   H13   1.114072 S    
Zn1   O7    1.994460 S    
C4    C8    1.415728 S    
C16   H11   1.114060 S    
O4    C2    1.276701 A    
O7    C4    1.278374 A    
C5    C12   1.530757 S    
C2    C12   1.415907 S    
C14   H9    1.110958 S    
C25   C26   1.573189 S    
Zn1   O5    2.002554 S    
N4    O12   1.300400 A    
O5    C3    1.284470 A    
Zn2   N1    2.013960 S    
C19   C20   1.553546 S    
C5    C9    1.548442 S    
C6    C7    1.546920 S    
C22   H19   1.116385 S    
C10   C11   1.530175 S    
C15   C19   1.553328 S    
C10   H5    1.110437 S    
C17   C20   1.530039 S    
C6    H3    1.110357 S    
C9    C11   1.527386 S    
C21   H18   1.116120 S    
N3    O9    1.300322 A    
C13   C15   1.527427 S    
C22   N4    1.471887 S    
C8    C9    1.533041 S    
O3    Zn1   1.987136 S    
Zn1   N2    2.014514 S    
C24   H27   1.112058 S    
H20   C23   1.112703 S    
C26   H25   1.105307 S    
H21   C24   1.112555 S    
C13   C18   1.553634 S    
C13   H8    1.112408 S    
C11   C12   1.513258 S    
N5    O14   1.299908 A    
C1    C18   1.450247 S    
C7    C8    1.530629 S    
C25   H22   1.112818 S    
C14   C18   1.548137 S    
O1    C1    1.284595 A    
C15   H12   1.111577 S    
C5    H2    1.110382 S    
Zn2   O8    1.987264 S    
C7    H1    1.110516 S    
C21   N1    1.498469 S    
O3    C2    1.279525 A    
C21   C22   1.585203 S    
O8    C4    1.278609 A    
C6    C10   1.549039 S    
C8    C10   1.532485 S    
H15   C17   1.113320 S    
C25   H24   1.105184 S    
C17   C18   1.553471 S    
C11   N5    1.455893 S    
C23   N1    1.493127 S    
C6    C12   1.534380 S    
C5    C7    1.547728 S    
C23   C24   1.586031 S    
O1    Zn1   2.002759 S    
O2    Zn2   2.003282 S    
N5    O13   1.300339 A    
O6    C3    1.284731 A    
O4    Zn2   1.994340 S    
C26   H23   1.112358 S    
C14   C16   1.531746 S    
C22   N2    1.499495 S    
C13   H6    1.113774 S    
O2    C1    1.285339 A    
C14   H7    1.109982 S    
C3    C19   1.447865 S    
C23   H26   1.112997 S    
C25   N1    1.490501 S    
C15   H10   1.113783 S    
H16   C20   1.113719 S    
N4    O11   1.298618 A    
C26   N2    1.490319 S    
H14   C17   1.113636 S    
Zn2   O6    2.002030 S    
C9    H4    1.107952 S    
C21   N3    1.473525 S    
C16   C19   1.545979 S    
H17   C20   1.113634 S    
