data_str_m3_o4_o18_f0_pcu.sym.166
_audit_creation_date              2012-12-10T20:31:53-0500
_audit_creation_method            fapswitch 2.2
_symmetry_space_group_name_H-M    P1
_symmetry_Int_Tables_number       1
_space_group_crystal_system       triclinic
_cell_length_a                    9.876902
_cell_length_b                    10.665052
_cell_length_c                    15.544083
_cell_angle_alpha                 90.655379
_cell_angle_beta                  67.397326
_cell_angle_gamma                 89.67344
_cell_volume                      1511.42502237

loop_
_atom_site_label
_atom_site_type_symbol
_atom_type_description
_atom_site_fract_x
_atom_site_fract_y
_atom_site_fract_z
_atom_type_partial_charge
C1    C     C_R   0.500561 0.739738 0.499221 0.912034
C2    C     C_R   0.414271 0.511553 0.911587 -0.011962
C3    C     C_R   0.283219 0.581189 0.960212 0.116702
C4    C     C_R   0.523755 0.505312 0.949806 0.105852
C5    C     C_R   0.488491 0.545248 0.043130 0.070319
C6    C     C_R   0.352893 0.607494 0.091456 -0.216371
C7    C     C_R   0.253416 0.626830 0.049815 -0.189841
C8    C     C_R   0.670540 0.470835 0.895547 -0.102834
C9    C     C_R   0.776067 0.463051 0.934073 -0.208871
C10   C     C_R   0.736763 0.484625 0.029094 0.164739
C11   C     C_R   0.591742 0.524050 0.084449 0.095075
C12   C     C_R   0.408042 0.497138 0.675845 0.969995
C13   C     C_R   0.839046 0.464086 0.070243 -0.188373
C14   C     C_R   0.795541 0.474210 0.166800 -0.198323
C15   C     C_R   0.550938 0.532727 0.180666 -0.254459
C16   C     C_R   0.448303 0.935449 0.438878 0.097070
C17   C     C_R   0.507795 0.871464 0.493802 -0.055145
C18   C     C_R   0.589399 0.935424 0.536567 -0.197176
C19   C     C_R   0.589785 0.064649 0.536611 -0.145799
C20   C     C_R   0.507833 0.128360 0.494416 -0.091333
C21   C     C_R   0.446925 0.063552 0.440075 0.095977
C22   C     C_3   0.298049 0.070964 0.436594 -0.446563
C23   C     C_R   0.500743 0.260257 0.499695 0.918223
C24   C     C_3   0.300643 0.928535 0.433941 -0.444604
C25   C     C_R   0.898919 0.590728 0.547674 0.123874
C26   C     C_R   0.961068 0.417100 0.446454 -0.091305
C27   C     C_R   0.104807 0.416896 0.446587 -0.111613
C28   C     C_R   0.041887 0.592082 0.547584 0.095152
C29   C     C_3   0.979814 0.616390 0.651249 0.193855
C30   C     C_3   0.827411 0.614081 0.649357 -0.540258
C31   C     C_R   0.591938 0.501131 0.323917 0.850477
C32   C     C_R   0.348685 0.504099 0.777188 -0.178815
C33   C     C_R   0.649534 0.504598 0.222246 -0.054525
C34   C     C_R   0.184924 0.607618 0.917530 -0.194484
C35   C     C_R   0.221330 0.574426 0.824754 -0.207472
C36   C     C_R   0.431597 0.455792 0.825064 0.334314
H1    H     H_    0.153249 0.679252 0.087638 0.149997
H2    H     H_    0.950708 0.435455 0.028235 0.159809
H3    H     H_    0.645101 0.886259 0.574391 0.175811
H4    H     H_    0.645925 0.114194 0.574267 0.218354
H5    H     H_    0.213685 0.111211 0.501550 0.244199
H6    H     H_    0.300766 0.112883 0.370819 0.189345
H7    H     H_    0.306022 0.888162 0.366439 0.187750
H8    H     H_    0.932583 0.348508 0.404580 0.136514
H9    H     H_    0.184643 0.348161 0.404809 0.143428
H10   H     H_    0.001504 0.538238 0.691141 0.106952
H11   H     H_    0.438804 0.553021 0.225400 0.158035
H12   H     H_    0.762541 0.532777 0.685125 0.220210
H13   H     H_    0.765593 0.704447 0.665877 0.231820
H14   H     H_    0.873750 0.453240 0.198105 0.158734
H15   H     H_    0.887331 0.435670 0.889959 0.160675
H16   H     H_    0.085362 0.661547 0.953729 0.176543
H17   H     H_    0.152398 0.606377 0.789619 0.224403
H18   H     H_    0.324419 0.649841 0.159580 0.141857
H19   H     H_    0.706901 0.452458 0.822311 0.181941
N1    N     N_R   0.856900 0.500860 0.500610 -0.081805
N2    N     N_R   0.142540 0.500820 0.500610 -0.117515
O1    O     O_R   0.385310 0.683210 0.499990 -0.584008
O2    O     O_R   0.614650 0.683240 0.500000 -0.638374
O3    O     O_R   0.319830 0.499970 0.632240 -0.607421
O4    O     O_R   0.549170 0.500000 0.632250 -0.586222
O5    O     O_R   0.385350 0.316760 0.500000 -0.618825
O6    O     O_R   0.614690 0.316790 0.500010 -0.608058
O7    O     O_R   0.450830 0.500000 0.367750 -0.627186
O8    O     O_R   0.680170 0.500030 0.367760 -0.624301
Zn1   Zn    Zn3+2 0.346870 0.499980 0.499990 0.977322
Zn2   Zn    Zn3+2 0.653130 0.500020 0.500010 0.980350
H20   H     H_    0.218048 0.886108 0.496637 0.262945
S1    S     S_3+6 0.019624 0.768331 0.686388 0.024355
O9    O     O_2   0.941493 0.780451 0.790311 -0.262282
O10   O     O_2   0.181301 0.781250 0.661991 -0.295670
O11   O     O_3   0.960256 0.884722 0.636820 -0.516958
H21   H     H_    0.967913 0.851604 0.575376 0.317523
S2    S     S_3+6 0.508909 0.302276 0.792352 0.001387
O12   O     O_2   0.408617 0.225981 0.760673 -0.293172
O13   O     O_2   0.656412 0.308212 0.713508 -0.339672
O14   O     O_3   0.526173 0.231084 0.883680 -0.542220
H22   H     H_    0.573741 0.149226 0.858707 0.399901

loop_
_geom_bond_atom_site_label_1
_geom_bond_atom_site_label_2
_ccdc_geom_bond_type
C16   C21   A    
C35   H17   S    
C19   C20   A    
C9    H15   S    
C25   N1    A    
C15   H11   S    
N2    Zn1   S    
C4    C8    A    
C14   C33   A    
C26   H8    S    
C14   H14   S    
O14   H22   S    
C25   C28   A    
C26   C27   A    
S2    O13   D    
C32   C36   A    
C30   H12   S    
C28   C29   S    
C5    C11   A    
C3    C7    A    
C1    O2    A    
C5    C6    A    
C22   H5    S    
C16   C17   A    
C18   C19   A    
C34   C35   A    
S1    O10   D    
O2    Zn2   S    
C11   C15   A    
O1    Zn1   S    
C23   O5    A    
C8    C9    A    
O8    Zn2   S    
S2    O14   S    
C31   C33   S    
C9    C10   A    
C27   H9    S    
C23   O6    A    
O3    Zn1   S    
C16   C24   S    
C13   C14   A    
C12   C32   S    
C6    H18   S    
C8    H19   S    
C29   S1    S    
C19   H4    S    
O6    Zn2   S    
S2    O12   D    
O5    Zn1   S    
C32   C35   A    
C27   N2    A    
O11   H21   S    
C3    C34   A    
C28   N2    A    
O7    Zn1   S    
S1    O11   S    
C2    C4    A    
C18   H3    S    
C29   C30   S    
O4    Zn2   S    
C20   C23   S    
C17   C18   A    
C7    H1    S    
C13   H2    S    
C36   S2    S    
C30   H13   S    
C22   C24   S    
C2    C36   A    
C25   C30   S    
C31   O8    A    
C34   H16   S    
C31   O7    A    
C4    C5    A    
C10   C13   A    
C26   N1    A    
C6    C7    A    
N1    Zn2   S    
C1    C17   S    
C29   H10   S    
C2    C3    A    
C1    O1    A    
C12   O4    A    
C22   H6    S    
S1    O9    D    
C10   C11   A    
C24   H20   S    
C12   O3    A    
C20   C21   A    
C24   H7    S    
C21   C22   S    
C15   C33   A    
