data_str_m4_o5_o14_f0_acs.sym.100
_audit_creation_date              2012-12-11T15:59:24-0500
_audit_creation_method            fapswitch 2.2
_symmetry_space_group_name_H-M    P1
_symmetry_Int_Tables_number       1
_space_group_crystal_system       triclinic
_cell_length_a                    10.752474
_cell_length_b                    10.719057
_cell_length_c                    17.087924
_cell_angle_alpha                 99.900959
_cell_angle_beta                  99.687167
_cell_angle_gamma                 60.218534
_cell_volume                      1675.98808942

loop_
_atom_site_label
_atom_site_type_symbol
_atom_type_description
_atom_site_fract_x
_atom_site_fract_y
_atom_site_fract_z
_atom_type_partial_charge
C1    C     C_R   0.354501 0.777747 0.401815 0.537267
C2    C     C_R   0.852127 0.317935 0.331257 0.006272
C3    C     C_R   0.317475 0.862353 0.168916 0.009244
C4    C     C_R   0.398831 0.368092 0.353927 0.569919
C5    C     C_R   0.453140 0.814456 0.212467 0.018312
C6    C     C_R   0.461277 0.821960 0.296304 0.031744
C7    C     C_R   0.204680 0.898989 0.287948 -0.156130
C8    C     C_R   0.194000 0.908431 0.208089 -0.141541
C9    C     C_R   0.580318 0.758847 0.174889 -0.087909
C10   C     C_R   0.710975 0.725200 0.220049 -0.136480
C11   C     C_R   0.716692 0.749445 0.302877 -0.132955
C12   C     C_R   0.808290 0.238933 0.191735 0.011187
C13   C     C_R   0.592883 0.800242 0.340798 -0.055894
C14   C     C_R   0.338202 0.847066 0.331732 0.000865
C15   C     C_R   0.298056 0.275450 0.798681 -0.002123
C16   C     C_R   0.780492 0.372299 0.404759 0.545533
C17   C     C_R   0.427343 0.176155 0.763206 -0.090143
C18   C     C_R   0.478332 0.226830 0.713018 -0.052882
C19   C     C_R   0.243400 0.443653 0.704197 -0.083964
C20   C     C_R   0.204828 0.407489 0.766869 0.371207
C21   C     C_R   0.511296 0.029908 0.779470 -0.121045
C22   C     C_R   0.651727 0.945711 0.758574 0.443451
C23   C     C_R   0.823226 0.221128 0.273296 -0.030495
C24   C     C_R   0.711245 0.006122 0.721383 0.423324
C25   C     C_R   0.625494 0.145419 0.698847 -0.111379
C26   C     C_R   0.379087 0.353858 0.676216 -0.053014
C27   C     C_1   0.845821 0.328827 0.705584 0.004723
C28   C     C_R   0.357742 0.769476 0.627383 0.543325
C29   C     C_1   0.892521 0.293617 0.772080 0.010211
C30   C     C_1   0.338772 0.809674 0.709405 -0.020187
C31   C     C_1   0.313213 0.837141 0.777507 -0.019400
C32   C     C_R   0.897016 0.308823 0.089763 0.599562
C33   C     C_R   0.296963 0.268736 0.124584 0.552684
C34   C     C_R   0.910988 0.394719 0.309113 -0.139104
C35   C     C_R   0.291462 0.895842 0.087142 0.531635
C36   C     C_R   0.942910 0.273098 0.854368 0.536821
C37   C     C_R   0.278837 0.252055 0.876866 0.538660
C38   C     C_R   0.279374 0.884188 0.857343 0.542349
C39   C     C_R   0.407047 0.375785 0.600258 0.548675
C40   C     C_R   0.777526 0.378392 0.629148 0.544652
C41   C     C_1   0.355188 0.341810 0.273277 -0.029040
C42   C     C_1   0.324120 0.312528 0.205116 -0.036410
C43   C     C_R   0.860995 0.323992 0.170119 0.017118
C44   C     C_R   0.920523 0.392942 0.229586 -0.164199
C45   C     C_R   0.746668 0.166484 0.135169 0.403158
C46   C     C_R   0.725270 0.060536 0.157997 -0.058120
C47   C     C_R   0.758715 0.030116 0.236831 -0.199274
C48   C     C_R   0.807027 0.108784 0.294109 -0.122180
Cr1   Cr    Cr6+3 0.608100 0.610860 0.522250 1.058409
Cr2   Cr    Cr6+3 0.288890 0.599990 0.488420 1.036498
Cr3   Cr    Cr6+3 0.603040 0.289190 0.489390 1.013677
Cr4   Cr    Cr6+3 0.053960 0.052250 0.967380 1.120750
Cr5   Cr    Cr6+3 0.059890 0.373160 0.992710 1.097404
Cr6   Cr    Cr6+3 0.373370 0.061690 0.991710 1.042481
F1    F     F_    0.076126 0.501169 0.795647 -0.557396
F2    F     F_    0.731304 0.807474 0.777192 -0.545366
F3    F     F_    0.850565 0.928647 0.704810 -0.586967
F4    F     F_    0.701387 0.201182 0.058986 -0.600335
H1    H     H_    0.943513 0.461490 0.353057 0.142038
H2    H     H_    0.836309 0.076893 0.354021 0.150171
H3    H     H_    0.086835 0.951479 0.176949 0.153559
H4    H     H_    0.470019 0.980388 0.809391 0.166724
H5    H     H_    0.109321 0.923604 0.314471 0.138107
H6    H     H_    0.580580 0.739289 0.110691 0.145565
H7    H     H_    0.806848 0.687063 0.190505 0.122911
H8    H     H_    0.817037 0.731242 0.337754 0.107826
H9    H     H_    0.601437 0.826198 0.404727 0.147170
H10   H     H_    0.166804 0.542020 0.677547 0.195158
H11   H     H_    0.674936 0.188122 0.669899 0.169962
H12   H     H_    0.974388 0.447230 0.214800 0.133595
H13   H     H_    0.683814 0.000833 0.114392 0.159712
H14   H     H_    0.744514 0.947749 0.254604 0.140554
O1    O     O_R   0.749810 0.499790 0.438040 -0.511238
O2    O     O_R   0.411730 0.181020 0.091530 -0.477654
O3    O     O_R   0.365010 0.944360 0.063320 -0.528289
O4    O     O_R   0.477660 0.726260 0.439290 -0.513814
O5    O     O_R   0.159380 0.906670 0.876210 -0.452676
O6    O     O_R   0.930820 0.177420 0.886730 -0.459217
O7    O     O_R   0.910360 0.395420 0.895720 -0.447586
O8    O     O_R   0.186010 0.361730 0.919870 -0.415297
O9    O     O_R   0.400000 0.173010 0.914630 -0.476754
O10   O     O_R   0.354140 0.936940 0.899340 -0.539445
O11   O     O_3   0.162410 0.162370 0.983930 -0.345469
O12   O     O_R   0.298970 0.468800 0.557390 -0.489285
O13   O     O_R   0.260150 0.743000 0.412270 -0.522458
O14   O     O_R   0.297740 0.466550 0.394720 -0.492907
O15   O     O_R   0.488080 0.253500 0.386430 -0.502029
O16   O     O_R   0.722670 0.303800 0.421940 -0.522146
O17   O     O_R   0.751130 0.502220 0.613520 -0.445696
O18   O     O_R   0.478890 0.728510 0.601960 -0.482646
O19   O     O_R   0.261470 0.745430 0.587750 -0.502897
O20   O     O_R   0.489400 0.255930 0.561910 -0.506680
O21   O     O_R   0.723890 0.306050 0.584610 -0.541785
O22   O     O_3   0.500010 0.500010 0.500020 -0.287988
O23   O     O_R   0.171100 0.914680 0.053100 -0.506487
O24   O     O_R   0.941680 0.184840 0.050710 -0.446219
O25   O     O_R   0.922080 0.403420 0.072610 -0.544229
O26   O     O_R   0.196880 0.369150 0.083850 -0.489347

loop_
_geom_bond_atom_site_label_1
_geom_bond_atom_site_label_2
_ccdc_geom_bond_type
C27   C29   T    
C9    H6    S    
C41   C42   T    
C19   C20   A    
C18   C26   A    
Cr1   O18   S    
Cr2   O12   S    
C7    C8    A    
C4    O15   A    
C45   C46   A    
C29   C36   S    
C35   O3    A    
C33   C42   S    
Cr5   O7    S    
C39   O12   A    
C12   C43   A    
C30   C31   T    
C26   C39   S    
C4    O14   A    
C4    C41   S    
C32   O25   A    
Cr4   O23   S    
C33   O26   A    
C19   C26   A    
C15   C37   S    
Cr2   O13   S    
Cr6   O2    S    
C7    C14   A    
C24   F3    S    
C44   H12   S    
Cr1   O22   S    
C2    C16   S    
C9    C10   A    
C40   O21   A    
C11   H8    S    
C8    H3    S    
C2    C34   A    
C21   C22   A    
C38   O10   A    
C37   O9    A    
C18   C25   A    
C20   F1    S    
Cr4   O6    S    
Cr6   O11   S    
C48   H2    S    
C1    O13   A    
C15   C20   A    
C37   O8    A    
C45   F4    S    
C16   O1    A    
Cr5   O8    S    
C34   C44   A    
C24   C25   A    
C3    C8    A    
Cr3   O15   S    
Cr2   O22   S    
C22   F2    S    
Cr5   O25   S    
C17   C21   A    
Cr4   O11   S    
C43   C44   A    
C5    C9    A    
Cr3   O20   S    
C6    C14   A    
C33   O2    A    
C47   C48   A    
C12   C23   A    
C3    C35   S    
C27   C40   S    
C17   C18   A    
C21   H4    S    
Cr1   O4    S    
C19   H10   S    
C7    H5    S    
C46   H13   S    
Cr3   O21   S    
C32   O24   A    
C34   H1    S    
C40   O17   A    
Cr1   O1    S    
C25   H11   S    
Cr4   O5    S    
C39   O20   A    
Cr6   O10   S    
C13   H9    S    
C10   H7    S    
C15   C17   A    
C46   C47   A    
C23   C48   A    
C1    O4    A    
Cr1   O17   S    
C12   C45   A    
C3    C5    A    
C36   O7    A    
Cr3   O16   S    
C38   O5    A    
C35   O23   A    
Cr5   O26   S    
C31   C38   S    
Cr5   O11   S    
C28   C30   S    
C36   O6    A    
C6    C13   A    
C11   C13   A    
C5    C6    A    
C32   C43   S    
Cr4   O24   S    
C28   O19   A    
C22   C24   A    
C47   H14   S    
C10   C11   A    
Cr2   O14   S    
Cr3   O22   S    
Cr6   O3    S    
Cr2   O19   S    
C2    C23   A    
C16   O16   A    
C28   O18   A    
C1    C14   S    
Cr6   O9    S    
