data_str_m4_o4_o15_f0_acs.sym.130
_audit_creation_date              2012-12-11T15:44:49-0500
_audit_creation_method            fapswitch 2.2
_symmetry_space_group_name_H-M    P1
_symmetry_Int_Tables_number       1
_space_group_crystal_system       triclinic
_cell_length_a                    19.066838
_cell_length_b                    10.942084
_cell_length_c                    18.752876
_cell_angle_alpha                 90.171726
_cell_angle_beta                  90.268256
_cell_angle_gamma                 89.997249
_cell_volume                      3912.36974764

loop_
_atom_site_label
_atom_site_type_symbol
_atom_type_description
_atom_site_fract_x
_atom_site_fract_y
_atom_site_fract_z
_atom_type_partial_charge
C1    C     C_R   0.760465 0.534871 0.646590 0.572140
C2    C     C_R   0.239258 0.534678 0.353182 0.557681
C3    C     C_R   0.259629 0.035865 0.646676 0.558484
C4    C     C_R   0.738376 0.029269 0.355399 0.543887
C5    C     C_R   0.783217 0.984953 0.546173 -0.150024
C6    C     C_R   0.161673 0.107678 0.478691 -0.124135
C7    C     C_R   0.234882 0.536526 0.550491 -0.130318
C8    C     C_R   0.663901 0.626928 0.482081 -0.117886
C9    C     C_R   0.782331 0.972912 0.472937 -0.151358
C10   C     C_R   0.173095 0.080153 0.550602 -0.166452
C11   C     C_R   0.219579 0.508026 0.479743 -0.135314
C12   C     C_R   0.675669 0.602982 0.554392 -0.165162
C13   C     C_3   0.710441 0.281769 0.447113 0.241756
C14   C     C_3   0.359900 0.190578 0.539005 0.239217
C15   C     C_3   0.297260 0.799902 0.418067 0.239697
C16   C     C_3   0.869542 0.599803 0.523977 0.248754
C17   C     C_3   0.714589 0.300060 0.526870 -0.189356
C18   C     C_3   0.347082 0.218522 0.460605 -0.207133
C19   C     C_3   0.311689 0.832907 0.495279 -0.201250
C20   C     C_3   0.856464 0.629953 0.446117 -0.205784
C21   C     C_R   0.750769 0.085791 0.576987 0.008051
C22   C     C_R   0.214459 0.164474 0.438762 0.021499
C23   C     C_R   0.276637 0.638360 0.566097 0.037128
C24   C     C_R   0.720232 0.654745 0.437296 0.027946
C25   C     C_R   0.007218 0.347790 0.430475 -0.016795
C26   C     C_R   0.011793 0.328544 0.580424 -0.013577
C27   C     C_R   0.500926 0.845987 0.427563 -0.059331
C28   C     C_R   0.508275 0.830885 0.577797 -0.037782
C29   C     C_R   0.966408 0.133790 0.423223 -0.088788
C30   C     C_R   0.992411 0.105142 0.568283 -0.081672
C31   C     C_R   0.468832 0.628731 0.421620 -0.090653
C32   C     C_R   0.492823 0.606081 0.567470 -0.087162
C33   C     C_R   0.957838 0.019787 0.454878 -0.124308
C34   C     C_R   0.972436 0.004839 0.526945 -0.131985
C35   C     C_R   0.464308 0.514976 0.453834 -0.099998
C36   C     C_R   0.477278 0.503236 0.526439 -0.120578
C37   C     C_R   0.998353 0.223107 0.538031 0.024881
C38   C     C_R   0.990832 0.235187 0.463296 0.011152
C39   C     C_R   0.496250 0.723606 0.536351 -0.005931
C40   C     C_R   0.488662 0.733089 0.461325 -0.026962
C41   C     C_R   0.035632 0.435710 0.547850 0.029552
C42   C     C_R   0.023593 0.452452 0.474469 0.056102
C43   C     C_R   0.526738 0.939959 0.543242 0.049708
C44   C     C_R   0.510992 0.952959 0.470420 0.045234
C45   C     C_R   0.772967 0.125627 0.646332 0.555872
C46   C     C_R   0.207656 0.173716 0.360890 0.580101
C47   C     C_R   0.291406 0.670674 0.638839 0.568287
C48   C     C_R   0.708868 0.671087 0.361138 0.563769
C49   C     C_R   0.065596 0.531095 0.589033 -0.096712
C50   C     C_R   0.027305 0.574948 0.448906 -0.065908
C51   C     C_R   0.552980 0.041416 0.581938 -0.043697
C52   C     C_R   0.505537 0.073732 0.443365 -0.019007
C53   C     C_R   0.075476 0.646737 0.560280 -0.119100
C54   C     C_R   0.054163 0.669601 0.490865 -0.131908
C55   C     C_R   0.550608 0.158111 0.553023 -0.074287
C56   C     C_R   0.525794 0.174410 0.484090 -0.057826
C57   C     C_R   0.745652 0.059775 0.071679 0.020517
C58   C     C_R   0.257746 0.050812 0.930774 0.020254
C59   C     C_R   0.242949 0.552469 0.069740 0.020111
C60   C     C_R   0.754584 0.559343 0.928562 0.022206
C61   C     C_R   0.790166 0.986047 0.031304 0.044403
C62   C     C_R   0.211154 0.980092 0.970261 0.042317
C63   C     C_R   0.287626 0.479024 0.029347 0.041553
C64   C     C_R   0.708822 0.487285 0.968248 0.045619
C65   C     C_R   0.792685 0.994739 0.958197 0.018691
C66   C     C_R   0.208086 0.988497 0.043353 0.023570
C67   C     C_R   0.290385 0.487968 0.956261 0.020462
C68   C     C_R   0.706129 0.495466 0.041348 0.020896
C69   C     C_R   0.699207 0.142976 0.961395 -0.162645
C70   C     C_R   0.306884 0.125297 0.042577 -0.151361
C71   C     C_R   0.195186 0.632307 0.958929 -0.151358
C72   C     C_R   0.802167 0.638641 0.039600 -0.162210
C73   C     C_R   0.697241 0.134313 0.035888 -0.166714
C74   C     C_R   0.309787 0.116127 0.967981 -0.150820
C75   C     C_R   0.192588 0.622579 0.033462 -0.150121
C76   C     C_R   0.804181 0.630810 0.965059 -0.165037
C77   C     C_3   0.867670 0.972709 0.038640 -0.270450
C78   C     C_3   0.133733 0.968004 0.961992 -0.272985
C79   C     C_3   0.364796 0.461495 0.036776 -0.269317
C80   C     C_3   0.631204 0.477125 0.960408 -0.274094
C81   C     C_3   0.870717 0.979215 0.958459 -0.269975
C82   C     C_3   0.130016 0.973267 0.042340 -0.269074
C83   C     C_3   0.368019 0.467126 0.956411 -0.270100
C84   C     C_3   0.627873 0.483509 0.040611 -0.269157
C85   C     C_R   0.750874 0.080076 0.922360 0.013996
C86   C     C_R   0.250999 0.071782 0.079967 0.015605
C87   C     C_R   0.249071 0.574287 0.920507 0.013687
C88   C     C_R   0.749117 0.578494 0.077888 0.014115
C89   C     C_R   0.974012 0.343969 0.648757 0.577102
C90   C     C_R   0.030300 0.348004 0.354823 0.507015
C91   C     C_R   0.473373 0.844310 0.648014 0.541135
C92   C     C_R   0.528406 0.847448 0.353546 0.512930
C93   C     C_R   0.016237 0.342534 0.069383 0.020888
C94   C     C_R   0.008077 0.339690 0.920415 0.018528
C95   C     C_R   0.492135 0.840078 0.079396 0.018004
C96   C     C_R   0.484050 0.842594 0.930457 0.022375
C97   C     C_R   0.030617 0.447292 0.029784 0.049367
C98   C     C_R   0.026915 0.446803 0.956782 0.027155
C99   C     C_R   0.474900 0.947838 0.043089 0.029155
C100  C     C_R   0.471235 0.948143 0.970109 0.049544
C101  C     C_R   0.007467 0.229402 0.958472 -0.169214
C102  C     C_R   0.008678 0.231294 0.033018 -0.171961
C103  C     C_R   0.489942 0.731164 0.966703 -0.169849
C104  C     C_R   0.491276 0.729563 0.041257 -0.170405
C105  C     C_3   0.999640 0.571857 0.036419 -0.272514
C106  C     C_3   0.996453 0.573323 0.955958 -0.270586
C107  C     C_3   0.507527 0.072808 0.043950 -0.268636
C108  C     C_3   0.504217 0.071030 0.963518 -0.276529
C109  C     C_R   0.761241 0.529781 0.853428 0.539142
C110  C     C_R   0.238058 0.527228 0.145665 0.550917
C111  C     C_R   0.262177 0.026696 0.854609 0.542107
C112  C     C_R   0.738822 0.029799 0.146669 0.546853
C113  C     C_R   0.772268 0.125499 0.852877 0.546523
C114  C     C_R   0.228186 0.123649 0.147768 0.562657
C115  C     C_R   0.271884 0.624269 0.852399 0.554885
C116  C     C_R   0.727773 0.625031 0.147242 0.557415
C117  C     C_R   0.971638 0.346987 0.852619 0.540910
C118  C     C_R   0.031975 0.347097 0.144816 0.545355
C119  C     C_R   0.468061 0.847218 0.855128 0.538713
C120  C     C_R   0.528418 0.846896 0.147320 0.546946
C121  C     C_R   0.745626 0.056913 0.429773 -0.009121
C122  C     C_R   0.238187 0.107186 0.583679 0.016538
C123  C     C_R   0.247987 0.578591 0.424582 0.083696
C124  C     C_R   0.744417 0.602970 0.582031 0.019706
C125  C     C_R   0.705974 0.147870 0.461224 0.068812
C126  C     C_R   0.282499 0.187778 0.547963 0.023742
C127  C     C_R   0.296911 0.668997 0.440477 0.013208
C128  C     C_R   0.798015 0.648488 0.539337 0.006922
C129  C     C_R   0.710315 0.164245 0.534155 -0.047699
C130  C     C_R   0.270941 0.214865 0.476643 -0.046856
C131  C     C_R   0.310278 0.699639 0.510904 -0.066457
C132  C     C_R   0.785952 0.673980 0.468380 -0.051423
Cr1   Cr    Cr6+3 0.885860 0.491680 0.749630 1.024454
Cr2   Cr    Cr6+3 0.114140 0.491680 0.250370 1.025757
Cr3   Cr    Cr6+3 0.385860 0.991680 0.749630 1.036588
Cr4   Cr    Cr6+3 0.614140 0.991680 0.250370 1.033708
Cr5   Cr    Cr6+3 0.730490 0.332970 0.748720 1.001383
Cr6   Cr    Cr6+3 0.269510 0.332970 0.251280 1.003540
Cr7   Cr    Cr6+3 0.230490 0.832970 0.748720 0.995025
Cr8   Cr    Cr6+3 0.769510 0.832970 0.251280 1.000135
Cr9   Cr    Cr6+3 0.887570 0.179310 0.750150 1.004133
Cr10  Cr    Cr6+3 0.112430 0.179310 0.249850 1.017678
Cr11  Cr    Cr6+3 0.387570 0.679310 0.750150 0.994868
Cr12  Cr    Cr6+3 0.612430 0.679310 0.249850 1.025084
H1    H     H_    0.814973 0.922825 0.577582 0.127700
H2    H     H_    0.114309 0.074720 0.453161 0.163198
H3    H     H_    0.212740 0.481786 0.592822 0.123197
H4    H     H_    0.612071 0.614920 0.460057 0.171476
H5    H     H_    0.097275 0.719595 0.592666 0.132123
H6    H     H_    0.057546 0.761309 0.469623 0.134316
H7    H     H_    0.566524 0.236048 0.584791 0.095142
H8    H     H_    0.521825 0.265148 0.462045 0.147510
H9    H     H_    0.664469 0.206294 0.935086 0.128869
H10   H     H_    0.344308 0.182260 0.070174 0.121854
H11   H     H_    0.159385 0.693239 0.932262 0.123167
H12   H     H_    0.838004 0.699421 0.066607 0.126514
H13   H     H_    0.660034 0.188835 0.065482 0.117849
H14   H     H_    0.350311 0.163965 0.939387 0.119648
H15   H     H_    0.153803 0.673792 0.062783 0.120308
H16   H     H_    0.842280 0.683828 0.935980 0.113886
H17   H     H_    0.884333 0.883241 0.060176 0.133312
H18   H     H_    0.116836 0.879200 0.939467 0.130089
H19   H     H_    0.379698 0.371423 0.058589 0.131841
H20   H     H_    0.613519 0.388293 0.938370 0.132508
H21   H     H_    0.891772 0.052743 0.065803 0.134885
H22   H     H_    0.110492 0.048827 0.935256 0.138451
H23   H     H_    0.390228 0.540320 0.063778 0.139294
H24   H     H_    0.608293 0.558228 0.933513 0.133527
H25   H     H_    0.897978 0.061839 0.939889 0.167501
H26   H     H_    0.102327 0.055003 0.061704 0.168941
H27   H     H_    0.397713 0.546730 0.937333 0.168601
H28   H     H_    0.601837 0.567426 0.059451 0.166556
H29   H     H_    0.887566 0.892383 0.932919 0.124408
H30   H     H_    0.113063 0.885863 0.066829 0.125623
H31   H     H_    0.382584 0.378736 0.931244 0.122578
H32   H     H_    0.609603 0.397342 0.065626 0.129025
H33   H     H_    0.999706 0.143734 0.931024 0.115974
H34   H     H_    0.001478 0.147352 0.062160 0.112489
H35   H     H_    0.495962 0.646784 0.937442 0.112941
H36   H     H_    0.498107 0.643776 0.068586 0.115695
H37   H     H_    0.036581 0.639939 0.059091 0.134188
H38   H     H_    0.942004 0.576463 0.935786 0.168830
H39   H     H_    0.562067 0.073118 0.064017 0.169849
H40   H     H_    0.468386 0.140869 0.941016 0.131898
H41   H     H_    0.947210 0.570331 0.061995 0.137662
H42   H     H_    0.032504 0.641156 0.931764 0.121615
H43   H     H_    0.472723 0.142719 0.068285 0.123735
H44   H     H_    0.556569 0.066694 0.937861 0.136659
H45   H     H_    0.812707 0.899921 0.449875 0.145682
H46   H     H_    0.134213 0.024672 0.577125 0.139717
H47   H     H_    0.185613 0.431133 0.467943 0.106202
H48   H     H_    0.632509 0.571157 0.586499 0.127487
H49   H     H_    0.758448 0.309848 0.417921 0.130499
H50   H     H_    0.385486 0.265433 0.569556 0.110436
H51   H     H_    0.340717 0.822643 0.381104 0.111622
H52   H     H_    0.912051 0.653843 0.549678 0.122517
H53   H     H_    0.765986 0.336852 0.544785 0.179185
H54   H     H_    0.363380 0.311593 0.445022 0.095182
H55   H     H_    0.364543 0.872221 0.503889 0.170023
H56   H     H_    0.889811 0.705909 0.426464 0.069688
H57   H     H_    0.667886 0.346545 0.549258 0.169083
H58   H     H_    0.362965 0.143883 0.423793 0.168224
H59   H     H_    0.267989 0.882623 0.521173 0.186451
H60   H     H_    0.853911 0.548270 0.410732 0.175271
H61   H     H_    0.940727 0.942468 0.423145 0.108854
H62   H     H_    0.967829 0.915407 0.551028 0.095187
H63   H     H_    0.452304 0.435854 0.421574 0.109216
H64   H     H_    0.475809 0.414253 0.551195 0.093165
H65   H     H_    0.952979 0.141969 0.367345 0.132944
H66   H     H_    0.005952 0.088153 0.623411 0.122773
H67   H     H_    0.455946 0.634328 0.365491 0.129574
H68   H     H_    0.506090 0.590952 0.622818 0.128865
H69   H     H_    0.005510 0.602674 0.398353 0.142823
H70   H     H_    0.080356 0.516435 0.644217 0.114651
H71   H     H_    0.482241 0.092976 0.391994 0.127341
H72   H     H_    0.571960 0.031283 0.636146 0.107675
O1    O     O_R   0.957020 0.451640 0.669920 -0.482827
O2    O     O_R   0.042980 0.451640 0.330080 -0.530712
O3    O     O_R   0.457020 0.951640 0.669920 -0.465766
O4    O     O_R   0.542980 0.951640 0.330080 -0.522930
O5    O     O_R   0.736470 0.210100 0.823360 -0.508545
O6    O     O_R   0.263530 0.210100 0.176640 -0.502159
O7    O     O_R   0.236470 0.710100 0.823360 -0.503392
O8    O     O_R   0.763530 0.710100 0.176640 -0.503247
O9    O     O_R   0.831960 0.093290 0.830130 -0.527285
O10   O     O_R   0.168040 0.093290 0.169870 -0.515543
O11   O     O_R   0.331960 0.593290 0.830130 -0.521915
O12   O     O_R   0.668040 0.593290 0.169870 -0.516493
O13   O     O_R   0.945600 0.250580 0.824860 -0.515714
O14   O     O_R   0.054400 0.250580 0.175140 -0.509768
O15   O     O_R   0.445600 0.750580 0.824860 -0.512318
O16   O     O_R   0.554400 0.750580 0.175140 -0.511634
O17   O     O_3   0.834640 0.334650 0.749500 -0.236729
O18   O     O_3   0.165360 0.334650 0.250500 -0.278695
O19   O     O_3   0.334640 0.834650 0.749500 -0.264601
O20   O     O_3   0.665360 0.834650 0.250500 -0.272525
O21   O     O_R   0.821450 0.543440 0.674610 -0.466002
O22   O     O_R   0.178550 0.543440 0.325390 -0.476137
O23   O     O_R   0.321450 0.043440 0.674610 -0.441713
O24   O     O_R   0.678550 0.043440 0.325390 -0.467276
O25   O     O_R   0.715320 0.458650 0.668100 -0.545551
O26   O     O_R   0.284680 0.458650 0.331900 -0.546273
O27   O     O_R   0.215320 0.958650 0.668100 -0.549906
O28   O     O_R   0.784680 0.958650 0.331900 -0.543860
O29   O     O_R   0.737170 0.209590 0.674530 -0.508320
O30   O     O_R   0.262830 0.209590 0.325470 -0.502731
O31   O     O_R   0.237170 0.709590 0.674530 -0.510615
O32   O     O_R   0.762830 0.709590 0.325470 -0.511113
O33   O     O_R   0.832710 0.092740 0.669580 -0.515583
O34   O     O_R   0.167290 0.092740 0.330420 -0.462938
O35   O     O_R   0.332710 0.592740 0.669580 -0.517762
O36   O     O_R   0.667290 0.592740 0.330420 -0.464404
O37   O     O_R   0.946290 0.250060 0.676040 -0.509264
O38   O     O_R   0.053710 0.250060 0.323960 -0.527657
O39   O     O_R   0.446290 0.750060 0.676040 -0.528972
O40   O     O_R   0.553710 0.750060 0.323960 -0.519614
O41   O     O_R   0.956270 0.452200 0.830470 -0.533470
O42   O     O_R   0.043730 0.452200 0.169530 -0.516873
O43   O     O_R   0.456270 0.952200 0.830470 -0.525184
O44   O     O_R   0.543730 0.952200 0.169530 -0.524446
O45   O     O_R   0.820760 0.543950 0.823440 -0.515354
O46   O     O_R   0.179240 0.543950 0.176560 -0.499493
O47   O     O_R   0.320760 0.043950 0.823440 -0.510795
O48   O     O_R   0.679240 0.043950 0.176560 -0.504096
O49   O     O_R   0.714570 0.459210 0.828640 -0.521587
O50   O     O_R   0.285430 0.459210 0.171360 -0.519760
O51   O     O_R   0.214570 0.959210 0.828640 -0.521954
O52   O     O_R   0.785430 0.959210 0.171360 -0.518550
F1    F     F_    0.231842 0.839141 0.395236 -0.615502
F2    F     F_    0.873928 0.475080 0.535078 -0.648671
F3    F     F_    0.648885 0.326825 0.418028 -0.637204
F4    F     F_    0.389557 0.077140 0.549423 -0.649034

loop_
_geom_bond_atom_site_label_1
_geom_bond_atom_site_label_2
_ccdc_geom_bond_type
C51   H72   S    
C58   C62   A    
C119  O43   A    
C55   C56   A    
C82   H26   S    
C67   C83   S    
C101  C102  A    
C72   H12   S    
C83   H31   S    
Cr4   O48   S    
Cr9   O33   S    
C41   C42   A    
C14   C18   S    
C96   C119  S    
C35   C36   A    
Cr10  O38   S    
C75   H15   S    
C72   C76   A    
C30   C34   A    
Cr7   O31   S    
Cr3   O43   S    
C120  O16   A    
C47   O31   A    
C97   C98   A    
C54   H6    S    
C63   C79   S    
C53   C54   A    
C34   H62   S    
C26   C89   S    
Cr1   O45   S    
Cr12  O40   S    
C33   H61   S    
C25   C90   S    
C50   C54   A    
Cr11  O35   S    
C96   C100  A    
C116  O12   A    
Cr10  O34   S    
C64   C68   A    
C115  O7    A    
C16   C20   S    
C127  C131  A    
C20   H56   S    
C13   F3    S    
C32   H68   S    
C94   C117  S    
C95   C99   A    
Cr10  O14   S    
C68   C88   A    
C66   C82   S    
C94   C98   A    
C113  O5    A    
Cr9   O13   S    
C6    C22   A    
C73   H13   S    
C17   H57   S    
C59   C110  S    
C117  O41   A    
C31   C40   A    
Cr8   O32   S    
C51   C55   A    
C36   H64   S    
C32   C39   A    
C57   C73   A    
C92   O4    A    
C24   C132  A    
C80   H20   S    
Cr2   O42   S    
C60   C109  S    
C45   O33   A    
C121  C125  A    
C52   C56   A    
Cr5   O49   S    
C27   C44   A    
C46   O34   A    
C82   H30   S    
C29   C33   A    
C61   C77   S    
C79   H19   S    
C21   C129  A    
C83   H27   S    
C29   C38   A    
C70   C74   A    
C9    C121  A    
C107  C108  S    
Cr8   O52   S    
C69   C73   A    
C81   H25   S    
C56   H8    S    
C30   H66   S    
Cr7   O27   S    
C112  O52   A    
C11   H47   S    
Cr6   O26   S    
C3    C122  S    
C119  O15   A    
C124  C128  A    
C97   C105  S    
C122  C126  A    
C44   C52   A    
Cr1   O41   S    
Cr12  O36   S    
C71   H11   S    
Cr2   O46   S    
C15   C127  S    
C22   C130  A    
C53   H5    S    
C64   C80   S    
C79   H23   S    
C8    H4    S    
C59   C75   A    
Cr1   O21   S    
C29   H65   S    
C20   C132  S    
C9    H45   S    
C128  C132  A    
Cr5   O17   S    
C41   C49   A    
C72   C88   A    
C62   C78   S    
C60   C64   A    
C7    C11   A    
C21   C45   S    
C19   C131  S    
C12   H48   S    
C63   C67   A    
C100  C108  S    
C78   H22   S    
Cr12  O20   S    
C17   C129  S    
C80   C84   S    
C68   C84   S    
Cr5   O5    S    
C5    H1    S    
C88   C116  S    
C46   O30   A    
C109  O49   A    
C70   H10   S    
C45   O29   A    
C39   C40   A    
C126  C130  A    
C62   C66   A    
Cr8   O8    S    
C3    O27   A    
Cr6   O50   S    
C50   H69   S    
C1    O21   A    
Cr2   O2    S    
C89   O1    A    
C49   H70   S    
C60   C76   A    
C7    H3    S    
Cr1   O1    S    
C58   C111  S    
C30   C37   A    
C107  H39   S    
C67   C87   A    
Cr8   O28   S    
C5    C21   A    
C81   H29   S    
C116  O8    A    
C15   C19   S    
C43   C44   A    
C115  O11   A    
C37   C38   A    
Cr6   O30   S    
Cr10  O10   S    
C125  C129  A    
C25   C38   A    
C114  O10   A    
Cr9   O9    S    
Cr5   O29   S    
C78   C82   S    
C24   C48   S    
C113  O9    A    
C99   C100  A    
C12   C124  A    
C77   C81   S    
C27   C40   A    
C8    C12   A    
Cr3   O3    S    
C19   H59   S    
C33   C34   A    
C4    O24   A    
C23   C131  A    
C27   C92   S    
C18   H58   S    
C10   H46   S    
Cr4   O44   S    
C114  O6    A    
C74   H14   S    
C17   H53   S    
C16   C128  S    
C20   H60   S    
C105  H41   S    
C106  H42   S    
C1    O25   A    
C42   C50   A    
C84   H32   S    
C71   C87   A    
C92   O40   A    
C35   H63   S    
C111  O47   A    
C112  O48   A    
C78   H18   S    
Cr4   O24   S    
Cr7   O19   S    
C91   O3    A    
C102  H34   S    
C31   C35   A    
C59   C63   A    
Cr6   O18   S    
C93   C118  S    
C14   H50   S    
C109  O45   A    
C70   C86   A    
C93   C97   A    
C123  C127  A    
C110  O50   A    
C4    O28   A    
C69   C85   A    
C95   C104  A    
C58   C74   A    
C87   C115  S    
Cr7   O7    S    
C55   H7    S    
C2    O26   A    
Cr7   O51   S    
C76   H16   S    
C94   C101  A    
C22   C46   S    
Cr1   O17   S    
C14   F4    S    
C47   O35   A    
C108  H44   S    
C2    O22   A    
C71   C75   A    
Cr3   O19   S    
Cr11  O11   S    
C84   H28   S    
C14   C126  S    
C25   C42   A    
C66   C86   A    
C16   F2    S    
C32   C36   A    
C26   C37   A    
C57   C61   A    
Cr3   O47   S    
Cr4   O4    S    
C108  H40   S    
C11   C123  A    
C95   C120  S    
C99   C107  S    
C105  C106  S    
C28   C39   A    
C28   C43   A    
C19   H55   S    
C98   C106  S    
C13   C17   S    
C86   C114  S    
Cr11  O15   S    
C23   C47   S    
C85   C113  S    
C1    C124  S    
C15   H51   S    
C48   O32   A    
C65   C85   A    
C120  O44   A    
C110  O46   A    
C79   C83   S    
Cr11  O39   S    
C43   C51   A    
C104  H36   S    
C7    C23   A    
C91   O39   A    
Cr5   O25   S    
C118  O14   A    
C6    H2    S    
Cr4   O20   S    
C117  O13   A    
C16   H52   S    
C8    C24   A    
C77   H17   S    
Cr3   O23   S    
C4    C121  S    
C28   C91   S    
C103  H35   S    
C52   H71   S    
C48   O36   A    
C90   O38   A    
C89   O37   A    
C69   H9    S    
Cr12  O16   S    
C90   O2    A    
C49   C53   A    
C18   C130  S    
C6    C10   A    
Cr2   O22   S    
C111  O51   A    
C57   C112  S    
Cr11  O19   S    
C61   C65   A    
C10   C122  A    
Cr10  O18   S    
C31   H67   S    
Cr9   O37   S    
C93   C102  A    
Cr9   O17   S    
C118  O42   A    
C96   C103  A    
C103  C104  A    
Cr8   O20   S    
Cr6   O6    S    
C65   C81   S    
Cr12  O12   S    
C107  H43   S    
C13   H49   S    
C5    C9    A    
C105  H37   S    
C15   F1    S    
C77   H21   S    
C13   C125  S    
C80   H24   S    
C101  H33   S    
C2    C123  S    
C18   H54   S    
C106  H38   S    
C26   C41   A    
C3    O23   A    
Cr2   O18   S    
