data_str_m3_o40_o40_f0_fof.sym.24
_audit_creation_date              2012-12-10T16:37:23-0500
_audit_creation_method            fapswitch 2.2
_symmetry_space_group_name_H-M    P1
_symmetry_Int_Tables_number       1
_space_group_crystal_system       triclinic
_cell_length_a                    16.722413
_cell_length_b                    16.870961
_cell_length_c                    16.878121
_cell_angle_alpha                 66.040842
_cell_angle_beta                  65.923082
_cell_angle_gamma                 65.479448
_cell_volume                      3791.26109407

loop_
_atom_site_label
_atom_site_type_symbol
_atom_type_description
_atom_site_fract_x
_atom_site_fract_y
_atom_site_fract_z
_atom_type_partial_charge
C1    C     C_R   0.394134 0.057662 0.666337 0.500139
C2    C     C_R   0.466992 0.708218 0.894011 0.518422
C3    C     C_R   0.949502 0.602198 0.332843 0.512476
C4    C     C_R   0.968615 0.439236 0.678866 0.510204
C5    C     C_R   0.976096 0.177593 0.431908 0.951048
C6    C     C_R   0.039459 0.820772 0.561144 0.925550
C7    C     C_R   0.179309 0.440111 0.957544 0.915447
C8    C     C_R   0.820798 0.567508 0.028860 0.913132
C9    C     C_R   0.430667 0.978504 0.176836 0.964380
C10   C     C_R   0.561423 0.039096 0.820614 0.895723
C11   C     C_R   0.576052 0.840897 0.990021 0.916362
C12   C     C_R   0.523473 0.092030 0.303158 0.520568
C13   C     C_R   0.432140 0.178605 0.974689 0.944863
C14   C     C_R   0.024303 0.567875 0.822319 0.931035
C15   C     C_R   0.960658 0.439053 0.178998 0.922490
C16   C     C_R   0.820026 0.038929 0.561753 0.948688
C17   C     C_R   0.179659 0.960208 0.439069 0.905000
C18   C     C_R   0.440882 0.073477 0.708680 -0.286693
C19   C     C_R   0.482076 0.069003 0.261142 -0.302551
C20   C     C_R   0.072501 0.705770 0.444351 -0.272022
C21   C     C_R   0.036425 0.271587 0.506416 -0.284815
C22   C     C_R   0.677485 0.476523 0.083486 -0.291640
C23   C     C_R   0.053557 0.666030 0.397391 0.511562
C24   C     C_R   0.294778 0.560449 0.912790 -0.274123
C25   C     C_R   0.299428 0.932008 0.551606 -0.273242
C26   C     C_R   0.702448 0.074709 0.445033 -0.277324
C27   C     C_R   0.516797 0.279999 0.017292 -0.314041
C28   C     C_R   0.509760 0.755456 0.908581 -0.294877
C29   C     C_R   0.929617 0.555774 0.293314 -0.276877
C30   C     C_R   0.968826 0.491014 0.726083 -0.291564
C31   C     C_R   0.528436 0.051184 0.536020 -0.138078
C32   C     C_R   0.438440 0.015721 0.449693 -0.140493
C33   C     C_R   0.014358 0.551422 0.538517 -0.146892
C34   C     C_R   0.038645 0.318298 0.557535 0.515134
C35   C     C_R   0.990750 0.459924 0.446491 -0.147666
C36   C     C_R   0.545681 0.566957 0.987487 -0.139565
C37   C     C_R   0.453132 0.469671 0.970590 -0.133922
C38   C     C_R   0.565595 0.057492 0.442548 0.042555
C39   C     C_R   0.405235 0.002310 0.544456 0.040285
C40   C     C_R   0.999209 0.465869 0.583675 0.052108
C41   C     C_R   0.987368 0.552568 0.406408 0.043410
C42   C     C_R   0.476031 0.614844 0.942719 0.040463
C43   C     C_R   0.528565 0.422571 0.007412 0.047720
C44   C     C_R   0.511514 0.054056 0.397468 0.045914
C45   C     C_R   0.622416 0.430444 0.086466 0.532724
C46   C     C_R   0.442194 0.034767 0.584003 0.039758
C47   C     C_R   0.421863 0.566322 0.944817 0.034793
C48   C     C_R   0.566472 0.471868 0.026880 0.034777
C49   C     C_R   0.007577 0.413915 0.531401 0.051445
C50   C     C_R   0.016953 0.592012 0.446193 0.042747
C51   C     C_R   0.535782 0.064091 0.672632 -0.023162
C52   C     C_R   0.425699 0.011625 0.311630 -0.018328
C53   C     C_R   0.052670 0.675771 0.539621 -0.016729
C54   C     C_R   0.994177 0.317870 0.435740 -0.017206
C55   C     C_R   0.668751 0.567198 0.031737 -0.045663
C56   C     C_R   0.336426 0.610187 0.924907 0.513512
C57   C     C_R   0.327778 0.465227 0.932927 0.006823
C58   C     C_R   0.324416 0.955181 0.456735 -0.019853
C59   C     C_R   0.667549 0.066670 0.538553 -0.013302
C60   C     C_R   0.441093 0.323826 0.981522 -0.019664
C61   C     C_R   0.573609 0.709001 0.958032 0.015451
C62   C     C_R   0.949486 0.460238 0.323191 -0.012896
C63   C     C_R   0.009308 0.562558 0.680970 -0.018171
C64   C     C_R   0.588852 0.064059 0.721398 -0.153854
C65   C     C_R   0.392636 0.975824 0.271263 -0.200957
C66   C     C_R   0.059007 0.722263 0.590190 -0.150293
C67   C     C_R   0.339995 0.953325 0.596018 0.504524
C68   C     C_R   0.969752 0.273561 0.395884 -0.187677
C69   C     C_R   0.729012 0.614111 0.018820 -0.142867
C70   C     C_R   0.279826 0.413221 0.931024 -0.238758
C71   C     C_R   0.279053 0.941487 0.409840 -0.144738
C72   C     C_R   0.719102 0.064958 0.590044 -0.179231
C73   C     C_R   0.399081 0.276746 0.961937 -0.147836
C74   C     C_R   0.621171 0.754247 0.969311 -0.255668
C75   C     C_R   0.941743 0.410158 0.277135 -0.156244
C76   C     C_R   0.031693 0.603273 0.726177 -0.183698
C77   C     C_R   0.675194 0.075355 0.676357 0.320515
C78   C     C_R   0.655956 0.064206 0.398610 0.507355
C79   C     C_R   0.322841 0.935789 0.322935 0.334583
C80   C     C_R   0.063300 0.678756 0.677775 0.322029
C81   C     C_R   0.937124 0.322729 0.320717 0.323915
C82   C     C_R   0.707514 0.708087 0.979546 0.372557
C83   C     C_R   0.325323 0.325228 0.926233 0.350287
C84   C     C_R   0.577266 0.060957 0.582225 0.059796
C85   C     C_R   0.397248 0.992849 0.406338 0.063094
C86   C     C_R   0.026802 0.595882 0.586130 0.064311
C87   C     C_R   0.976913 0.412926 0.402442 0.066831
C88   C     C_R   0.596078 0.614197 0.992019 0.072206
C89   C     C_R   0.565825 0.327985 0.020384 0.501569
C90   C     C_R   0.408404 0.419760 0.960146 0.067211
H1    H     H_    0.400471 0.098040 0.767365 0.191685
H2    H     H_    0.499600 0.827380 0.874206 0.151070
H3    H     H_    0.895218 0.595619 0.241149 0.167321
H4    H     H_    0.933680 0.475618 0.797399 0.178787
H5    H     H_    0.276884 0.089922 0.756680 0.339057
H6    H     H_    0.568392 0.178838 0.190918 0.344478
H7    H     H_    0.104237 0.744296 0.280415 0.336506
H8    H     H_    0.097299 0.205987 0.636806 0.345811
H9    H     H_    0.658305 0.330785 0.188701 0.350054
H10   H     H_    0.229915 0.718326 0.914672 0.332288
H11   H     H_    0.276814 0.886312 0.714253 0.348358
H12   H     H_    0.490808 0.100287 0.189475 0.147656
H13   H     H_    0.764977 0.055154 0.293824 0.334359
H14   H     H_    0.672706 0.219580 0.029504 0.333662
H15   H     H_    0.428936 0.812722 0.796033 0.360745
H16   H     H_    0.897592 0.720097 0.255151 0.334991
H17   H     H_    0.912447 0.358409 0.790102 0.337330
H18   H     H_    0.751630 0.037275 0.751825 0.351195
H19   H     H_    0.255842 0.944281 0.249660 0.354237
H20   H     H_    0.042578 0.748711 0.753154 0.358161
H21   H     H_    0.955911 0.247342 0.251589 0.355703
H22   H     H_    0.753191 0.812980 0.907064 0.317713
H23   H     H_    0.105999 0.758271 0.405171 0.177106
H24   H     H_    0.259939 0.331539 0.850348 0.340921
H25   H     H_    0.071021 0.199659 0.521721 0.175985
H26   H     H_    0.723602 0.442678 0.125376 0.165987
H27   H     H_    0.235699 0.597839 0.887267 0.179396
H28   H     H_    0.251033 0.893322 0.591898 0.174370
H29   H     H_    0.765270 0.091837 0.404830 0.185564
H30   H     H_    0.541686 0.207997 0.044194 0.163672
O1    O     O_R   0.982940 0.138950 0.510160 -0.630742
O2    O     O_R   0.982940 0.510160 0.138950 -0.636859
O3    O     O_R   0.861050 0.017060 0.489840 -0.638450
O4    O     O_R   0.138950 0.982940 0.510160 -0.646008
O5    O     O_R   0.867700 0.025880 0.612340 -0.597489
O6    O     O_R   0.132300 0.974120 0.387660 -0.622022
O7    O     O_R   0.025880 0.612340 0.867700 -0.607563
O8    O     O_R   0.974120 0.387660 0.132300 -0.603305
O9    O     O_R   0.612340 0.867700 0.025880 -0.577542
O10   O     O_R   0.387660 0.132300 0.974120 -0.567739
O11   O     O_R   0.387660 0.974120 0.132300 -0.609998
O12   O     O_R   0.017060 0.861050 0.489840 -0.635135
O13   O     O_R   0.612340 0.025880 0.867700 -0.628091
O14   O     O_R   0.132300 0.387660 0.974120 -0.591551
O15   O     O_R   0.867700 0.612340 0.025880 -0.557804
O16   O     O_R   0.974120 0.132300 0.387660 -0.616446
O17   O     O_R   0.025880 0.867700 0.612340 -0.612250
O18   O     O_3   0.299942 0.074586 0.698862 -0.717005
O19   O     O_3   0.566741 0.158895 0.255246 -0.685714
O20   O     O_3   0.079608 0.692219 0.303839 -0.714493
O21   O     O_3   0.079334 0.272390 0.626999 -0.716477
O22   O     O_3   0.616336 0.349118 0.152275 -0.694765
O23   O     O_R   0.138950 0.510160 0.982940 -0.624742
O24   O     O_3   0.289243 0.699030 0.927298 -0.709913
O25   O     O_3   0.322665 0.919696 0.688955 -0.724806
O26   O     O_3   0.701685 0.051667 0.313402 -0.715701
O27   O     O_3   0.654325 0.284148 0.027575 -0.722205
O28   O     O_3   0.426031 0.749366 0.824949 -0.705083
O29   O     O_3   0.923107 0.696097 0.306931 -0.717553
O30   O     O_3   0.929788 0.368859 0.723854 -0.720298
O31   O     O_3   0.717371 0.096215 0.717339 -0.706654
O32   O     O_3   0.293610 0.894559 0.288510 -0.724677
O33   O     O_3   0.096949 0.712221 0.715870 -0.741071
O34   O     O_R   0.861050 0.489840 0.017060 -0.644150
O35   O     O_3   0.902166 0.285551 0.287624 -0.735705
O36   O     O_3   0.769996 0.754534 0.953383 -0.729275
O37   O     O_3   0.294679 0.283819 0.892933 -0.731053
O38   O     O_R   0.510160 0.982940 0.138950 -0.629887
O39   O     O_R   0.489840 0.017060 0.861050 -0.674405
O40   O     O_R   0.489840 0.861050 0.017060 -0.591720
O41   O     O_R   0.510160 0.138950 0.982940 -0.664272
O42   O     O_R   0.017060 0.489840 0.861050 -0.651261
Zn1   Zn    Zn3+2 0.004880 0.004880 0.583590 0.987424
Zn2   Zn    Zn3+2 0.995120 0.995120 0.416410 0.968896
Zn3   Zn    Zn3+2 0.004880 0.583590 0.004880 1.004772
Zn4   Zn    Zn3+2 0.995120 0.416410 0.995120 0.991059
Zn5   Zn    Zn3+2 0.583590 0.004880 0.004880 0.983817
Zn6   Zn    Zn3+2 0.416410 0.995120 0.995120 0.997429

loop_
_geom_bond_atom_site_label_1
_geom_bond_atom_site_label_2
_ccdc_geom_bond_type
C5    O16   A    
C15   C75   S    
C52   C65   A    
C34   O21   S    
C37   C43   A    
C65   C79   A    
C15   O2    A    
C64   C77   A    
H9    O22   S    
C36   C42   A    
C16   C72   S    
C10   O13   A    
C21   H25   S    
C25   H28   S    
C77   O31   S    
C7    C70   S    
C7    O23   A    
C80   O33   S    
C27   H30   S    
C36   C88   A    
C38   C44   A    
H11   O25   S    
C1    C18   A    
C26   C78   A    
C54   C87   A    
C37   C90   A    
C18   H1    S    
C52   C85   A    
C16   O3    A    
C74   C82   A    
C27   C60   A    
O13   Zn5   S    
C20   H23   S    
C19   H12   S    
C17   O6    A    
C54   C68   A    
C63   C76   A    
C2    O28   S    
C40   C49   A    
O1    Zn1   S    
C5    O1    A    
C60   C73   A    
O39   Zn6   S    
C32   C39   A    
C55   C88   A    
C3    C29   A    
O23   Zn3   S    
C69   C82   A    
O42   Zn4   S    
H17   O30   S    
C35   C87   A    
C19   C52   A    
C4    C40   A    
C24   C57   A    
C34   C49   A    
C31   C46   A    
C25   C67   A    
C35   C49   A    
C13   O10   A    
O14   Zn4   S    
C36   C48   A    
C53   C86   A    
C57   C70   A    
C37   C47   A    
C8    O34   A    
C43   C48   A    
H7    O20   S    
C59   C72   A    
O4    Zn1   S    
C82   O36   S    
C28   C61   A    
C22   H26   S    
O2    Zn3   S    
C30   C63   A    
C8    O15   A    
O8    Zn4   S    
H14   O27   S    
O5    Zn1   S    
H6    O19   S    
C5    C68   S    
O6    Zn2   S    
C11   O9    A    
C71   C79   A    
C11   O40   A    
C9    O11   A    
C32   C44   A    
C3    O29   S    
C33   C40   A    
C57   C90   A    
O9    Zn5   S    
C23   O20   S    
H19   O32   S    
C59   C84   A    
C7    O14   A    
C6    O12   A    
H10   O24   S    
O17   Zn1   S    
C8    C69   S    
C75   C81   A    
C23   C50   A    
C21   C34   A    
C38   C78   A    
C33   C50   A    
H15   O28   S    
C31   C84   A    
C14   C76   S    
C14   O42   A    
C33   C86   A    
O12   Zn2   S    
H24   O37   S    
C67   O25   S    
C72   C77   A    
C70   C83   A    
C61   C88   A    
H18   O31   S    
C17   O4    A    
C83   O37   S    
C20   C23   A    
O7    Zn3   S    
C24   H27   S    
C12   O19   S    
C28   H2    S    
C43   C89   A    
C26   H29   S    
C53   C66   A    
O41   Zn5   S    
C39   C46   A    
C16   O5    A    
C13   C73   S    
O11   Zn6   S    
C17   C71   S    
C15   O8    A    
C63   C86   A    
C45   O22   S    
C61   C74   A    
O38   Zn5   S    
C25   C58   A    
C62   C75   A    
C58   C85   A    
C41   C50   A    
C4    O30   S    
O16   Zn2   S    
C45   C48   A    
C89   O27   S    
C29   C62   A    
C3    C41   A    
H5    O18   S    
C39   C67   A    
C10   C64   S    
C51   C64   A    
C76   C80   A    
C20   C53   A    
C11   C74   S    
O34   Zn4   S    
C13   O41   A    
C22   C55   A    
C60   C90   A    
C18   C51   A    
C24   C56   A    
C66   C80   A    
C62   C87   A    
C81   O35   S    
C31   C38   A    
C68   C81   A    
C55   C69   A    
C6    O17   A    
H8    O21   S    
H20   O33   S    
C29   H3    S    
O3    Zn2   S    
C14   O7    A    
C21   C54   A    
C9    O38   A    
C2    C42   A    
C32   C85   A    
C51   C84   A    
C12   C19   A    
C1    C46   A    
C27   C89   A    
C42   C47   A    
O40   Zn6   S    
C35   C41   A    
C9    C65   S    
O15   Zn3   S    
C58   C71   A    
C78   O26   S    
C56   O24   S    
O10   Zn6   S    
C6    C66   S    
C22   C45   A    
C30   H4    S    
H22   O36   S    
H16   O29   S    
C12   C44   A    
C26   C59   A    
C2    C28   A    
C79   O32   S    
H21   O35   S    
C10   O39   A    
C73   C83   A    
C4    C30   A    
C1    O18   S    
H13   O26   S    
C47   C56   A    
