data_str_m4_o4_o24_f0_acs.sym.44
_audit_creation_date              2013-03-05T15:51:59-0500
_audit_creation_method            fapswitch 2.2
_symmetry_space_group_name_H-M    P1
_symmetry_Int_Tables_number       1
_space_group_crystal_system       triclinic
_cell_length_a                    19.009351
_cell_length_b                    11.042071
_cell_length_c                    18.675206
_cell_angle_alpha                 90.237076
_cell_angle_beta                  90.525425
_cell_angle_gamma                 90.296847
_cell_volume                      3919.72259011

loop_
_atom_site_label
_atom_site_type_symbol
_atom_site_description
_atom_site_fract_x
_atom_site_fract_y
_atom_site_fract_z
_atom_type_partial_charge
O1    O     O_R   0.214300 0.709080 0.827500 -0.534126
O2    O     O_R   0.785700 0.709080 0.172500 -0.527862
O3    O     O_R   0.714300 0.209080 0.827500 -0.539212
O4    O     O_R   0.285700 0.209080 0.172500 -0.539437
O5    O     O_R   0.236190 0.958390 0.823150 -0.496193
O6    O     O_R   0.763810 0.958390 0.176850 -0.481810
O7    O     O_R   0.736190 0.458390 0.823150 -0.494936
O8    O     O_R   0.263810 0.458390 0.176850 -0.514710
C1    C     C_R   0.290458 0.996019 0.860636 0.561333
C2    C     C_R   0.710275 0.997910 0.139162 0.556606
C3    C     C_R   0.790611 0.495901 0.860552 0.554087
C4    C     C_R   0.226648 0.539908 0.145583 0.541172
O9    O     O_R   0.332090 0.075280 0.831290 -0.524960
O10   O     O_R   0.667910 0.075280 0.168710 -0.455932
O11   O     O_R   0.832090 0.575280 0.831290 -0.462829
O12   O     O_R   0.167910 0.575280 0.168710 -0.495907
O13   O     O_R   0.446280 0.918040 0.826620 -0.521833
O14   O     O_R   0.553720 0.918040 0.173380 -0.524031
O15   O     O_R   0.946280 0.418040 0.826620 -0.525489
O16   O     O_R   0.053720 0.418040 0.173380 -0.497520
C5    C     C_R   0.468677 0.821502 0.856103 0.560262
C6    C     C_R   0.530058 0.821015 0.144631 0.531744
C7    C     C_R   0.970392 0.322574 0.855111 0.535401
C8    C     C_R   0.033040 0.320812 0.143080 0.560341
O17   O     O_R   0.457080 0.716270 0.831760 -0.508681
O18   O     O_R   0.542920 0.716270 0.168240 -0.513248
O19   O     O_R   0.957080 0.216270 0.831760 -0.510919
O20   O     O_R   0.042920 0.216270 0.168240 -0.505452
O21   O     O_R   0.320980 0.624440 0.823040 -0.513204
O22   O     O_R   0.679020 0.624440 0.176960 -0.478914
O23   O     O_R   0.820980 0.124440 0.823040 -0.484213
O24   O     O_R   0.179020 0.124440 0.176960 -0.477674
C9    C     C_R   0.260561 0.636451 0.851208 0.534182
C10   C     C_R   0.740160 0.634752 0.148747 0.543042
C11   C     C_R   0.759674 0.134469 0.850874 0.533065
C12   C     C_R   0.240224 0.134369 0.148866 0.540831
O25   O     O_R   0.213880 0.710510 0.665560 -0.442792
O26   O     O_R   0.786120 0.710510 0.334440 -0.466060
O27   O     O_R   0.713880 0.210510 0.665560 -0.459499
O28   O     O_R   0.286120 0.210510 0.334440 -0.446925
O29   O     O_R   0.235800 0.959720 0.673040 -0.404735
O30   O     O_R   0.764200 0.959720 0.326960 -0.451488
O31   O     O_R   0.735800 0.459720 0.673040 -0.421519
O32   O     O_R   0.264200 0.459720 0.326960 -0.414056
C13   C     C_R   0.269601 0.052979 0.649745 0.574034
C14   C     C_R   0.708920 0.996595 0.361203 0.565917
C15   C     C_R   0.772228 0.544435 0.646155 0.581107
C16   C     C_R   0.230205 0.552491 0.350568 0.558411
O33   O     O_R   0.331670 0.076720 0.669350 -0.546239
O34   O     O_R   0.668330 0.076720 0.330650 -0.481272
O35   O     O_R   0.831670 0.576720 0.669350 -0.514567
O36   O     O_R   0.168330 0.576720 0.330650 -0.534607
O37   O     O_R   0.445900 0.919370 0.676500 -0.491212
O38   O     O_R   0.554100 0.919370 0.323500 -0.527945
O39   O     O_R   0.945900 0.419370 0.676500 -0.515046
O40   O     O_R   0.054100 0.419370 0.323500 -0.458790
C17   C     C_R   0.437372 0.818126 0.639912 0.597522
C18   C     C_R   0.528165 0.821780 0.351796 0.522996
C19   C     C_R   0.971254 0.322197 0.648224 0.531317
C20   C     C_R   0.059289 0.319108 0.360418 0.573959
O41   O     O_R   0.456660 0.717710 0.669820 -0.464995
O42   O     O_R   0.543340 0.717710 0.330180 -0.472694
O43   O     O_R   0.956660 0.217710 0.669820 -0.468198
O44   O     O_R   0.043340 0.217710 0.330180 -0.467872
O45   O     O_R   0.320590 0.625770 0.672930 -0.543117
O46   O     O_R   0.679410 0.625770 0.327070 -0.495465
O47   O     O_R   0.820590 0.125770 0.672930 -0.504646
O48   O     O_R   0.179410 0.125770 0.327070 -0.533439
C21   C     C_R   0.260151 0.638163 0.643000 0.549454
C22   C     C_R   0.739757 0.637349 0.355623 0.552333
C23   C     C_R   0.758169 0.132604 0.645834 0.550018
C24   C     C_R   0.239656 0.138665 0.357220 0.550053
Cr1   Cr    Cr6+3 0.229640 0.835880 0.747370 1.102928
Cr2   Cr    Cr6+3 0.770360 0.835880 0.252630 1.102273
Cr3   Cr    Cr6+3 0.729640 0.335880 0.747370 1.109704
Cr4   Cr    Cr6+3 0.270360 0.335880 0.252630 1.095347
Cr5   Cr    Cr6+3 0.387390 0.989720 0.750850 1.014612
Cr6   Cr    Cr6+3 0.612610 0.989720 0.249150 1.054128
Cr7   Cr    Cr6+3 0.887390 0.489720 0.750850 1.063299
Cr8   Cr    Cr6+3 0.112610 0.489720 0.249150 1.088876
Cr9   Cr    Cr6+3 0.385770 0.677220 0.749340 1.033490
Cr10  Cr    Cr6+3 0.614230 0.677220 0.250660 1.096893
Cr11  Cr    Cr6+3 0.885770 0.177220 0.749340 1.094955
Cr12  Cr    Cr6+3 0.114230 0.177220 0.250660 1.087482
O49   O     O_3   0.334270 0.834280 0.749190 -0.318160
O50   O     O_3   0.665730 0.834280 0.250810 -0.337836
O51   O     O_3   0.834270 0.334280 0.749190 -0.314300
O52   O     O_3   0.165730 0.334280 0.250810 -0.310106
C25   C     C_3   0.471456 0.927415 0.030251 -0.128457
C26   C     C_3   0.528374 0.925177 0.971511 -0.125796
C27   C     C_3   0.963481 0.412870 0.031952 -0.125622
C28   C     C_3   0.018512 0.442277 0.973728 -0.120805
C29   C     C_3   0.428689 0.829186 0.989150 -0.112951
C30   C     C_3   0.567798 0.823819 0.011923 -0.113985
C31   C     C_3   0.935890 0.304713 0.987010 -0.115472
C32   C     C_3   0.071623 0.357045 0.010944 -0.109942
H1    H     H_    0.371348 0.826692 0.978049 0.108844
H2    H     H_    0.625184 0.819181 0.022925 0.106901
H3    H     H_    0.879356 0.286098 0.975894 0.104900
H4    H     H_    0.127824 0.376744 0.023014 0.144233
H5    H     H_    0.453382 0.009479 0.058547 0.114465
H6    H     H_    0.549047 0.005420 0.943386 0.112856
H7    H     H_    0.934096 0.477316 0.065382 0.129033
H8    H     H_    0.030199 0.533233 0.951638 0.107927
C33   C     C_3   0.486443 0.827373 0.931970 0.056488
C34   C     C_3   0.510122 0.826261 0.069295 0.054262
C35   C     C_3   0.991688 0.333054 0.930037 0.059467
C36   C     C_3   0.015604 0.327342 0.067278 0.046229
C37   C     C_3   0.524959 0.726169 0.971261 -0.122522
C38   C     C_3   0.468015 0.728270 0.029451 -0.119002
C39   C     C_3   0.044291 0.248860 0.965882 -0.121530
C40   C     C_3   0.988955 0.219236 0.023274 -0.130387
H9    H     H_    0.544171 0.644265 0.943775 0.113865
H10   H     H_    0.443950 0.648322 0.055361 0.122818
H11   H     H_    0.077277 0.186889 0.934540 0.126835
H12   H     H_    0.978334 0.127919 0.045231 0.112132
C41   C     C_R   0.241851 0.576749 0.072944 0.031159
C42   C     C_R   0.781951 0.509522 0.938033 0.004307
C43   C     C_R   0.719990 0.013738 0.062038 0.001989
C44   C     C_R   0.281572 0.008922 0.938271 0.025971
C45   C     C_R   0.304455 0.548078 0.038403 -0.020352
C46   C     C_R   0.726088 0.457383 0.975880 -0.003871
C47   C     C_R   0.776018 0.962761 0.024216 -0.006011
C48   C     C_R   0.225552 0.956687 0.976033 -0.006402
C49   C     C_R   0.309858 0.560192 0.964689 0.029800
C50   C     C_R   0.714460 0.487716 0.047250 0.086978
C51   C     C_R   0.786401 0.989446 0.952316 0.084991
C52   C     C_R   0.213750 0.987957 0.047229 0.078691
C53   C     C_R   0.188799 0.624047 0.958040 -0.157325
C54   C     C_R   0.821913 0.603087 0.048788 -0.171701
C55   C     C_R   0.677862 0.099654 0.950349 -0.167593
C56   C     C_R   0.322992 0.097709 0.050110 -0.160129
C57   C     C_R   0.185157 0.620893 0.031600 -0.141005
C58   C     C_R   0.833176 0.573592 0.977386 -0.150458
C59   C     C_R   0.667845 0.073835 0.022388 -0.151333
C60   C     C_R   0.333575 0.070221 0.978220 -0.138069
C61   C     C_3   0.346259 0.434001 0.039745 -0.242500
C62   C     C_3   0.649304 0.454255 0.958900 -0.283154
C63   C     C_3   0.853135 0.962459 0.040051 -0.284623
C64   C     C_3   0.148700 0.952376 0.959165 -0.278252
C65   C     C_3   0.353736 0.448133 0.959149 -0.116840
C66   C     C_3   0.636412 0.487716 0.037093 -0.114755
C67   C     C_3   0.864677 0.989262 0.960839 -0.115084
C68   C     C_3   0.135792 0.990131 0.036731 -0.109311
C69   C     C_R   0.251141 0.593611 0.923422 0.063144
C70   C     C_R   0.759004 0.569792 0.082996 0.017687
C71   C     C_R   0.741009 0.068683 0.916213 0.019791
C72   C     C_R   0.259157 0.067848 0.083580 0.021764
H13   H     H_    0.142693 0.652558 0.928254 0.125602
H14   H     H_    0.860859 0.659910 0.075184 0.138957
H15   H     H_    0.638266 0.153365 0.923509 0.131406
H16   H     H_    0.362410 0.153079 0.076933 0.129726
H17   H     H_    0.134867 0.642966 0.054890 0.167996
H18   H     H_    0.880456 0.607385 0.952226 0.160134
H19   H     H_    0.620403 0.106342 0.047598 0.160519
H20   H     H_    0.381075 0.103263 0.953134 0.129579
H21   H     H_    0.871770 0.872182 0.057756 0.133490
H22   H     H_    0.130430 0.859518 0.945639 0.128269
H23   H     H_    0.314085 0.354999 0.056409 0.189461
H24   H     H_    0.631060 0.362170 0.943310 0.132506
H25   H     H_    0.396851 0.444883 0.069373 0.107373
H26   H     H_    0.634811 0.525931 0.920152 0.144078
H27   H     H_    0.868856 0.038486 0.076042 0.148846
H28   H     H_    0.133801 0.020395 0.918568 0.148525
H29   H     H_    0.408533 0.469151 0.942668 0.089059
H30   H     H_    0.613269 0.578570 0.045033 0.115809
H31   H     H_    0.889016 0.078428 0.950352 0.119797
H32   H     H_    0.113955 0.082230 0.042941 0.123280
C73   C     C_R   0.486982 0.819689 0.417334 0.011663
C74   C     C_R   0.448639 0.819746 0.562519 0.056573
C75   C     C_R   0.041875 0.322333 0.435669 0.037720
C76   C     C_R   0.009606 0.323128 0.581756 -0.003678
C77   C     C_R   0.482088 0.710758 0.455944 -0.016227
C78   C     C_R   0.464556 0.712338 0.527026 -0.062628
C79   C     C_R   0.032257 0.214052 0.472543 -0.066390
C80   C     C_R   0.017525 0.213520 0.544116 -0.014814
C81   C     C_R   0.442035 0.924432 0.521191 -0.143090
C82   C     C_R   0.457999 0.923401 0.447724 -0.166522
C83   C     C_R   0.027670 0.431346 0.547988 -0.170758
C84   C     C_R   0.042734 0.430546 0.474841 -0.123295
C85   C     C_3   0.534127 0.609685 0.467286 0.119156
C86   C     C_3   0.514992 0.613725 0.546263 0.127328
C87   C     C_3   0.989392 0.101929 0.457063 0.107456
C88   C     C_3   0.969263 0.104913 0.535847 0.101014
H33   H     H_    0.430372 0.007256 0.547316 0.123956
H34   H     H_    0.454283 0.004796 0.416356 0.113662
H35   H     H_    0.021816 0.516380 0.575898 0.140366
H36   H     H_    0.049286 0.514107 0.447483 0.165608
H37   H     H_    0.022471 0.023632 0.441419 0.147607
H38   H     H_    0.913794 0.127652 0.547392 0.143153
H39   H     H_    0.588768 0.635618 0.454722 0.139504
H40   H     H_    0.488184 0.531928 0.567615 0.168303
C89   C     C_R   0.244748 0.600815 0.420718 0.052623
C90   C     C_R   0.760162 0.567546 0.572952 0.085344
C91   C     C_R   0.718207 0.007562 0.438008 0.014829
C92   C     C_R   0.254271 0.103002 0.580202 0.049338
C93   C     C_R   0.184565 0.613717 0.461469 -0.007124
C94   C     C_R   0.784689 0.482954 0.523378 0.046554
C95   C     C_R   0.663311 0.047012 0.480171 -0.043959
C96   C     C_R   0.313987 0.119477 0.539260 -0.007603
C97   C     C_R   0.186220 0.610658 0.534568 0.003029
C98   C     C_R   0.778214 0.505353 0.451091 0.030123
C99   C     C_R   0.671851 0.070282 0.551413 0.042873
C100  C     C_R   0.312913 0.114547 0.466257 0.003943
C101  C     C_R   0.312532 0.582237 0.529049 -0.095156
C102  C     C_R   0.718453 0.692478 0.478199 -0.128423
C103  C     C_R   0.789764 0.993843 0.546643 -0.151395
C104  C     C_R   0.186832 0.083430 0.471303 -0.097550
C105  C     C_R   0.310001 0.592689 0.454628 -0.062473
C106  C     C_R   0.730026 0.674993 0.550659 -0.075010
C107  C     C_R   0.780023 0.968605 0.473525 -0.093815
C108  C     C_R   0.189191 0.092078 0.545959 -0.065331
C109  C     C_3   0.132877 0.713476 0.454173 -0.224769
C110  C     C_3   0.858544 0.440273 0.515807 -0.241523
C111  C     C_3   0.602182 0.128379 0.470443 -0.198725
C112  C     C_3   0.366930 0.218248 0.546920 -0.225419
C113  C     C_3   0.131690 0.710995 0.534297 0.108319
C114  C     C_3   0.852434 0.469616 0.436685 0.073534
C115  C     C_3   0.607121 0.149450 0.551198 0.101433
C116  C     C_3   0.368406 0.214421 0.466578 0.111334
C117  C     C_R   0.251308 0.597370 0.570074 0.044518
C118  C     C_R   0.743611 0.607843 0.428678 0.060309
C119  C     C_R   0.738625 0.060444 0.583653 0.020158
C120  C     C_R   0.248109 0.099552 0.430401 0.046883
H41   H     H_    0.362694 0.568046 0.554859 0.120786
H42   H     H_    0.691732 0.773103 0.460350 0.100013
H43   H     H_    0.839294 0.971145 0.571959 0.179874
H44   H     H_    0.136853 0.070072 0.445161 0.118913
H45   H     H_    0.357474 0.585034 0.423764 0.179631
H46   H     H_    0.717193 0.744830 0.589011 0.180030
H47   H     H_    0.822216 0.925432 0.444594 0.215007
H48   H     H_    0.141652 0.082539 0.576552 0.185791
H49   H     H_    0.082142 0.690118 0.428232 0.158579
H50   H     H_    0.862921 0.342050 0.527197 0.141943
H51   H     H_    0.554762 0.079560 0.453527 0.109933
H52   H     H_    0.417385 0.192609 0.572713 0.129899
H53   H     H_    0.156960 0.796167 0.430515 0.167133
H54   H     H_    0.895611 0.498953 0.546377 0.181141
H55   H     H_    0.615001 0.208376 0.436986 0.229301
H56   H     H_    0.343936 0.301824 0.570461 0.165534
H57   H     H_    0.080047 0.685349 0.556845 0.144913
H58   H     H_    0.855400 0.391649 0.399469 0.198104
H59   H     H_    0.562843 0.107782 0.581166 0.119323
H60   H     H_    0.420171 0.188474 0.444527 0.128285
N1    N     N_R   0.512409 0.496731 0.431841 0.081489
O53   O     O_R   0.506711 0.492914 0.362416 -0.274286
O54   O     O_R   0.513984 0.394999 0.466764 -0.332579
N2    N     N_R   0.573190 0.656495 0.591823 0.078356
O55   O     O_R   0.592658 0.769761 0.590948 -0.393991
O56   O     O_R   0.596798 0.586875 0.642503 -0.269894
N3    N     N_R   0.929836 0.119159 0.407881 0.086658
O57   O     O_R   0.875942 0.183855 0.425985 -0.401285
O58   O     O_R   0.925923 0.054166 0.349719 -0.283974
N4    N     N_R   0.993317 0.997427 0.574277 0.061508
O59   O     O_R   0.008102 0.004745 0.642273 -0.275682
O60   O     O_R   0.981283 0.890912 0.546534 -0.324088
N5    N     N_R   0.158440 0.823802 0.562012 0.090426
O61   O     O_R   0.124277 0.876734 0.613128 -0.271724
O62   O     O_R   0.222696 0.855608 0.546937 -0.392715
N6    N     N_R   0.897110 0.571720 0.415244 0.069647
O63   O     O_R   0.929597 0.567431 0.354327 -0.311160
O64   O     O_R   0.902436 0.669075 0.454607 -0.322081
N7    N     N_R   0.618788 0.276540 0.569602 0.129283
O65   O     O_R   0.580490 0.326901 0.618668 -0.302810
O66   O     O_R   0.662561 0.342630 0.533576 -0.325022
N8    N     N_R   0.342390 0.326520 0.438374 0.094275
O67   O     O_R   0.377390 0.379634 0.387859 -0.281135
O68   O     O_R   0.277797 0.356868 0.452229 -0.391793
C121  C     C_2   0.320031 0.348367 0.915215 0.222708
H61   H     H_    0.349556 0.307155 0.872222 0.131969
O69   O     O_2   0.259917 0.314242 0.926620 -0.511559
C122  C     C_2   0.598832 0.389831 0.077840 0.236439
H62   H     H_    0.545769 0.364051 0.061944 0.076751
O70   O     O_2   0.626548 0.340305 0.129112 -0.453046
C123  C     C_2   0.900262 0.887479 0.921679 0.237083
H63   H     H_    0.952619 0.859860 0.938255 0.073959
O71   O     O_2   0.871783 0.837003 0.870751 -0.456306
C124  C     C_2   0.096876 0.896225 0.079257 0.223469
H64   H     H_    0.045146 0.866325 0.061341 0.077423
O72   O     O_2   0.121817 0.855195 0.134504 -0.476185

loop_
_geom_bond_atom_site_label_1
_geom_bond_atom_site_label_2
_geom_bond_distance
_ccdc_geom_bond_type
O4    C12   1.266995 A    
O25   C21   1.265160 A    
C54   C70   1.408819 A    
C55   H15   1.081525 S    
C41   C57   1.410144 A    
Cr7   O51   1.986857 S    
O39   C19   1.291433 A    
C108  H48   1.078491 S    
C85   N1    1.465281 S    
C24   C120  1.442814 S    
O21   C9    1.274945 A    
C113  N5    1.435727 S    
C80   C88   1.512670 S    
C1    O9    1.302842 A    
O44   Cr12  2.063657 S    
N4    O60   1.301567 A    
C3    O11   1.301270 A    
C12   C72   1.469347 S    
C4    O12   1.264034 A    
C122  H62   1.085106 S    
C25   C34   1.524764 S    
C102  H42   1.079688 S    
C53   C69   1.397041 A    
C29   C38   1.540222 S    
O2    C10   1.265846 A    
C32   C36   1.538868 S    
N1    O53   1.300559 A    
O17   Cr9   2.083941 S    
C54   C58   1.390102 A    
C86   H40   1.111947 S    
C109  H49   1.104151 S    
C87   H37   1.111363 S    
N2    O56   1.299989 A    
O31   Cr3   1.956418 S    
O16   Cr8   1.958173 S    
N7    O65   1.300423 A    
O13   C5    1.275149 A    
O28   Cr4   2.086575 S    
O12   Cr8   2.069966 S    
O22   Cr10  1.944940 S    
O15   C7    1.268695 A    
C87   C88   1.523903 S    
O46   Cr10  1.968697 S    
C79   C80   1.368211 A    
O14   Cr6   1.958173 S    
C7    C35   1.457050 S    
C62   H26   1.108718 S    
C51   C67   1.495035 S    
C52   C68   1.493394 S    
C53   C57   1.376712 A    
C76   C83   1.396230 A    
C121  O69   1.222220 D    
C2    O10   1.301647 A    
C56   H16   1.082596 S    
C111  H55   1.111401 S    
C94   C110  1.491014 S    
C79   C87   1.504193 S    
C74   C78   1.392263 A    
N7    O66   1.298311 A    
C25   H5    1.104987 S    
Cr12  O52   1.987060 S    
C26   C33   1.523357 S    
C27   H7    1.102289 S    
C17   O41   1.296701 A    
C43   C47   1.402428 A    
C30   C37   1.541166 S    
C19   O43   1.254332 A    
C20   O44   1.285507 A    
Cr8   O52   1.996096 S    
C61   H25   1.110857 S    
C10   C70   1.467667 S    
O46   C22   1.266240 A    
C31   H3    1.110659 S    
C28   H8    1.109524 S    
C4    C41   1.449048 S    
C92   C108  1.391868 A    
C62   H24   1.109497 S    
C16   O36   1.260732 A    
C63   H21   1.110291 S    
O27   C23   1.262968 A    
O31   C15   1.268928 A    
O32   C16   1.292163 A    
O47   Cr11  1.961572 S    
C16   C89   1.436485 S    
C39   C40   1.543472 S    
C97   C117  1.407017 A    
C78   C86   1.497233 S    
O5    C1    1.306450 A    
C95   C111  1.482843 S    
O24   C12   1.285002 A    
C110  H54   1.107727 S    
C90   C106  1.384157 A    
C47   C63   1.492837 S    
O8    Cr4   1.965360 S    
N5    O61   1.298186 A    
C42   C46   1.403378 A    
C45   C61   1.493020 S    
O32   Cr4   1.949223 S    
C26   H6    1.104276 S    
C2    C43   1.464846 S    
C64   H22   1.108298 S    
C63   C67   1.527396 S    
O11   Cr7   2.069263 S    
C49   C65   1.499567 S    
C54   H14   1.082001 S    
C55   C71   1.407393 A    
C88   N4    1.462697 S    
O3    Cr3   2.075057 S    
C38   H10   1.107303 S    
C21   C117  1.440796 S    
C42   C58   1.401499 A    
C96   C100  1.364158 A    
C13   C92   1.441326 S    
Cr5   O49   1.986857 S    
C103  C107  1.402926 A    
C104  C108  1.397388 A    
C91   C95   1.384071 A    
C32   C39   1.543510 S    
O22   C10   1.285183 A    
C112  H56   1.113715 S    
C18   C73   1.459124 S    
C110  C114  1.517588 S    
C27   C28   1.549959 S    
C11   C71   1.468029 S    
C82   H34   1.077127 S    
C53   H13   1.082611 S    
C86   N2    1.464535 S    
C66   H30   1.107478 S    
C102  C106  1.383472 A    
C47   C51   1.391519 A    
O3    C11   1.271486 A    
C56   C60   1.391857 A    
Cr1   O49   1.989100 S    
C101  H41   1.076972 S    
C67   H31   1.104695 S    
N8    O68   1.302407 A    
Cr3   O51   1.989100 S    
C88   H38   1.108070 S    
C29   H1    1.107870 S    
C40   H12   1.108352 S    
C17   C74   1.463228 S    
O26   Cr2   2.086575 S    
C5    O17   1.263567 A    
O29   C13   1.290157 A    
O28   C24   1.262088 A    
O14   C6    1.274436 A    
C20   C75   1.447089 S    
C35   C39   1.521453 S    
C8    O20   1.262427 A    
N6    O63   1.300240 A    
Cr11  O51   1.995914 S    
C104  C120  1.409717 A    
C65   H29   1.112475 S    
O40   Cr8   1.948521 S    
C114  N6    1.467222 S    
C98   C114  1.493479 S    
C63   H27   1.111253 S    
C49   C69   1.402422 A    
C104  H44   1.073391 S    
C90   C94   1.397235 A    
C102  C118  1.401053 A    
C32   H4    1.110066 S    
C96   C112  1.485762 S    
O33   Cr5   2.086727 S    
C114  H58   1.106196 S    
O5    Cr1   1.956390 S    
O35   Cr7   2.086727 S    
O29   Cr1   1.956418 S    
C122  O70   1.221292 D    
C1    C44   1.467638 S    
C73   C77   1.408057 A    
C124  H64   1.085183 S    
C3    C42   1.465036 S    
Cr9   O49   1.995914 S    
C76   C80   1.406551 A    
C18   O42   1.252373 A    
C95   C99   1.362081 A    
O26   C22   1.259961 A    
O20   Cr12  2.089475 S    
C123  H63   1.085221 S    
N3    O57   1.298519 A    
C85   C86   1.522871 S    
C103  C119  1.406798 A    
C107  H47   1.082713 S    
C100  C116  1.522112 S    
C31   C40   1.539355 S    
O38   C18   1.299041 A    
C83   H35   1.078787 S    
C30   H2    1.109687 S    
C81   H33   1.060177 S    
O30   C14   1.301389 A    
C33   C37   1.526007 S    
C84   H36   1.063848 S    
O41   Cr9   2.063293 S    
C26   C30   1.545681 S    
C8    C36   1.453108 S    
C65   C121  1.507594 S    
O8    C4    1.285929 A    
C48   C52   1.392774 A    
O42   Cr10  2.063657 S    
C77   C85   1.509492 S    
O18   Cr10  2.089475 S    
C121  H61   1.083821 S    
C67   C123  1.505226 S    
C110  H50   1.109507 S    
O34   Cr6   2.075847 S    
O6    Cr2   1.965360 S    
O24   Cr12  1.944940 S    
O30   Cr2   1.949223 S    
C61   H23   1.110006 S    
C74   C81   1.398127 A    
O48   Cr12  1.968697 S    
C112  C116  1.501347 S    
C115  N7    1.458791 S    
C46   C62   1.491022 S    
C62   C66   1.527087 S    
O37   C17   1.316335 A    
C52   C72   1.400188 A    
C15   O35   1.255825 A    
Cr10  O50   1.987060 S    
C50   C66   1.493994 S    
C43   C59   1.403081 A    
C36   C40   1.528039 S    
O43   Cr11  2.063293 S    
O48   C24   1.278558 A    
C44   C60   1.402612 A    
C113  H57   1.107671 S    
O37   Cr5   1.948535 S    
O21   Cr9   1.944529 S    
N4    O59   1.300151 A    
C111  C115  1.526968 S    
O39   Cr7   1.948535 S    
O45   Cr9   1.961572 S    
C13   O33   1.258166 A    
O13   Cr5   1.967573 S    
C106  H46   1.080624 S    
O23   Cr11  1.944529 S    
C99   C119  1.404801 A    
O15   Cr7   1.967573 S    
C31   C35   1.541122 S    
C103  H43   1.080786 S    
N1    O54   1.301599 A    
C112  H52   1.107953 S    
O23   C11   1.285520 A    
C64   H28   1.105489 S    
C19   C76   1.445360 S    
C93   C109  1.485729 S    
N2    O55   1.302673 A    
C61   C65   1.521724 S    
C27   C36   1.520444 S    
C48   C64   1.492120 S    
C64   C68   1.528047 S    
O6    C2    1.309752 A    
C109  H53   1.114100 S    
O1    Cr1   2.075057 S    
O19   Cr11  2.083941 S    
C37   C38   1.541056 S    
C85   H39   1.103562 S    
C58   H18   1.083285 S    
O45   C21   1.281265 A    
C22   C118  1.405343 S    
O47   C23   1.288397 A    
C87   N3    1.464973 S    
C83   C84   1.398295 A    
O40   C20   1.310316 A    
C81   C82   1.407895 A    
C6    O18   1.263758 A    
C68   C124  1.504268 S    
C25   C26   1.548053 S    
O36   Cr8   2.075847 S    
C5    C33   1.454616 S    
O38   Cr6   1.948521 S    
C98   C118  1.376671 A    
C15   C90   1.408689 S    
C28   C32   1.546132 S    
C92   C96   1.386076 A    
C116  N8    1.435662 S    
C50   C70   1.400232 A    
O1    C9    1.271070 A    
C14   C91   1.448072 S    
C77   C78   1.371684 A    
O7    C3    1.307502 A    
C116  H60   1.108765 S    
C68   H32   1.106460 S    
C57   H17   1.082430 S    
C123  O71   1.221200 D    
C55   C59   1.390976 A    
C60   H20   1.083364 S    
N3    O58   1.300729 A    
C59   H19   1.083308 S    
C41   C45   1.396014 A    
C29   C33   1.538681 S    
C45   C49   1.388349 A    
O16   C8    1.270374 A    
C93   C97   1.365763 A    
C7    O19   1.273860 A    
Cr4   O52   1.988915 S    
O2    Cr2   2.068730 S    
C37   H9    1.103540 S    
Cr6   O50   1.996096 S    
C100  C120  1.405417 A    
C25   C29   1.548898 S    
O9    Cr5   2.069263 S    
C23   C119  1.450092 S    
C56   C72   1.408337 A    
C111  H51   1.091459 S    
N6    O64   1.302770 A    
C109  C113  1.497078 S    
O7    Cr3   1.956390 S    
C6    C34   1.455166 S    
C75   C79   1.394294 A    
N5    O62   1.302801 A    
C46   C50   1.392858 A    
C94   C98   1.377967 A    
C91   C107  1.413890 A    
C28   C35   1.535630 S    
C89   C105  1.391013 A    
C101  C105  1.395500 A    
C105  H45   1.078737 S    
Cr2   O50   1.988915 S    
C9    C69   1.443410 S    
O27   Cr3   2.076101 S    
C124  O72   1.221337 D    
C75   C84   1.398407 A    
C73   C82   1.394276 A    
C34   C38   1.529241 S    
O25   Cr1   2.076101 S    
C30   C34   1.540258 S    
C14   O34   1.306465 A    
C99   C115  1.513065 S    
C97   C113  1.521145 S    
C89   C93   1.387471 A    
C101  C117  1.409517 A    
C115  H59   1.113606 S    
O10   Cr6   2.069966 S    
C66   C122  1.505445 S    
O4    Cr4   2.068730 S    
N8    O67   1.299483 A    
C27   C31   1.543670 S    
C39   H11   1.100846 S    
C44   C48   1.405276 A    
C51   C71   1.402382 A    
