data_str_m2_o10_o13_f0_pcu.sym.1
_audit_creation_date              2012-10-26T19:57:49-0400
_audit_creation_method            fapswitch 2.2
_symmetry_space_group_name_H-M    P1
_symmetry_Int_Tables_number       1
_space_group_crystal_system       triclinic
_cell_length_a                    7.476505
_cell_length_b                    8.709377
_cell_length_c                    13.072467
_cell_angle_alpha                 87.759513
_cell_angle_beta                  80.301568
_cell_angle_gamma                 103.326529
_cell_volume                      813.764416491

loop_
_atom_site_label
_atom_site_type_symbol
_atom_type_description
_atom_site_fract_x
_atom_site_fract_y
_atom_site_fract_z
_atom_type_partial_charge
C1    C     C_R   0.452428 0.199589 0.503847 0.531453
C2    C     C_R   0.715895 0.585961 0.126307 -0.153075
C3    C     C_R   0.606687 0.565047 0.860793 0.009832
C4    C     C_R   0.393325 0.434961 0.139198 0.009816
C5    C     C_R   0.586712 0.542789 0.969787 0.039283
C6    C     C_R   0.413306 0.457176 0.030202 0.039256
C7    C     C_2   0.426084 0.031286 0.508361 -0.156336
C8    C     C_2   0.573918 0.968714 0.491649 -0.156317
C9    C     C_2   0.219269 0.330970 0.201136 0.206904
C10   C     C_2   0.780676 0.669177 0.798871 0.206865
C11   C     C_3   0.924860 0.249618 0.646756 0.045013
C12   C     C_R   0.547572 0.800411 0.496156 0.531448
C13   C     C_3   0.753327 0.175744 0.728924 -0.379677
C14   C     C_3   0.075130 0.750465 0.353306 0.044990
C15   C     C_3   0.246640 0.824415 0.271143 -0.379643
C16   C     C_R   0.469455 0.499599 0.700534 0.529238
C17   C     C_R   0.530548 0.500404 0.299463 0.529229
C18   C     C_R   0.544723 0.506272 0.186932 -0.014864
C19   C     C_R   0.455290 0.493724 0.813062 -0.014855
C20   C     C_R   0.262204 0.398076 0.980495 -0.115301
C21   C     C_R   0.737810 0.601879 0.019496 -0.115246
C22   C     C_R   0.284118 0.414010 0.873686 -0.153089
Cu1   Cu    Cu3+1 0.686350 0.517570 0.488220 1.034897
Cu2   Cu    Cu3+1 0.313650 0.482430 0.511780 1.034925
H1    H     H_    0.834518 0.638065 0.161608 0.136875
H2    H     H_    0.919241 0.179471 0.577427 0.131561
H3    H     H_    0.624355 0.186050 0.700619 0.162510
H4    H     H_    0.745955 0.048682 0.745583 0.175332
H5    H     H_    0.760454 0.236619 0.801773 0.147233
H6    H     H_    0.080732 0.820565 0.422657 0.131572
H7    H     H_    0.948707 0.757134 0.321262 0.161732
H8    H     H_    0.239296 0.763830 0.198196 0.147176
H9    H     H_    0.254230 0.951568 0.254707 0.175249
H10   H     H_    0.375604 0.813759 0.299331 0.162616
H11   H     H_    0.165493 0.361918 0.838386 0.136879
H12   H     H_    0.125239 0.338214 0.023133 0.163836
H13   H     H_    0.874776 0.661724 0.976855 0.163817
H14   H     H_    0.284014 0.958537 0.526690 0.125219
H15   H     H_    0.715989 0.041463 0.473325 0.125246
H16   H     H_    0.132013 0.376569 0.260980 0.184047
H17   H     H_    0.867996 0.623737 0.738961 0.184000
H18   H     H_    0.051268 0.242941 0.678812 0.161681
N1    N     N_2   0.033570 0.455950 0.529530 0.088808
N2    N     N_2   0.966430 0.544050 0.470470 0.088804
O1    O     O_R   0.621060 0.286250 0.492350 -0.490122
O2    O     O_2   0.829959 0.807455 0.816864 -0.550311
O3    O     O_3   0.923858 0.408063 0.622851 -0.481170
O4    O     O_3   0.076185 0.592020 0.377170 -0.481224
O5    O     O_R   0.378940 0.713750 0.507650 -0.490106
O6    O     O_R   0.306310 0.256580 0.512240 -0.536364
O7    O     O_R   0.693690 0.743420 0.487760 -0.536408
O8    O     O_R   0.631800 0.512400 0.642670 -0.483862
O9    O     O_R   0.368200 0.487600 0.357330 -0.483864
O10   O     O_R   0.317060 0.482730 0.662570 -0.512629
O11   O     O_R   0.682940 0.517270 0.337430 -0.512632
O12   O     O_2   0.169893 0.192660 0.183239 -0.550247

loop_
_geom_bond_atom_site_label_1
_geom_bond_atom_site_label_2
_ccdc_geom_bond_type
C10   O2    D    
N1    N2    D    
C13   H4    S    
C3    C19   A    
Cu1   O1    S    
C8    H15   S    
C2    C18   A    
C6    C20   A    
C1    O6    A    
C17   O11   A    
C15   H10   S    
C11   O3    S    
C14   H7    S    
C8    C12   S    
C4    C18   A    
C12   O7    A    
C2    C21   A    
C17   C18   S    
C4    C9    S    
C5    C21   A    
C15   H8    S    
C9    O12   D    
C10   H17   S    
Cu1   O11   S    
C22   H11   S    
C11   C13   S    
C1    O1    A    
Cu1   O8    S    
C16   O8    A    
N1    O3    S    
C14   H6    S    
C16   C19   S    
C13   H5    S    
C7    H14   S    
C20   C22   A    
C12   O5    A    
C2    H1    S    
Cu2   O6    S    
C5    C6    A    
C16   O10   A    
Cu1   Cu2   S    
Cu2   O10   S    
C20   H12   S    
C17   O9    A    
C7    C8    D    
C19   C22   A    
C21   H13   S    
C11   H18   S    
C4    C6    A    
Cu2   O5    S    
C3    C10   S    
Cu2   N1    S    
C14   C15   S    
C13   H3    S    
C14   O4    S    
C11   H2    S    
Cu2   O9    S    
C1    C7    S    
Cu1   O7    S    
C15   H9    S    
C9    H16   S    
Cu1   N2    S    
N2    O4    S    
C3    C5    A    
