data_str_m3_o4_o4_f0_pcu.sym.105
_audit_creation_date              2013-03-05T16:45:07-0500
_audit_creation_method            fapswitch 2.2
_symmetry_space_group_name_H-M    P1
_symmetry_Int_Tables_number       1
_space_group_crystal_system       triclinic
_cell_length_a                    14.734538
_cell_length_b                    15.57835
_cell_length_c                    9.997994
_cell_angle_alpha                 90.000512
_cell_angle_beta                  88.433551
_cell_angle_gamma                 90.000294
_cell_volume                      2294.07981142

loop_
_atom_site_label
_atom_site_type_symbol
_atom_site_description
_atom_site_fract_x
_atom_site_fract_y
_atom_site_fract_z
_atom_type_partial_charge
O1    O     O_R   0.408400 0.908380 0.614690 -0.614206
O2    O     O_R   0.408400 0.091620 0.614690 -0.608711
O3    O     O_R   0.908400 0.408380 0.614690 -0.608712
O4    O     O_R   0.908400 0.591620 0.614690 -0.614207
O5    O     O_R   0.408370 0.908370 0.385350 -0.613081
O6    O     O_R   0.408370 0.091630 0.385350 -0.619188
O7    O     O_R   0.908370 0.408370 0.385350 -0.619187
O8    O     O_R   0.908370 0.591630 0.385350 -0.613068
C1    C     C_R   0.382613 0.878508 0.501391 0.885979
C2    C     C_R   0.374676 0.115054 0.500138 0.892019
C3    C     C_R   0.874676 0.384946 0.500138 0.892019
C4    C     C_R   0.882612 0.621491 0.501392 0.885974
Zn1   Zn    Zn3+2 0.500010 0.000000 0.653130 0.929070
Zn2   Zn    Zn3+2 0.000010 0.500000 0.653130 0.929068
Zn3   Zn    Zn3+2 0.499980 0.000000 0.346870 0.918231
Zn4   Zn    Zn3+2 0.999980 0.500000 0.346870 0.918241
O9    O     O_R   0.591610 0.091610 0.614650 -0.630862
O10   O     O_R   0.591610 0.908390 0.614650 -0.625081
O11   O     O_R   0.091610 0.591610 0.614650 -0.625085
O12   O     O_R   0.091610 0.408390 0.614650 -0.630863
O13   O     O_R   0.591590 0.091600 0.385310 -0.623627
O14   O     O_R   0.591590 0.908400 0.385310 -0.629145
O15   O     O_R   0.091590 0.591600 0.385310 -0.629123
O16   O     O_R   0.091590 0.408400 0.385310 -0.623629
C5    C     C_R   0.613158 0.125618 0.499849 0.879948
C6    C     C_R   0.623200 0.883040 0.498890 0.887415
C7    C     C_R   0.123199 0.616961 0.498893 0.887411
C8    C     C_R   0.113158 0.374382 0.499848 0.879939
C9    C     C_R   0.262956 0.202658 0.618520 0.033531
C10   C     C_R   0.265855 0.794125 0.611333 0.029439
C11   C     C_R   0.765868 0.705892 0.611347 0.029451
C12   C     C_R   0.762959 0.297341 0.618521 0.033535
C13   C     C_R   0.291889 0.165528 0.499699 -0.183302
C14   C     C_R   0.329015 0.802810 0.506627 -0.159292
C15   C     C_R   0.829017 0.697190 0.506628 -0.159307
C16   C     C_R   0.791889 0.334472 0.499700 -0.183301
C17   C     C_R   0.233749 0.172378 0.387521 0.166724
C18   C     C_R   0.342041 0.735088 0.413918 0.183850
C19   C     C_R   0.842030 0.764895 0.413887 0.183860
C20   C     C_R   0.733746 0.327624 0.387526 0.166726
C21   C     C_R   0.774138 0.828622 0.409161 0.165162
C22   C     C_R   0.662910 0.265280 0.392047 0.176105
C23   C     C_R   0.162913 0.234721 0.392042 0.176104
C24   C     C_R   0.274160 0.671347 0.409221 0.165153
C25   C     C_R   0.698375 0.824170 0.500223 -0.158249
C26   C     C_R   0.658570 0.208469 0.502932 -0.204353
C27   C     C_R   0.158571 0.291531 0.502929 -0.204348
C28   C     C_R   0.198376 0.675827 0.500237 -0.158221
C29   C     C_R   0.701409 0.768008 0.607521 0.073627
C30   C     C_R   0.696143 0.237112 0.621724 0.102106
C31   C     C_R   0.196141 0.262887 0.621722 0.102106
C32   C     C_R   0.201395 0.732008 0.607514 0.073633
C33   C     C_3   0.630521 0.712595 0.674669 -0.002229
C34   C     C_3   0.735950 0.194293 0.740651 -0.003174
C35   C     C_3   0.235946 0.305706 0.740654 -0.003171
C36   C     C_3   0.130503 0.787430 0.674633 -0.002242
C37   C     C_3   0.312526 0.240115 0.732236 -0.457962
C38   C     C_3   0.202461 0.857074 0.677378 -0.482380
C39   C     C_3   0.702480 0.642953 0.677427 -0.482392
C40   C     C_3   0.812533 0.259881 0.732230 -0.457964
H1    H     H_    0.378839 0.268537 0.700008 0.176332
H2    H     H_    0.220383 0.871051 0.781201 0.182217
H3    H     H_    0.720408 0.628995 0.781254 0.182221
H4    H     H_    0.878843 0.231459 0.699995 0.176329
H5    H     H_    0.315609 0.195158 0.818480 0.214341
H6    H     H_    0.189563 0.914324 0.614020 0.202684
H7    H     H_    0.689576 0.585691 0.614096 0.202686
H8    H     H_    0.815620 0.304838 0.818476 0.214343
C41   C     C_R   0.420656 0.002746 0.073736 0.167035
C42   C     C_R   0.920656 0.497247 0.073735 0.167035
N1    N     N_R   0.499140 0.000000 0.142800 -0.127099
N2    N     N_R   0.999140 0.500000 0.142800 -0.127096
C43   C     C_R   0.578709 0.007243 0.067937 0.200778
C44   C     C_R   0.078710 0.492760 0.067938 0.200776
C45   C     C_R   0.579426 0.000733 0.924924 0.221310
C46   C     C_R   0.079426 0.499269 0.924924 0.221304
N3    N     N_R   0.499160 0.000000 0.857150 -0.130378
N4    N     N_R   0.999160 0.500000 0.857150 -0.130380
C47   C     C_R   0.420768 0.005596 0.932394 0.151860
C48   C     C_R   0.920769 0.494399 0.932393 0.151865
C49   C     C_3   0.344649 0.943562 0.927994 -0.511607
C50   C     C_3   0.844648 0.556429 0.927994 -0.511615
C51   C     C_3   0.346649 0.937661 0.078889 -0.487624
C52   C     C_3   0.846642 0.562324 0.078890 -0.487635
C53   C     C_3   0.246732 0.114231 0.267296 -0.863954
H9    H     H_    0.308811 0.133137 0.209351 0.255805
H10   H     H_    0.251761 0.047055 0.303068 0.235147
H11   H     H_    0.190885 0.115742 0.195848 0.227236
C54   C     C_3   0.425184 0.730239 0.320568 -0.895591
H12   H     H_    0.479177 0.776588 0.343741 0.262249
H13   H     H_    0.458260 0.666709 0.330205 0.230058
H14   H     H_    0.405080 0.739691 0.215481 0.239543
C55   C     C_3   0.925176 0.769743 0.320545 -0.895566
H15   H     H_    0.979185 0.723423 0.343767 0.262236
H16   H     H_    0.905086 0.760246 0.215464 0.239523
H17   H     H_    0.958224 0.833291 0.330135 0.230078
C56   C     C_3   0.746724 0.385774 0.267307 -0.863973
H18   H     H_    0.808801 0.366871 0.209355 0.255808
H19   H     H_    0.690874 0.384267 0.195865 0.227238
H20   H     H_    0.751757 0.452949 0.303088 0.235148
H21   H     H_    0.282917 0.961019 0.127322 0.202360
H22   H     H_    0.370109 0.874247 0.114919 0.219529
H23   H     H_    0.870094 0.625739 0.114928 0.219528
H24   H     H_    0.782911 0.538959 0.127313 0.202364
C57   C     C_3   0.779621 0.897649 0.305451 -0.921658
H25   H     H_    0.727529 0.881962 0.231660 0.262857
H26   H     H_    0.769857 0.960627 0.355637 0.231435
H27   H     H_    0.844411 0.902647 0.247949 0.244674
C58   C     C_3   0.591551 0.263413 0.285612 -0.867473
H28   H     H_    0.532405 0.222646 0.312733 0.261178
H29   H     H_    0.561976 0.328433 0.274187 0.223192
H30   H     H_    0.621965 0.241806 0.188627 0.239999
C59   C     C_3   0.091554 0.236587 0.285607 -0.867479
H31   H     H_    0.032407 0.277351 0.312731 0.261175
H32   H     H_    0.121968 0.258198 0.188624 0.239997
H33   H     H_    0.061983 0.171566 0.274176 0.223194
C60   C     C_3   0.279670 0.602280 0.305576 -0.921657
H34   H     H_    0.227650 0.617983 0.231687 0.262822
H35   H     H_    0.344503 0.597216 0.248204 0.244687
H36   H     H_    0.269814 0.539325 0.355789 0.231419
H37   H     H_    0.610044 0.736763 0.775798 0.171451
H38   H     H_    0.759190 0.127783 0.719825 0.155306
H39   H     H_    0.259189 0.372215 0.719831 0.155307
H40   H     H_    0.110020 0.763277 0.775768 0.171451
C61   C     C_3   0.550526 0.689073 0.588365 -0.879940
H41   H     H_    0.574461 0.670422 0.486160 0.246478
H42   H     H_    0.512462 0.634637 0.634509 0.246052
H43   H     H_    0.504263 0.744792 0.583029 0.250249
C62   C     C_3   0.675320 0.206231 0.866260 -0.864040
H44   H     H_    0.654903 0.274484 0.879743 0.240040
H45   H     H_    0.612682 0.167463 0.858676 0.266601
H46   H     H_    0.713167 0.186203 0.955202 0.233552
C63   C     C_3   0.175311 0.293769 0.866258 -0.864038
H47   H     H_    0.154891 0.225517 0.879738 0.240039
H48   H     H_    0.213155 0.313797 0.955204 0.233552
H49   H     H_    0.112674 0.332538 0.858670 0.266601
C64   C     C_3   0.050513 0.810937 0.588313 -0.879972
H50   H     H_    0.074453 0.829568 0.486100 0.246487
H51   H     H_    0.004249 0.755217 0.583001 0.250241
H52   H     H_    0.012449 0.865382 0.634428 0.246059
C65   C     C_3   0.664845 0.029051 0.135411 -0.878821
H53   H     H_    0.659878 0.007798 0.237496 0.306005
H54   H     H_    0.725017 0.995704 0.092216 0.221425
H55   H     H_    0.676117 0.099225 0.133636 0.235118
C66   C     C_3   0.164844 0.470953 0.135413 -0.878781
H56   H     H_    0.159877 0.492212 0.237495 0.306006
H57   H     H_    0.176112 0.400779 0.133647 0.235114
H58   H     H_    0.225019 0.504294 0.092214 0.221407
C67   C     C_3   0.669546 0.987189 0.852021 -0.848279
H59   H     H_    0.721513 0.032787 0.885818 0.216238
H60   H     H_    0.693635 0.920752 0.869942 0.219580
H61   H     H_    0.668261 0.998274 0.745063 0.287073
C68   C     C_3   0.169546 0.512814 0.852021 -0.848264
H62   H     H_    0.221513 0.467215 0.885817 0.216233
H63   H     H_    0.168260 0.501728 0.745062 0.287073
H64   H     H_    0.193635 0.579251 0.869943 0.219584
H65   H     H_    0.282662 0.976043 0.892524 0.195382
H66   H     H_    0.364067 0.882591 0.876973 0.225734
H67   H     H_    0.864069 0.617402 0.876983 0.225727
H68   H     H_    0.782663 0.523949 0.892511 0.195393

loop_
_geom_bond_atom_site_label_1
_geom_bond_atom_site_label_2
_geom_bond_distance
_ccdc_geom_bond_type
C7    C28   1.438384 S    
C38   H2    1.099826 S    
C8    C27   1.454536 S    
C55   H15   1.103630 S    
C50   H67   1.111878 S    
C51   H22   1.109949 S    
C44   C66   1.492678 S    
C57   H25   1.106388 S    
O10   C6    1.297177 A    
O3    C3    1.312623 A    
C56   H20   1.109057 S    
C56   H18   1.109097 S    
C33   C39   1.517753 S    
C19   C21   1.411067 A    
C43   C65   1.492680 S    
C53   H9    1.109101 S    
O7    C3    1.290573 A    
C57   H26   1.109520 S    
C18   C54   1.521534 S    
C30   C34   1.496984 S    
C21   C57   1.494477 S    
Zn1   O10   1.994490 S    
C12   C16   1.378364 A    
C17   C53   1.513060 S    
C3    C16   1.451399 S    
C22   C58   1.516556 S    
C46   N4    1.379073 A    
C59   H31   1.106079 S    
C58   H29   1.109796 S    
N4    C48   1.363887 A    
C9    C13   1.378367 A    
C46   C68   1.511987 S    
C50   H68   1.110732 S    
C22   C26   1.418642 A    
C11   C39   1.495476 S    
C41   N1    1.363673 A    
O2    Zn1   2.008804 S    
C19   C55   1.521533 S    
O13   C5    1.308857 A    
C6    C25   1.438398 S    
C56   H19   1.104573 S    
O6    Zn3   1.994811 S    
C65   H53   1.073594 S    
C38   H6    1.113278 S    
Zn3   O14   2.008582 S    
Zn4   N2    2.040668 S    
C63   H49   1.107315 S    
O15   C7    1.300577 A    
C54   H13   1.108549 S    
C42   C52   1.488855 S    
O4    C4    1.291353 A    
C62   H46   1.107343 S    
C39   H7    1.113282 S    
O8    Zn4   1.994811 S    
C53   H10   1.109059 S    
C34   H38   1.109163 S    
Zn4   O16   2.008582 S    
C43   C45   1.433192 A    
C67   H60   1.110291 S    
C11   C29   1.357179 A    
C49   C51   1.512534 S    
C18   C24   1.411082 A    
C66   H56   1.073592 S    
C35   H39   1.109164 S    
N3    C47   1.363893 A    
C64   H52   1.110123 S    
Zn1   N3    2.039488 S    
C49   H65   1.110728 S    
C10   C14   1.388178 A    
C42   C48   1.413789 A    
Zn2   O12   1.994490 S    
C16   C20   1.433765 A    
O1    C1    1.291356 A    
C48   C50   1.482032 S    
C67   H61   1.083900 S    
C20   C56   1.513051 S    
C47   C49   1.482041 S    
C34   C40   1.522882 S    
O12   C8    1.295750 A    
C35   C63   1.532473 S    
C13   C17   1.433772 A    
C58   H30   1.109329 S    
C54   H14   1.109198 S    
C65   H54   1.105229 S    
C17   C23   1.425510 A    
C15   C19   1.413941 A    
O5    C1    1.297070 A    
C41   C51   1.488852 S    
C61   H43   1.105877 S    
C64   H51   1.105872 S    
C25   C29   1.385976 A    
O8    C4    1.297073 A    
C57   H27   1.103599 S    
C4    C15   1.419427 S    
C61   H42   1.110124 S    
C45   N3    1.379071 A    
C12   C30   1.359734 A    
O3    Zn2   2.008789 S    
C33   C61   1.524379 S    
N2    C44   1.378232 A    
O7    Zn4   1.994807 S    
C9    C37   1.487274 S    
Zn4   O15   2.008568 S    
C50   C52   1.512531 S    
C35   C37   1.522885 S    
C61   H41   1.110534 S    
C52   H24   1.106278 S    
C11   C15   1.388184 A    
C60   H36   1.109508 S    
C68   H63   1.083904 S    
C44   C46   1.433194 A    
O2    C2    1.312628 A    
C36   H40   1.112834 S    
C66   H58   1.105224 S    
O11   C7    1.297150 A    
N1    C43   1.378236 A    
C62   H44   1.112196 S    
C9    C31   1.359737 A    
C53   H11   1.104576 S    
C34   C62   1.532471 S    
C10   C32   1.357172 A    
C21   C25   1.422785 A    
C49   H66   1.111874 S    
C51   H21   1.106277 S    
C14   C18   1.413953 A    
Zn2   O11   1.994484 S    
O16   C8    1.308860 A    
C37   H5    1.112752 S    
O6    C2    1.290571 A    
C27   C31   1.397185 A    
C37   H1    1.112352 S    
C65   H55   1.105803 S    
C55   H17   1.108552 S    
Zn3   N1    2.040668 S    
C64   H50   1.110533 S    
C26   C30   1.397183 A    
C39   H3    1.099829 S    
Zn1   O9    1.994484 S    
C40   H4    1.112351 S    
O9    C5    1.295751 A    
C59   H33   1.109794 S    
C60   H35   1.103572 S    
C54   H12   1.103636 S    
C33   H37   1.112836 S    
C60   H34   1.106360 S    
C23   C59   1.516555 S    
C36   C64   1.524365 S    
C68   H64   1.110294 S    
C63   H47   1.112196 S    
Zn3   O13   2.008568 S    
C24   C60   1.494469 S    
C45   C67   1.511987 S    
C29   C33   1.499513 S    
C66   H57   1.105804 S    
C10   C38   1.495469 S    
C20   C22   1.425508 A    
C36   C38   1.517758 S    
C1    C14   1.419427 S    
C2    C13   1.451406 S    
C31   C35   1.496984 S    
Zn2   N4    2.039488 S    
O4    Zn2   2.008804 S    
O5    Zn3   1.994807 S    
C41   C47   1.413789 A    
C32   C36   1.499509 S    
C28   C32   1.385976 A    
O1    Zn1   2.008790 S    
C40   H8    1.112752 S    
C55   H16   1.109178 S    
O14   C6    1.300561 A    
C58   H28   1.106080 S    
C63   H48   1.107345 S    
C52   H23   1.109939 S    
C12   C40   1.487272 S    
C42   N2    1.363680 A    
C59   H32   1.109326 S    
C68   H62   1.104189 S    
C67   H59   1.104186 S    
C23   C27   1.418640 A    
C5    C26   1.454531 S    
C24   C28   1.422763 A    
C62   H45   1.107315 S    
