data_str_m2_o10_o28_f0_pcu.sym.60
_audit_creation_date              2012-10-26T20:18:18-0400
_audit_creation_method            fapswitch 2.2
_symmetry_space_group_name_H-M    P1
_symmetry_Int_Tables_number       1
_space_group_crystal_system       triclinic
_cell_length_a                    23.454023
_cell_length_b                    8.745987
_cell_length_c                    7.527358
_cell_angle_alpha                 102.960226
_cell_angle_beta                  93.821375
_cell_angle_gamma                 92.302135
_cell_volume                      1498.98301968

loop_
_atom_site_label
_atom_site_type_symbol
_atom_type_description
_atom_site_fract_x
_atom_site_fract_y
_atom_site_fract_z
_atom_type_partial_charge
C1    C     C_R   0.497838 0.200722 0.454372 0.532521
C2    C     C_R   0.701339 0.625770 0.436308 0.003089
C3    C     C_R   0.239362 0.382695 0.575040 0.001479
C4    C     C_R   0.760637 0.617287 0.424939 0.001485
C5    C     C_R   0.210575 0.506229 0.525612 0.196055
C6    C     C_R   0.789424 0.493754 0.474368 0.196057
C7    C     C_2   0.488058 0.034951 0.435556 -0.032950
C8    C     C_2   0.511942 0.965049 0.564444 -0.032951
C9    C     C_R   0.391470 0.498485 0.502693 0.531289
C10   C     C_R   0.608530 0.501515 0.497307 0.531288
C11   C     C_R   0.881937 0.616929 0.599093 0.424415
C12   C     C_R   0.502162 0.799278 0.545628 0.532521
C13   C     C_R   0.118062 0.383051 0.400884 0.424411
C14   C     C_R   0.876781 0.376038 0.372954 0.419735
C15   C     C_R   0.123218 0.623937 0.627035 0.419730
C16   C     C_R   0.936620 0.375593 0.379045 0.020972
C17   C     C_R   0.063379 0.624379 0.620944 0.020960
C18   C     C_R   0.969760 0.499338 0.498078 -0.041610
C19   C     C_R   0.030239 0.500638 0.501901 -0.041617
C20   C     C_R   0.942495 0.621375 0.613010 0.040345
C21   C     C_R   0.057504 0.378598 0.386971 0.040345
C22   C     C_R   0.963607 0.254791 0.266426 -0.127895
C23   C     C_R   0.241393 0.625075 0.469763 -0.035813
C24   C     C_R   0.036392 0.745169 0.733582 -0.127874
C25   C     C_R   0.023140 0.256030 0.266265 0.007910
C26   C     C_R   0.976859 0.743928 0.733738 0.007912
C27   C     C_2   0.046686 0.127539 0.134575 0.274972
C28   C     C_2   0.953310 0.872375 0.865477 0.274998
C29   C     C_2   0.327131 0.233448 0.596908 0.286896
C30   C     C_2   0.672871 0.766543 0.403084 0.286876
C31   C     C_2   0.443479 0.958168 0.288121 0.228039
C32   C     C_2   0.556521 0.041831 0.711879 0.228033
C33   C     C_2   0.434132 0.377569 0.939599 0.474644
C34   C     C_R   0.758606 0.374914 0.530227 -0.035817
C35   C     C_2   0.565873 0.622408 0.060394 0.474638
C36   C     C_R   0.300414 0.620596 0.462885 -0.099338
C37   C     C_R   0.699585 0.379400 0.537113 -0.099339
C38   C     C_R   0.329365 0.496534 0.509736 -0.006710
C39   C     C_R   0.670634 0.503462 0.490262 -0.006711
C40   C     C_R   0.298662 0.374219 0.563680 0.003089
Cu1   Cu    Cu3+1 0.506340 0.517380 0.684380 1.048821
Cu2   Cu    Cu3+1 0.493660 0.482620 0.315620 1.048810
H1    H     H_    0.219428 0.719810 0.429073 0.174292
H2    H     H_    0.628896 0.784728 0.434765 0.093017
H3    H     H_    0.214784 0.290331 0.615511 0.195837
H4    H     H_    0.785216 0.709648 0.384463 0.195842
H5    H     H_    0.442741 0.987565 0.155364 0.127419
H6    H     H_    0.557259 0.012434 0.844635 0.127420
H7    H     H_    0.436733 0.269623 0.837994 0.069337
H8    H     H_    0.563279 0.730339 0.162032 0.069349
H9    H     H_    0.780570 0.280181 0.570919 0.174290
H10   H     H_    0.323545 0.714139 0.420661 0.203475
H11   H     H_    0.676454 0.285861 0.579344 0.203476
H12   H     H_    0.938153 0.159975 0.174027 0.187680
H13   H     H_    0.061846 0.839969 0.826007 0.187715
H14   H     H_    0.038895 0.006917 0.144998 0.113399
H15   H     H_    0.961075 0.993007 0.855068 0.113399
H16   H     H_    0.371108 0.215275 0.565249 0.093022
N1    N     N_R   0.850825 0.495605 0.481395 -0.405320
N2    N     N_R   0.149173 0.504375 0.518585 -0.405328
N3    N     N_2   0.484110 0.456420 0.038520 -0.175246
N4    N     N_2   0.515890 0.543580 0.961480 -0.175248
O1    O     O_R   0.504120 0.286130 0.619770 -0.507108
O2    O     O_2   0.146134 0.267488 0.298902 -0.425502
O3    O     O_2   0.844660 0.258972 0.257547 -0.447576
O4    O     O_2   0.155339 0.740998 0.742453 -0.447563
O5    O     O_2   0.072572 0.155292 0.008841 -0.449585
O6    O     O_2   0.927446 0.844570 0.991228 -0.449638
O7    O     O_2   0.301581 0.134749 0.658265 -0.462216
O8    O     O_2   0.698420 0.865230 0.341709 -0.462216
O9    O     O_2   0.405296 0.870081 0.317090 -0.484570
O10   O     O_2   0.594703 0.129919 0.682910 -0.484572
O11   O     O_2   0.387262 0.425943 0.976023 -0.463126
O12   O     O_R   0.495880 0.713870 0.380230 -0.507107
O13   O     O_2   0.612741 0.574027 0.023941 -0.463114
O14   O     O_R   0.493410 0.256770 0.308360 -0.538160
O15   O     O_R   0.506590 0.743230 0.691640 -0.538157
O16   O     O_R   0.423230 0.514630 0.655730 -0.510644
O17   O     O_R   0.576770 0.485370 0.344270 -0.510664
O18   O     O_R   0.412530 0.485280 0.344320 -0.442238
O19   O     O_R   0.587470 0.514720 0.655680 -0.442228
O20   O     O_2   0.853866 0.732498 0.701068 -0.425555

loop_
_geom_bond_atom_site_label_1
_geom_bond_atom_site_label_2
_ccdc_geom_bond_type
Cu2   O18   S    
C12   O12   A    
C34   C37   A    
C15   N2    A    
C7    C8    D    
C32   O10   D    
C13   N2    A    
C4    H4    S    
C28   H15   S    
C24   H13   S    
C14   N1    A    
C35   O13   D    
C34   H9    S    
C19   C21   A    
C24   C26   A    
Cu1   O15   S    
C33   H7    S    
C23   H1    S    
C18   C19   A    
Cu1   Cu2   S    
C2    C39   A    
C22   C25   A    
C36   H10   S    
C37   H11   S    
C31   O9    D    
Cu2   O17   S    
C31   H5    S    
C32   H6    S    
C30   H2    S    
Cu1   N4    S    
C11   N1    A    
C1    O1    A    
C30   O8    D    
C29   O7    D    
C11   O20   S    
C11   C20   A    
Cu2   O12   S    
C17   C24   A    
C7    C31   S    
C8    C32   S    
C22   H12   S    
Cu1   O16   S    
C27   H14   S    
C15   O4    S    
C3    H3    S    
C6    C34   A    
C10   C39   S    
C9    O18   A    
C2    C4    A    
C5    C23   A    
C8    C12   S    
Cu1   O19   S    
C12   O15   A    
C35   H8    S    
C13   C21   A    
Cu2   N3    S    
C33   O11   D    
C3    C40   A    
C14   C16   A    
C4    C6    A    
Cu1   O1    S    
C15   C17   A    
C21   C25   A    
C16   C22   A    
C5    N2    S    
C28   O6    D    
C1    C7    S    
C1    O14   A    
C26   C28   S    
C6    N1    S    
C3    C5    A    
C10   O17   A    
C25   C27   S    
C10   O19   A    
Cu2   O14   S    
C2    C30   S    
C36   C38   A    
C37   C39   A    
C38   C40   A    
C13   O2    S    
C20   C26   A    
C33   N3    S    
C29   C40   S    
C9    C38   S    
C17   C19   A    
C14   O3    S    
C35   N4    S    
C18   C20   A    
C9    O16   A    
N3    N4    D    
C27   O5    D    
C29   H16   S    
C16   C18   A    
C23   C36   A    
