data_str_m3_o41_o41_f0_fof.sym.28
_audit_creation_date              2012-12-10T16:39:33-0500
_audit_creation_method            fapswitch 2.2
_symmetry_space_group_name_H-M    P1
_symmetry_Int_Tables_number       1
_space_group_crystal_system       triclinic
_cell_length_a                    16.829818
_cell_length_b                    16.859307
_cell_length_c                    16.806302
_cell_angle_alpha                 65.483279
_cell_angle_beta                  65.691081
_cell_angle_gamma                 65.667674
_cell_volume                      3782.99915108

loop_
_atom_site_label
_atom_site_type_symbol
_atom_type_description
_atom_site_fract_x
_atom_site_fract_y
_atom_site_fract_z
_atom_type_partial_charge
C1    C     C_R   0.327161 0.944512 0.460281 -0.032135
C2    C     C_R   0.314874 0.431251 0.001221 -0.048198
C3    C     C_R   0.551061 0.426355 0.961221 -0.050035
C4    C     C_R   0.042094 0.445064 0.574232 -0.051659
C5    C     C_R   0.979418 0.546475 0.417664 -0.049945
C6    C     C_3   0.308628 0.807365 0.317619 -0.293331
C7    C     C_3   0.669146 0.196565 0.690520 -0.314033
C8    C     C_3   0.806136 0.315817 0.314095 -0.283023
C9    C     C_3   0.198315 0.699443 0.672505 -0.312084
C10   C     C_3   0.313148 0.313325 0.807462 -0.279936
C11   C     C_3   0.689492 0.675509 0.194404 -0.304229
C12   C     C_3   0.273847 0.994752 0.843896 -0.240942
C13   C     C_R   0.041399 0.676788 0.543898 -0.040978
C14   C     C_3   0.691183 0.074205 0.115350 -0.255425
C15   C     C_3   0.022567 0.844701 0.230222 -0.280107
C16   C     C_3   0.070237 0.114251 0.695596 -0.258595
C17   C     C_3   0.845127 0.273803 0.992631 -0.239281
C18   C     C_3   0.119021 0.690464 0.064807 -0.268846
C19   C     C_3   0.272560 0.781182 0.804197 -0.332928
C20   C     C_3   0.828309 0.066410 0.237558 -0.299086
C21   C     C_3   0.798266 0.273245 0.779827 -0.324524
C22   C     C_3   0.242646 0.829249 0.063962 -0.327839
C23   C     C_3   0.803097 0.791186 0.270064 -0.337106
C24   C     C_R   0.003074 0.312536 0.432278 -0.047478
C25   C     C_3   0.070582 0.233308 0.831277 -0.306777
C26   C     C_R   0.452394 0.987850 0.455167 0.083109
C27   C     C_R   0.550913 0.006692 0.544452 0.082668
C28   C     C_R   0.996009 0.451712 0.449947 0.082896
C29   C     C_R   0.027467 0.539682 0.540517 0.081822
C30   C     C_R   0.455386 0.452695 0.987037 0.083311
C31   C     C_R   0.545112 0.550791 0.005763 0.082591
C32   C     C_R   0.978554 0.176547 0.430803 0.939872
C33   C     C_R   0.673818 0.052851 0.539957 -0.025764
C34   C     C_R   0.034074 0.820775 0.563697 0.934345
C35   C     C_R   0.176768 0.430814 0.978402 0.937110
C36   C     C_R   0.823296 0.569039 0.021516 0.933177
C37   C     C_R   0.430777 0.978333 0.176822 0.938277
C38   C     C_R   0.569051 0.021804 0.823100 0.932572
C39   C     C_R   0.561204 0.820388 0.039390 0.930244
C40   C     C_R   0.439053 0.179533 0.960040 0.930903
C41   C     C_R   0.039527 0.561330 0.820137 0.932721
C42   C     C_R   0.960588 0.438758 0.179548 0.931801
C43   C     C_R   0.820502 0.040077 0.560723 0.943231
C44   C     C_R   0.948785 0.458023 0.326539 -0.034543
C45   C     C_R   0.179479 0.959908 0.439260 0.912023
C46   C     C_R   0.404283 0.976868 0.410322 0.072156
C47   C     C_R   0.597398 0.019622 0.589697 0.073347
C48   C     C_R   0.980969 0.407714 0.404081 0.070499
C49   C     C_R   0.042994 0.584836 0.585286 0.064864
C50   C     C_R   0.410336 0.404553 0.976437 0.072922
C51   C     C_R   0.590470 0.597141 0.018711 0.072065
C52   C     C_R   0.278806 0.938836 0.410791 -0.252440
C53   C     C_R   0.721353 0.059896 0.589315 -0.256704
C54   C     C_R   0.940488 0.409704 0.279040 -0.253776
C55   C     C_R   0.061214 0.537951 0.670452 -0.031868
C56   C     C_R   0.063929 0.588791 0.719581 -0.247277
C57   C     C_R   0.410267 0.278841 0.939383 -0.255188
C58   C     C_R   0.590258 0.721218 0.058630 -0.252984
C59   C     C_R   0.605914 0.026818 0.727700 -0.232176
C60   C     C_R   0.393648 0.972774 0.272240 -0.230076
C61   C     C_R   0.728177 0.605756 0.026163 -0.232240
C62   C     C_R   0.272142 0.393802 0.972881 -0.229572
C63   C     C_R   0.054412 0.722088 0.591701 -0.247621
C64   C     C_R   0.973447 0.271338 0.394312 -0.227383
C65   C     C_R   0.501529 0.951035 0.734700 -0.146126
C66   C     C_R   0.459868 0.327264 0.944654 -0.033144
C67   C     C_R   0.494760 0.052412 0.265314 -0.141707
C68   C     C_R   0.028681 0.718818 0.455361 -0.117302
C69   C     C_R   0.052568 0.262708 0.497751 -0.142713
C70   C     C_R   0.734832 0.500886 0.950885 -0.147297
C71   C     C_R   0.266146 0.495355 0.051339 -0.145661
C72   C     C_R   0.301557 0.918894 0.556620 -0.141636
C73   C     C_R   0.698549 0.079967 0.443699 -0.147826
C74   C     C_R   0.555938 0.301714 0.918999 -0.141798
C75   C     C_R   0.445182 0.697869 0.079107 -0.150079
C76   C     C_R   0.927770 0.553720 0.298317 -0.145249
C77   C     C_R   0.541050 0.673507 0.051746 -0.029464
C78   C     C_R   0.081799 0.441838 0.700112 -0.144563
C79   C     C_R   0.323119 0.933196 0.323126 0.434842
C80   C     C_R   0.676708 0.065778 0.676608 0.442056
C81   C     C_R   0.933755 0.322689 0.323758 0.427832
C82   C     C_R   0.076489 0.674041 0.673232 0.438812
C83   C     C_R   0.322630 0.323064 0.933915 0.431024
C84   C     C_R   0.677469 0.676757 0.064581 0.438028
C85   C     C_R   0.651045 0.070347 0.397313 -0.092134
C86   C     C_R   0.350492 0.926836 0.602553 -0.065715
C87   C     C_R   0.074181 0.394722 0.651832 -0.086233
C88   C     C_R   0.568711 0.997608 0.685448 -0.047510
C89   C     C_R   0.945844 0.598008 0.340965 -0.068817
C90   C     C_R   0.398719 0.651066 0.068729 -0.086237
C91   C     C_R   0.601977 0.350569 0.926742 -0.066113
C92   C     C_R   0.547325 0.058606 0.308048 -0.105596
C93   C     C_R   0.450226 0.944657 0.691187 -0.091488
C94   C     C_R   0.308948 0.548480 0.056368 -0.107372
C95   C     C_R   0.691181 0.449897 0.944235 -0.092197
C96   C     C_R   0.059769 0.305088 0.549993 -0.109136
C97   C     C_R   0.995955 0.681140 0.420092 -0.092669
C98   C     C_R   0.674352 0.099798 0.300696 0.427970
C99   C     C_R   0.430905 0.001699 0.314620 -0.049887
C100  C     C_R   0.324310 0.901737 0.699006 0.435228
C101  C     C_R   0.100948 0.298273 0.677303 0.432815
C102  C     C_R   0.932031 0.692969 0.307664 0.444734
C103  C     C_R   0.302397 0.675263 0.097027 0.435814
C104  C     C_R   0.698098 0.324281 0.901694 0.432549
C105  C     C_R   0.620594 0.097110 0.256435 0.425382
C106  C     C_R   0.370978 0.916375 0.742514 0.405393
C107  C     C_R   0.257683 0.622699 0.093293 0.423159
C108  C     C_R   0.742051 0.370897 0.915644 0.405884
C109  C     C_R   0.096844 0.253737 0.624610 0.424056
C110  C     C_R   0.685926 0.568291 0.997093 -0.046715
C111  C     C_R   0.963130 0.733423 0.343191 0.430832
C112  C     C_R   0.526730 0.024968 0.403807 -0.049640
C113  C     C_R   0.475904 0.970810 0.595500 -0.043954
C114  C     C_R   0.030750 0.400572 0.526117 -0.049592
C115  C     C_R   0.999288 0.589377 0.460403 -0.049163
C116  C     C_R   0.404498 0.527287 0.023434 -0.050061
C117  C     C_R   0.595715 0.475765 0.970226 -0.043391
C118  C     C_R   0.576975 0.033047 0.448431 -0.053316
C119  C     C_R   0.426272 0.961710 0.551107 -0.050729
C120  C     C_R   0.449356 0.577179 0.031581 -0.054142
H1    H     H_    0.383464 0.774378 0.304762 0.133493
H2    H     H_    0.220015 0.735599 0.698001 0.202639
H3    H     H_    0.217177 0.728134 0.596625 0.125812
H4    H     H_    0.236006 0.625740 0.692855 0.143762
H5    H     H_    0.295806 0.388778 0.777381 0.130748
H6    H     H_    0.278317 0.288270 0.783249 0.220751
H7    H     H_    0.387769 0.281493 0.782471 0.135906
H8    H     H_    0.614680 0.703094 0.223358 0.140624
H9    H     H_    0.723989 0.697682 0.221620 0.190524
H10   H     H_    0.710606 0.599591 0.217668 0.133447
H11   H     H_    0.213941 0.012206 0.820723 0.204145
H12   H     H_    0.284570 0.783190 0.281852 0.216052
H13   H     H_    0.307743 0.049876 0.806182 0.191660
H14   H     H_    0.248201 0.991805 0.916947 0.141739
H15   H     H_    0.678678 0.006190 0.151387 0.124729
H16   H     H_    0.764018 0.066928 0.100310 0.164596
H17   H     H_    0.676848 0.099643 0.048815 0.211580
H18   H     H_    0.018360 0.830017 0.173705 0.212941
H19   H     H_    0.090102 0.805876 0.242986 0.210272
H20   H     H_    0.016624 0.918228 0.207980 0.151367
H21   H     H_    0.002870 0.151779 0.681810 0.124676
H22   H     H_    0.061862 0.098238 0.769043 0.163526
H23   H     H_    0.272665 0.785688 0.391856 0.132676
H24   H     H_    0.094515 0.048428 0.680833 0.210345
H25   H     H_    0.821607 0.213988 0.011080 0.200587
H26   H     H_    0.808864 0.307532 0.047788 0.189086
H27   H     H_    0.918322 0.248017 0.988625 0.141247
H28   H     H_    0.154211 0.669073 0.001403 0.135496
H29   H     H_    0.109205 0.764142 0.047430 0.153555
H30   H     H_    0.050429 0.680461 0.092493 0.217758
H31   H     H_    0.212701 0.754872 0.834538 0.190387
H32   H     H_    0.292171 0.775819 0.862104 0.207050
H33   H     H_    0.328489 0.736620 0.763048 0.136774
H34   H     H_    0.695101 0.228127 0.615705 0.142217
H35   H     H_    0.823574 0.011203 0.221180 0.157907
H36   H     H_    0.851537 0.036363 0.299635 0.195332
H37   H     H_    0.881570 0.095295 0.180042 0.173085
H38   H     H_    0.856048 0.295228 0.770686 0.203545
H39   H     H_    0.754001 0.327808 0.737228 0.134193
H40   H     H_    0.827887 0.213175 0.754144 0.194607
H41   H     H_    0.217242 0.828996 0.012668 0.172916
H42   H     H_    0.308290 0.846022 0.028796 0.205024
H43   H     H_    0.193143 0.884892 0.093850 0.170430
H44   H     H_    0.772132 0.828238 0.212906 0.192959
H45   H     H_    0.688433 0.225071 0.726170 0.195056
H46   H     H_    0.796215 0.842659 0.299455 0.199717
H47   H     H_    0.763966 0.742762 0.322022 0.140140
H48   H     H_    0.014855 0.217074 0.827169 0.166248
H49   H     H_    0.041138 0.294214 0.855644 0.191119
H50   H     H_    0.100748 0.175169 0.883450 0.171619
H51   H     H_    0.488241 0.917902 0.807245 0.216049
H52   H     H_    0.504396 0.087653 0.193368 0.213685
H53   H     H_    0.049674 0.777721 0.407760 0.210200
H54   H     H_    0.086649 0.190788 0.508676 0.215372
H55   H     H_    0.807187 0.487265 0.918101 0.216537
H56   H     H_    0.593278 0.215468 0.712630 0.133434
H57   H     H_    0.194587 0.504644 0.087130 0.213276
H58   H     H_    0.245745 0.889344 0.596244 0.195438
H59   H     H_    0.751281 0.113764 0.404958 0.188925
H60   H     H_    0.595305 0.246061 0.889432 0.198614
H61   H     H_    0.406812 0.749977 0.113496 0.191852
H62   H     H_    0.896423 0.594328 0.243684 0.201981
H63   H     H_    0.110231 0.403288 0.756837 0.192030
H64   H     H_    0.780720 0.281686 0.289495 0.218403
H65   H     H_    0.782240 0.390501 0.281477 0.137435
H66   H     H_    0.776349 0.298987 0.389730 0.128941
O1    O     O_R   0.982940 0.138950 0.510160 -0.671088
O2    O     O_R   0.982940 0.510160 0.138950 -0.652435
O3    O     O_R   0.861050 0.017060 0.489840 -0.641850
O4    O     O_R   0.138950 0.982940 0.510160 -0.653033
O5    O     O_R   0.867700 0.025880 0.612340 -0.563949
O6    O     O_R   0.132300 0.974120 0.387660 -0.572072
O7    O     O_R   0.025880 0.612340 0.867700 -0.562943
O8    O     O_R   0.974120 0.387660 0.132300 -0.565700
O9    O     O_R   0.612340 0.867700 0.025880 -0.565630
O10   O     O_R   0.387660 0.132300 0.974120 -0.565652
O11   O     O_R   0.387660 0.974120 0.132300 -0.566294
O12   O     O_R   0.017060 0.861050 0.489840 -0.654392
O13   O     O_R   0.612340 0.025880 0.867700 -0.565008
O14   O     O_R   0.132300 0.387660 0.974120 -0.567347
O15   O     O_R   0.867700 0.612340 0.025880 -0.563944
O16   O     O_R   0.974120 0.132300 0.387660 -0.568877
O17   O     O_R   0.025880 0.867700 0.612340 -0.564469
O18   O     O_3   0.288307 0.903046 0.282581 -0.563290
O19   O     O_3   0.708488 0.101260 0.714747 -0.558925
O20   O     O_3   0.902080 0.283278 0.289310 -0.563659
O21   O     O_3   0.103507 0.713484 0.711700 -0.559964
O22   O     O_3   0.282126 0.288318 0.903730 -0.563536
O23   O     O_R   0.138950 0.510160 0.982940 -0.668671
O24   O     O_3   0.716359 0.709660 0.098265 -0.557347
O25   O     O_3   0.335131 0.909184 0.834709 -0.646416
O26   O     O_3   0.635504 0.139297 0.163240 -0.586501
O27   O     O_3   0.950907 0.826479 0.310147 -0.634715
O28   O     O_3   0.137150 0.160503 0.641447 -0.586568
O29   O     O_3   0.834378 0.335307 0.907104 -0.640579
O30   O     O_3   0.164284 0.639920 0.133098 -0.592435
O31   O     O_3   0.247214 0.872400 0.749773 -0.611155
O32   O     O_3   0.745764 0.137455 0.248276 -0.604883
O33   O     O_3   0.748371 0.247167 0.872808 -0.610410
O34   O     O_R   0.861050 0.489840 0.017060 -0.657920
O35   O     O_3   0.250772 0.746191 0.135034 -0.618577
O36   O     O_3   0.895320 0.745073 0.235342 -0.616977
O37   O     O_3   0.140221 0.246264 0.747796 -0.605328
O38   O     O_R   0.510160 0.982940 0.138950 -0.667975
O39   O     O_R   0.489840 0.017060 0.861050 -0.657599
O40   O     O_R   0.489840 0.861050 0.017060 -0.655778
O41   O     O_R   0.510160 0.138950 0.982940 -0.651837
O42   O     O_R   0.017060 0.489840 0.861050 -0.657553
Zn1   Zn    Zn3+2 0.004880 0.004880 0.583590 0.982001
Zn2   Zn    Zn3+2 0.995120 0.995120 0.416410 0.992946
Zn3   Zn    Zn3+2 0.004880 0.583590 0.004880 0.982235
Zn4   Zn    Zn3+2 0.995120 0.416410 0.995120 0.977690
Zn5   Zn    Zn3+2 0.583590 0.004880 0.004880 0.981319
Zn6   Zn    Zn3+2 0.416410 0.995120 0.995120 0.978420

loop_
_geom_bond_atom_site_label_1
_geom_bond_atom_site_label_2
_ccdc_geom_bond_type
C78   C87   A    
C25   H50   S    
C44   C48   A    
C62   C83   A    
C60   C79   A    
C12   H11   S    
C89   C102  A    
C21   H38   S    
C17   H25   S    
C72   H58   S    
C57   C66   A    
C46   C99   A    
C60   C99   A    
C36   O34   A    
C104  O33   S    
C71   C94   A    
C30   C116  A    
C95   C117  A    
O6    Zn2   S    
C105  O26   S    
C14   H16   S    
C65   H51   S    
O39   Zn6   S    
C4    C114  A    
C20   H35   S    
C15   H20   S    
C18   H28   S    
O13   Zn5   S    
C11   O24   S    
C22   H42   S    
C84   O24   S    
C1    C46   A    
C19   H33   S    
C14   H15   S    
O3    Zn2   S    
C66   C74   A    
C9    H4    S    
C34   O12   A    
O42   Zn4   S    
C3    C91   A    
C78   H63   S    
O23   Zn3   S    
C42   O8    A    
C101  C109  A    
C10   O22   S    
C59   C88   A    
C31   C117  A    
C39   O40   A    
C41   O7    A    
C85   C98   A    
C70   C110  A    
C58   C77   A    
C87   C101  A    
C43   C53   S    
C107  O30   S    
C42   C54   S    
C31   C120  A    
O2    Zn3   S    
C24   C69   A    
C19   H31   S    
C57   C83   A    
C86   C119  A    
C19   O31   S    
C37   O11   A    
C97   C115  A    
C10   H5    S    
C2    C50   A    
C70   H55   S    
C91   C104  A    
C4    C29   A    
C75   C90   A    
C7    O19   S    
C76   C89   A    
O16   Zn2   S    
C15   H18   S    
C8    H64   S    
C65   C93   A    
C80   O19   S    
C7    H45   S    
C41   O42   A    
C43   O5    A    
C24   C64   A    
C12   H14   S    
C5    C115  A    
C21   H39   S    
C96   C114  A    
C102  C111  A    
C76   H62   S    
C61   C110  A    
C11   H9    S    
C69   C96   A    
C82   O21   S    
C35   O14   A    
C19   H32   S    
C15   H19   S    
C25   H48   S    
C33   C53   A    
O41   Zn5   S    
C22   O35   S    
C94   C107  A    
C1    C72   A    
O34   Zn4   S    
C63   C82   A    
C24   C48   A    
O8    Zn4   S    
C53   C80   A    
C26   C119  A    
C32   C64   S    
C6    H12   S    
C109  O28   S    
C9    O21   S    
C14   H17   S    
C4    C87   A    
C22   H41   S    
C94   C116  A    
C92   C112  A    
C29   C49   A    
C45   C52   S    
C8    H66   S    
C49   C55   A    
C39   C58   S    
C39   O9    A    
C29   C115  A    
C73   H59   S    
C74   C91   A    
C3    C30   A    
C16   H22   S    
O38   Zn5   S    
C51   C77   A    
C41   C56   S    
C6    O18   S    
C83   O22   S    
C108  O29   S    
C58   C84   A    
C64   C81   A    
C23   H46   S    
C50   C66   A    
C70   C95   A    
C45   O6    A    
C98   C105  A    
C13   C63   A    
C23   O36   S    
C34   O17   A    
O5    Zn1   S    
C7    H56   S    
C55   C56   A    
C9    H2    S    
C5    C28   A    
C68   C97   A    
C113  C119  A    
C16   O28   S    
C75   C77   A    
C73   C85   A    
C28   C114  A    
C3    C117  A    
C38   O39   A    
C23   H47   S    
C10   H6    S    
C27   C113  A    
C33   C73   A    
C100  O31   S    
C51   C110  A    
C20   H37   S    
C98   O32   S    
C93   C106  A    
C21   O33   S    
C33   C47   A    
C21   H40   S    
C13   C49   A    
C36   O15   A    
O7    Zn3   S    
C10   H7    S    
C18   H29   S    
C11   H10   S    
C26   C112  A    
C104  C108  A    
C86   C100  A    
C102  O36   S    
C65   C88   A    
O17   Zn1   S    
C23   H44   S    
C40   O10   A    
C27   C118  A    
C42   O2    A    
C55   C78   A    
C28   C48   A    
C8    H65   S    
C40   C57   S    
C20   H36   S    
C32   O1    A    
C17   H27   S    
C67   C92   A    
C20   O32   S    
C18   O30   S    
C8    O20   S    
C12   O25   S    
C31   C51   A    
C61   C84   A    
C111  O27   S    
C59   C80   A    
C72   C86   A    
O11   Zn6   S    
O12   Zn2   S    
C56   C82   A    
C36   C61   S    
C15   O27   S    
C67   C99   A    
C67   H52   S    
C96   C109  A    
C100  C106  A    
C27   C47   A    
O40   Zn6   S    
C14   O26   S    
C12   H13   S    
C68   H53   S    
C25   H49   S    
C47   C88   A    
O4    Zn1   S    
C40   O41   A    
C16   H21   S    
C35   O23   A    
C18   H30   S    
C103  O35   S    
C112  C118  A    
C22   H43   S    
C30   C50   A    
C71   H57   S    
C7    H34   S    
O10   Zn6   S    
C45   O4    A    
C101  O37   S    
C97   C111  A    
C106  O25   S    
C34   C63   S    
C9    H3    S    
C25   O37   S    
C35   C62   S    
C11   H8    S    
C32   O16   A    
C85   C118  A    
C116  C120  A    
C1    C52   A    
C90   C103  A    
C37   O38   A    
C37   C60   S    
C95   C108  A    
C26   C46   A    
C17   H26   S    
C38   C59   S    
O1    Zn1   S    
C44   C54   A    
C92   C105  A    
O15   Zn3   S    
C74   H60   S    
C43   O3    A    
C93   C113  A    
C79   O18   S    
C69   H54   S    
C2    C62   A    
C38   O13   A    
O9    Zn5   S    
C103  C107  A    
O14   Zn4   S    
C6    H1    S    
C44   C76   A    
C6    H23   S    
C17   O29   S    
C16   H24   S    
C13   C68   A    
C54   C81   A    
C5    C89   A    
C2    C71   A    
C90   C120  A    
C81   O20   S    
C52   C79   A    
C75   H61   S    
