data_str_m12_o9_o13_f0_bcu.sym.134
_audit_creation_date              2012-12-11T17:43:17-0500
_audit_creation_method            fapswitch 2.2
_symmetry_space_group_name_H-M    P1
_symmetry_Int_Tables_number       1
_space_group_crystal_system       triclinic
_cell_length_a                    15.05752
_cell_length_b                    15.181435
_cell_length_c                    16.845615
_cell_angle_alpha                 108.91203
_cell_angle_beta                  105.511696
_cell_angle_gamma                 109.889018
_cell_volume                      3101.55883468

loop_
_atom_site_label
_atom_site_type_symbol
_atom_type_description
_atom_site_fract_x
_atom_site_fract_y
_atom_site_fract_z
_atom_type_partial_charge
C1    C     C_R   0.084265 0.292165 0.082632 -0.136450
C2    C     C_R   0.911336 0.724370 0.967994 -0.123359
C3    C     C_R   0.024373 0.585308 0.745918 -0.097779
C4    C     C_R   0.969943 0.535232 0.275563 -0.094203
C5    C     C_R   0.760197 0.197752 0.724825 0.057477
C6    C     C_R   0.336973 0.782191 0.254111 0.061290
C7    C     C_R   0.306511 0.479348 0.984381 0.025478
C8    C     C_R   0.638457 0.427589 0.937644 0.008656
C9    C     C_R   0.911124 0.932265 0.047009 -0.231433
C10   C     C_R   0.092301 0.112806 0.103327 -0.225677
C11   C     C_R   0.004203 0.926944 0.057436 0.065942
C12   C     C_R   0.996635 0.113912 0.077206 0.052987
C13   C     C_R   0.097428 0.020558 0.089888 0.025851
C14   C     C_R   0.905454 0.024282 0.055264 0.024095
C15   C     C_R   0.718015 0.953396 0.952910 -0.189905
C16   C     C_R   0.282342 0.078654 0.189928 -0.163164
C17   C     C_R   0.603265 0.998370 0.015097 -0.082768
C18   C     C_R   0.400556 0.052697 0.122944 -0.122727
C19   C     C_R   0.486276 0.563588 0.276062 -0.321026
C20   C     C_R   0.506723 0.323663 0.642854 -0.322526
C21   C     C_R   0.480914 0.548137 0.188110 -0.171183
C22   C     C_R   0.493548 0.330116 0.723232 -0.193891
C23   C     C_R   0.934680 0.523797 0.749216 -0.256939
C24   C     C_R   0.062912 0.550488 0.265765 -0.238110
C25   C     C_R   0.451259 0.447584 0.120247 0.123379
C26   C     C_R   0.476452 0.411339 0.774437 0.138371
C27   C     C_R   0.429864 0.363344 0.142431 -0.270650
C28   C     C_R   0.470047 0.484457 0.742165 -0.274101
C29   C     C_R   0.434815 0.378756 0.230184 -0.246770
C30   C     C_R   0.482876 0.477820 0.661575 -0.236043
C31   C     C_R   0.460594 0.477946 0.297278 0.700438
C32   C     C_R   0.503761 0.399382 0.612059 0.714997
C33   C     C_R   0.516427 0.401952 0.004224 -0.237920
C34   C     C_R   0.391200 0.442913 0.881874 -0.247897
C35   C     C_R   0.534709 0.407435 0.928489 0.044922
C36   C     C_R   0.383751 0.452556 0.965216 0.069859
C37   C     C_R   0.467538 0.420522 0.862384 0.055531
C38   C     C_R   0.446394 0.430580 0.026821 0.037601
C39   C     C_R   0.618800 0.943255 0.940266 -0.107865
C40   C     C_R   0.381737 0.090703 0.200788 -0.133366
C41   C     C_R   0.959123 0.581237 0.362269 0.151688
C42   C     C_R   0.028004 0.632289 0.681637 0.154327
C43   C     C_R   0.129325 0.718506 0.613919 -0.258205
C44   C     C_R   0.851834 0.561028 0.446382 -0.262849
C45   C     C_R   0.776980 0.203213 0.811939 -0.142649
C46   C     C_R   0.280649 0.784248 0.175713 -0.147742
C47   C     C_R   0.122382 0.706025 0.690813 -0.188057
C48   C     C_R   0.860348 0.548805 0.364042 -0.148976
C49   C     C_R   0.936162 0.594932 0.603932 -0.261948
C50   C     C_R   0.048496 0.648817 0.446572 -0.273135
C51   C     C_R   0.941952 0.609440 0.527889 0.191089
C52   C     C_R   0.040314 0.662525 0.529859 0.194424
C53   C     C_R   0.719579 0.102685 0.637940 0.131499
C54   C     C_R   0.445975 0.856428 0.320095 0.136872
C55   C     C_R   0.591481 0.031444 0.391236 -0.236197
C56   C     C_R   0.616678 0.913054 0.551986 -0.226563
C57   C     C_R   0.499658 0.949719 0.316082 -0.177087
C58   C     C_R   0.684397 0.003057 0.635612 -0.168121
C59   C     C_R   0.492776 0.840300 0.394324 -0.293767
C60   C     C_R   0.700889 0.109754 0.554616 -0.288716
C61   C     C_R   0.581858 0.922962 0.471214 0.193896
C62   C     C_R   0.628333 0.020987 0.471418 0.196318
C63   C     C_R   0.687049 0.064118 0.102570 -0.145205
C64   C     C_R   0.320133 0.003091 0.033997 -0.100801
C65   C     C_R   0.787085 0.076710 0.115045 -0.148628
C66   C     C_R   0.220640 0.991375 0.022752 -0.143233
C67   C     C_R   0.276733 0.550137 0.965448 -0.138822
C68   C     C_R   0.696715 0.395958 0.987536 -0.034197
C69   C     C_R   0.803019 0.021052 0.040271 0.121186
C70   C     C_R   0.200822 0.027712 0.100822 0.090620
C71   C     C_R   0.782253 0.298344 0.734315 -0.119518
C72   C     C_R   0.274406 0.689977 0.252647 -0.126098
C73   C     C_R   0.255284 0.443335 0.032107 -0.106900
C74   C     C_R   0.704038 0.498019 0.918598 -0.116284
C75   C     C_R   0.106419 0.600453 0.820243 0.618545
C76   C     C_R   0.890158 0.461154 0.188367 0.614290
C77   C     C_R   0.912418 0.205097 0.002457 -0.163108
C78   C     C_R   0.084566 0.805376 0.051173 -0.128632
C79   C     C_R   0.996135 0.200512 0.056393 0.072614
C80   C     C_R   0.999494 0.822931 0.028908 0.051395
H1    H     H_    0.161249 0.323918 0.136104 0.093431
H2    H     H_    0.831355 0.707871 0.935199 0.095513
H3    H     H_    0.728782 0.908599 0.894867 0.115705
H4    H     H_    0.268803 0.109115 0.250725 0.132927
H5    H     H_    0.511897 0.642449 0.327394 0.140913
H6    H     H_    0.518366 0.259089 0.605034 0.138484
H7    H     H_    0.500342 0.614558 0.172963 0.144398
H8    H     H_    0.496844 0.271543 0.745649 0.139367
H9    H     H_    0.408438 0.285477 0.091401 0.156520
H10   H     H_    0.457187 0.548032 0.780251 0.136691
H11   H     H_    0.417734 0.312923 0.246052 0.160039
H12   H     H_    0.478080 0.535236 0.638095 0.136061
H13   H     H_    0.567425 0.391009 0.054928 0.160622
H14   H     H_    0.337977 0.453404 0.832645 0.124311
H15   H     H_    0.125095 0.682143 0.447783 0.122905
H16   H     H_    0.860844 0.544604 0.597208 0.118216
H17   H     H_    0.788461 0.507788 0.302713 0.197688
H18   H     H_    0.192805 0.747520 0.754102 0.181944
H19   H     H_    0.204905 0.765363 0.618464 0.133057
H20   H     H_    0.775217 0.525468 0.444953 0.142252
H21   H     H_    0.856222 0.507486 0.710600 0.129768
H22   H     H_    0.141334 0.601845 0.319202 0.134593
H23   H     H_    0.553714 0.891649 0.872744 0.106738
H24   H     H_    0.444300 0.129930 0.269577 0.115025
H25   H     H_    0.732088 0.185261 0.554554 0.116352
H26   H     H_    0.454647 0.768206 0.397936 0.105484
H27   H     H_    0.701689 0.994381 0.698326 0.115578
H28   H     H_    0.467781 0.963065 0.258221 0.122403
H29   H     H_    0.627623 0.105739 0.389842 0.120256
H30   H     H_    0.583523 0.837693 0.552253 0.120538
H31   H     H_    0.526159 0.989462 0.005308 0.097952
H32   H     H_    0.477619 0.062214 0.131730 0.098510
H33   H     H_    0.674483 0.105460 0.160741 0.103933
H34   H     H_    0.335006 0.974227 0.973778 0.112550
H35   H     H_    0.851330 0.127425 0.183213 0.113425
H36   H     H_    0.159076 0.953833 0.953622 0.120331
H37   H     H_    0.767854 0.140198 0.830561 0.098705
H38   H     H_    0.310800 0.835620 0.147067 0.110598
H39   H     H_    0.312328 0.601363 0.939369 0.166035
H40   H     H_    0.665992 0.328386 0.999351 0.123482
H41   H     H_    0.777813 0.324161 0.681471 0.093740
H42   H     H_    0.297569 0.654221 0.294731 0.081050
H43   H     H_    0.257232 0.386094 0.056212 0.115810
H44   H     H_    0.683255 0.532841 0.874679 0.110576
H45   H     H_    0.830749 0.153785 0.977786 0.111506
H46   H     H_    0.163593 0.859518 0.100620 0.128468
H47   H     H_    0.840925 0.863207 0.028772 0.132502
H48   H     H_    0.164110 0.180899 0.123592 0.131041
N1    N     N_R   0.055660 0.348550 0.045620 -0.038631
N2    N     N_R   0.944340 0.651450 0.954380 -0.041507
N3    N     N_R   0.960830 0.507850 0.823700 -0.065912
N4    N     N_R   0.039170 0.492150 0.176300 -0.065763
N5    N     N_R   0.811290 0.303410 0.871650 -0.045561
N6    N     N_R   0.188710 0.696590 0.128350 -0.040685
N7    N     N_R   0.205200 0.552990 0.997670 -0.036979
N8    N     N_R   0.794800 0.447010 0.002330 -0.045513
N9    N     N_R   0.814800 0.361830 0.823700 -0.037168
N10   N     N_R   0.185200 0.638170 0.176300 -0.035533
N11   N     N_R   0.201680 0.494570 0.045620 -0.043300
N12   N     N_R   0.798320 0.505430 0.954380 -0.047100
N13   N     N_R   0.068420 0.560530 0.871650 -0.094259
N14   N     N_R   0.931580 0.439470 0.128350 -0.101099
N15   N     N_R   0.948070 0.295860 0.997670 -0.041903
N16   N     N_R   0.051930 0.704140 0.002330 -0.048854
Ni1   Ni    Ni4+2 0.119340 0.493420 0.109960 0.202617
Ni2   Ni    Ni4+2 0.880660 0.506580 0.890040 0.201951
Ni3   Ni    Ni4+2 0.872590 0.372590 0.000000 0.207252
Ni4   Ni    Ni4+2 0.127410 0.627410 0.000000 0.244210
O1    O     O_3   0.467216 0.488367 0.384026 -0.595407
C81   C     C_3   0.426946 0.554936 0.421306 -0.222597
H49   H     H_    0.353726 0.540622 0.368411 0.101990
H50   H     H_    0.486756 0.638804 0.455174 0.123872
H51   H     H_    0.407690 0.538387 0.475750 0.179435
O2    O     O_3   0.513380 0.396689 0.531475 -0.595493
C82   C     C_3   0.585452 0.361382 0.515615 -0.234440
H52   H     H_    0.548246 0.273917 0.482485 0.131656
H53   H     H_    0.657533 0.396715 0.580136 0.101009
H54   H     H_    0.609463 0.386198 0.466374 0.181073
O3    O     O_3   0.211254 0.655603 0.844198 -0.646168
C83   C     C_3   0.236410 0.592722 0.780354 -0.389848
H55   H     H_    0.213864 0.513598 0.777690 0.148534
H56   H     H_    0.198879 0.581480 0.709085 0.170810
H57   H     H_    0.322029 0.632615 0.802875 0.180703
O4    O     O_3   0.785252 0.413140 0.165918 -0.656691
C84   C     C_3   0.754994 0.308441 0.150671 -0.369616
H58   H     H_    0.798561 0.305423 0.213763 0.158210
H59   H     H_    0.765341 0.262973 0.090233 0.161960
H60   H     H_    0.670873 0.269874 0.134750 0.182301

loop_
_geom_bond_atom_site_label_1
_geom_bond_atom_site_label_2
_ccdc_geom_bond_type
C74   H44   S    
C40   H24   S    
C63   C65   A    
C3    C42   S    
N5    N9    A    
C84   H58   S    
C82   H53   S    
C34   C37   A    
C11   C13   A    
C7    C36   S    
C3    C23   A    
N16   Ni4   S    
C19   C31   A    
C21   H7    S    
C77   H45   S    
C71   N9    A    
C66   C70   A    
N7    N11   A    
C48   H17   S    
C9    H47   S    
C47   H18   S    
C66   H36   S    
C2    H2    S    
N4    Ni1   S    
C5    C53   S    
O4    C84   S    
C35   C37   A    
C43   H19   S    
C1    N1    A    
C4    C24   A    
C78   C80   A    
C50   H15   S    
N2    Ni2   S    
C13   C70   S    
N10   Ni1   S    
C1    H1    S    
C12   C79   S    
C16   H4    S    
C27   C29   A    
C46   H38   S    
N3    Ni2   S    
C60   C62   A    
C58   H27   S    
C17   C39   A    
C18   C40   A    
C75   N13   A    
N13   Ni4   S    
C2    N2    A    
C73   H43   S    
C81   H51   S    
C20   H6    S    
C50   C52   A    
N5    Ni3   S    
C22   H8    S    
N2    N16   A    
N1    Ni1   S    
N3    N13   A    
N8    N12   A    
C72   N10   A    
C84   H59   S    
C4    C41   S    
C55   H29   S    
C82   H54   S    
C65   H35   S    
C6    C54   S    
C10   H48   S    
C17   H31   S    
C56   H30   S    
C53   C60   A    
C54   C59   A    
C77   C79   A    
N4    N14   A    
C15   C69   A    
C59   C61   A    
C59   H26   S    
C64   H34   S    
C51   C52   A    
C83   H57   S    
N9    Ni2   S    
C68   N8    A    
C16   C70   A    
C30   H12   S    
N12   Ni2   S    
C15   H3    S    
C73   N11   A    
C49   C51   A    
C6    C72   A    
C74   N12   A    
C8    C35   S    
C64   C66   A    
N15   Ni3   S    
C9    C14   A    
C77   N15   A    
C67   N7    A    
C78   N16   A    
C25   C38   S    
C46   N6    A    
C24   N4    A    
O3    C83   S    
C7    C73   A    
C8    C74   A    
C23   N3    A    
C9    C11   A    
C15   C39   A    
O2    C82   S    
C10   C12   A    
C16   C40   A    
C32   O2    S    
C44   C51   A    
C20   C22   A    
C8    C68   A    
C84   H60   S    
C55   C57   A    
C1    C79   A    
C14   C69   S    
C81   H50   S    
C76   O4    S    
C78   H46   S    
C41   C50   A    
C29   H11   S    
C3    C75   A    
C20   C32   A    
C75   O3    S    
C65   C69   A    
C21   C25   A    
N11   Ni1   S    
C6    C46   A    
C72   H42   S    
C81   H49   S    
C26   C28   A    
N14   Ni3   S    
C71   H41   S    
C34   H14   S    
C18   H32   S    
C43   C47   A    
C19   H5    S    
C10   C13   A    
C33   H13   S    
N6    N10   A    
C53   C58   A    
C26   C37   S    
C39   H23   S    
N1    N15   A    
C25   C27   A    
N6    Ni4   S    
C45   N5    A    
C33   C38   A    
C83   H55   S    
C28   C30   A    
C12   C14   A    
C5    C71   A    
O1    C81   S    
C68   H40   S    
C30   C32   A    
C44   H20   S    
C18   C64   A    
C23   H21   S    
C5    C45   A    
C31   O1    S    
C36   C38   A    
C33   C35   A    
C41   C48   A    
C56   C58   A    
C27   H9    S    
C24   H22   S    
C42   C47   A    
C49   H16   S    
C61   C62   A    
C43   C52   A    
C45   H37   S    
C4    C76   A    
N8    Ni3   S    
C2    C80   A    
C11   C80   S    
C42   C49   A    
C7    C67   A    
C63   H33   S    
C57   H28   S    
C55   C62   A    
C34   C36   A    
C29   C31   A    
N7    Ni4   S    
C22   C26   A    
C82   H52   S    
C56   C61   A    
C28   H10   S    
C67   H39   S    
C17   C63   A    
C60   H25   S    
C44   C48   A    
C83   H56   S    
C19   C21   A    
C54   C57   A    
C76   N14   A    
