data_str_m9_o2_o16_f0_sra.sym.91
_audit_creation_date              2012-12-11T16:25:37-0500
_audit_creation_method            fapswitch 2.2
_symmetry_space_group_name_H-M    P1
_symmetry_Int_Tables_number       1
_space_group_crystal_system       triclinic
_cell_length_a                    20.344817
_cell_length_b                    7.267924
_cell_length_c                    13.327703
_cell_angle_alpha                 90.001148
_cell_angle_beta                  103.108935
_cell_angle_gamma                 90.000115
_cell_volume                      1919.34014026

loop_
_atom_site_label
_atom_site_type_symbol
_atom_type_description
_atom_site_fract_x
_atom_site_fract_y
_atom_site_fract_z
_atom_type_partial_charge
O1    O     O_R   0.449520 0.506760 0.599710 -0.534612
O2    O     O_R   0.550480 0.006760 0.400290 -0.534612
O3    O     O_R   0.587930 0.180200 0.595790 -0.537750
O4    O     O_R   0.412070 0.680200 0.404210 -0.537756
C1    C     C_R   0.614092 0.344304 0.618385 0.685159
C2    C     C_R   0.385907 0.844301 0.381617 0.685155
O5    O     O_R   0.452350 0.177380 0.611700 -0.541659
O6    O     O_R   0.547650 0.677380 0.388300 -0.541660
O7    O     O_R   0.413930 0.001760 0.416320 -0.536493
O8    O     O_R   0.586070 0.501760 0.583680 -0.536493
C3    C     C_R   0.437106 0.344891 0.639188 0.679754
C4    C     C_R   0.562894 0.844889 0.360811 0.679758
O9    O     O_3   0.487550 0.337460 0.435880 -0.376847
O10   O     O_3   0.512450 0.837460 0.564120 -0.376844
V1    V     V_3+5 0.502310 0.064670 0.511900 1.422830
V2    V     V_3+5 0.497690 0.564670 0.488100 1.422827
C5    C     C_R   0.611989 0.765473 0.108887 -0.171674
C6    C     C_R   0.388009 0.265502 0.891109 -0.171679
H1    H     H_    0.518647 0.766362 0.157768 0.100748
H2    H     H_    0.481352 0.266394 0.842232 0.100746
H3    H     H_    0.697263 0.724167 0.986319 0.132615
H4    H     H_    0.302735 0.224169 0.013670 0.132612
H5    H     H_    0.587711 0.725054 0.031012 0.118074
H6    H     H_    0.412287 0.225085 0.968984 0.118069
C7    C     C_R   0.602167 0.845630 0.281158 -0.032512
C8    C     C_R   0.397832 0.345640 0.718839 -0.032496
C9    C     C_R   0.923939 0.946290 0.315043 0.358779
C10   C     C_R   0.076051 0.446265 0.684962 0.358581
C11   C     C_R   0.887879 0.949848 0.393281 -0.019474
C12   C     C_R   0.112116 0.449941 0.606734 -0.019439
C13   C     C_R   0.819714 0.902570 0.369806 -0.232810
C14   C     C_R   0.180287 0.402728 0.630209 -0.232794
C15   C     C_R   0.785432 0.857811 0.268435 0.046920
C16   C     C_R   0.214568 0.357879 0.731566 0.046921
C17   C     C_R   0.823961 0.835041 0.192144 0.051632
C18   C     C_R   0.176038 0.335062 0.807853 0.051643
C19   C     C_R   0.713742 0.838751 0.240409 0.088482
C20   C     C_R   0.286257 0.338793 0.759588 0.088457
C21   C     C_R   0.682280 0.788105 0.137864 0.132648
C22   C     C_R   0.317719 0.288134 0.862131 0.132645
C23   C     C_R   0.721036 0.761638 0.064912 -0.197351
C24   C     C_R   0.278962 0.261651 0.935080 -0.197363
C25   C     C_R   0.790531 0.787525 0.091040 -0.156852
C26   C     C_R   0.209468 0.287527 0.908953 -0.156861
C27   C     C_R   0.671874 0.871483 0.310348 -0.221326
C28   C     C_R   0.328125 0.371489 0.689646 -0.221318
C29   C     C_R   0.572407 0.791139 0.180535 -0.175720
C30   C     C_R   0.427591 0.291167 0.819463 -0.175721
C31   C     C_R   0.894422 0.871788 0.217221 -0.142511
C32   C     C_R   0.105576 0.371779 0.782779 -0.142485
H7    H     H_    0.691476 0.912971 0.388991 0.109857
H8    H     H_    0.308524 0.412924 0.610994 0.109834
H9    H     H_    0.794471 0.904851 0.432452 0.176191
H10   H     H_    0.205534 0.405132 0.567572 0.176179
H11   H     H_    0.817657 0.772341 0.030482 0.110105
H12   H     H_    0.182341 0.272322 0.969508 0.110099
H13   H     H_    0.105533 0.988582 0.469964 0.139049
H14   H     H_    0.894486 0.488145 0.530007 0.139041
C33   C     C_R   0.238653 0.792919 0.028037 -0.017828
C34   C     C_R   0.761342 0.292984 0.971975 -0.017834
C35   C     C_R   0.295794 0.731702 0.995016 -0.073374
C36   C     C_R   0.704196 0.231815 0.004999 -0.073365
C37   C     C_R   0.357309 0.709769 0.063541 -0.186854
C38   C     C_R   0.642678 0.209905 0.936475 -0.186850
C39   C     C_R   0.363995 0.751662 0.166596 -0.146132
C40   C     C_R   0.635996 0.251768 0.833417 -0.146121
C41   C     C_R   0.308046 0.807653 0.205396 0.077300
C42   C     C_R   0.691949 0.307707 0.794614 0.077297
C43   C     C_R   0.242712 0.821678 0.136491 -0.016306
C44   C     C_R   0.757285 0.321716 0.863519 -0.016308
C45   C     C_R   0.317393 0.851134 0.311667 -0.165858
C46   C     C_R   0.682606 0.351145 0.688338 -0.165849
C47   C     C_R   0.261080 0.895508 0.352230 0.072145
C48   C     C_R   0.738923 0.395445 0.647769 0.072144
C49   C     C_R   0.195285 0.895093 0.287066 0.062294
C50   C     C_R   0.804719 0.394980 0.712929 0.062270
C51   C     C_R   0.185420 0.860520 0.179425 -0.173192
C52   C     C_R   0.814580 0.360497 0.820579 -0.173167
C53   C     C_R   0.268803 0.933991 0.458611 -0.141692
C54   C     C_R   0.731204 0.433889 0.541385 -0.141712
C55   C     C_R   0.213106 0.969164 0.499913 -0.135953
C56   C     C_R   0.786906 0.468943 0.500073 -0.136004
C57   C     C_R   0.148716 0.964592 0.436979 -0.040816
C58   C     C_R   0.851298 0.464275 0.563000 -0.040789
C59   C     C_R   0.139809 0.926956 0.332119 -0.064910
C60   C     C_R   0.860199 0.426687 0.667866 -0.064921
H15   H     H_    0.293672 0.706966 0.914137 0.161502
H16   H     H_    0.706316 0.207091 0.085877 0.161498
H17   H     H_    0.400818 0.665196 0.035860 0.125169
H18   H     H_    0.599166 0.165367 0.964158 0.125164
H19   H     H_    0.413890 0.738184 0.215691 0.101704
H20   H     H_    0.586101 0.238304 0.784322 0.101679
H21   H     H_    0.317745 0.935282 0.511480 0.118569
H22   H     H_    0.682261 0.435237 0.488520 0.118572
H23   H     H_    0.219917 0.997550 0.581385 0.130851
H24   H     H_    0.780100 0.497298 0.418598 0.130864
H25   H     H_    0.089048 0.919910 0.286419 0.153723
H26   H     H_    0.910960 0.419533 0.713560 0.153688
O11   O     O_R   0.913760 0.203480 0.916370 -0.524380
O12   O     O_R   0.086240 0.703480 0.083630 -0.524364
O13   O     O_R   0.047590 0.535230 0.888250 -0.520910
O14   O     O_R   0.952410 0.035230 0.111750 -0.520941
C61   C     C_R   0.065024 0.369820 0.862582 0.747562
C62   C     C_R   0.934977 0.869823 0.137421 0.747518
O15   O     O_R   0.912020 0.532880 0.904260 -0.548087
O16   O     O_R   0.087980 0.032880 0.095740 -0.548097
O17   O     O_R   0.949590 0.708460 0.099750 -0.554192
O18   O     O_R   0.050410 0.208460 0.900250 -0.554194
C63   C     C_R   0.884976 0.365169 0.885248 0.651719
C64   C     C_R   0.115023 0.865173 0.114755 0.651759
O19   O     O_3   0.012370 0.375360 0.064120 -0.383433
O20   O     O_3   0.987630 0.875360 0.935880 -0.383424
V3    V     V_3+5 0.997700 0.648160 0.988110 1.440178
V4    V     V_3+5 0.002300 0.148160 0.011890 1.440161
C65   C     C_2   0.179432 0.840167 0.944221 0.340280
H27   H     H_    0.145946 0.951057 0.952450 0.062213
O21   O     O_2   0.169632 0.761827 0.861139 -0.550966
C66   C     C_2   0.820572 0.340180 0.055791 0.340263
H28   H     H_    0.854075 0.451021 0.047570 0.062246
O22   O     O_2   0.830359 0.261856 0.138872 -0.550949
O23   O     O_3   0.989048 0.012962 0.334263 -0.597664
C67   C     C_3   0.987047 0.206887 0.326275 -0.240035
H29   H     H_    0.971141 0.270298 0.392638 0.113853
H30   H     H_    0.953252 0.256109 0.253796 0.199868
H31   H     H_    0.038486 0.256549 0.326112 0.188298
O24   O     O_3   0.010931 0.512858 0.665751 -0.597707
C68   C     C_3   0.012897 0.706781 0.673762 -0.239626
H32   H     H_    0.028555 0.770218 0.607207 0.113886
H33   H     H_    0.046872 0.756086 0.746079 0.199685
H34   H     H_    0.961491 0.756325 0.674317 0.188401
C69   C     C_2   0.921097 0.008361 0.499459 0.327992
H35   H     H_    0.974744 0.037741 0.519538 0.073767
O25   O     O_2   0.888996 0.025199 0.566029 -0.541651
C70   C     C_2   0.078894 0.508485 0.500567 0.327984
H36   H     H_    0.025229 0.537656 0.480465 0.073706
O26   O     O_2   0.111013 0.525572 0.434026 -0.541612

loop_
_geom_bond_atom_site_label_1
_geom_bond_atom_site_label_2
_ccdc_geom_bond_type
C40   C42   A    
C37   C39   A    
O12   C64   A    
O24   C68   S    
C50   C60   A    
C9    C11   A    
O13   V3    S    
C43   C51   A    
O1    C3    A    
C38   H18   S    
O2    C4    A    
C31   C62   S    
C9    O23   S    
O3    V1    S    
C21   C23   A    
C69   O25   D    
O5    C3    A    
C5    H5    S    
C48   C50   A    
O16   V4    S    
C6    H6    S    
O15   V3    S    
C20   C22   A    
C58   C60   A    
C53   H21   S    
C1    C46   S    
C55   H23   S    
H1    C29   S    
C44   C52   A    
C27   H7    S    
C65   H27   S    
O11   C63   A    
C28   H8    S    
C2    O7    A    
C34   C36   A    
C5    C21   A    
O18   V4    S    
C35   C37   A    
C33   C65   S    
C6    C22   A    
C66   H28   S    
O17   V3    S    
C36   C38   A    
C35   H15   S    
C10   C32   A    
C49   C59   A    
C39   C41   A    
C12   C70   S    
C17   C31   A    
H13   C57   S    
C34   C66   S    
C61   O18   A    
C52   C63   S    
C17   C25   A    
C7    C29   A    
C16   C18   A    
C8    C30   A    
O5    V1    S    
C32   C61   S    
O6    V2    S    
C48   C54   A    
C11   C13   A    
C23   C25   A    
C24   C26   A    
O11   V4    S    
C14   H10   S    
O20   V3    S    
C55   C57   A    
C10   O24   S    
C2    C45   S    
C33   C35   A    
C56   H24   S    
C46   C48   A    
C53   C55   A    
C70   O26   D    
C3    C8    S    
C65   O21   D    
C36   H16   S    
C15   C19   A    
C42   C46   A    
C41   C43   A    
C38   C40   A    
O4    V2    S    
C68   H33   S    
O14   V4    S    
H14   C58   S    
C26   H12   S    
C34   C44   A    
O6    C4    A    
C37   H17   S    
C13   C15   A    
C47   C53   A    
O1    V2    S    
C13   H9    S    
O14   C62   A    
O2    V1    S    
C49   C51   A    
O23   C67   S    
H2    C30   S    
C33   C43   A    
H3    C23   S    
O4    C2    A    
C57   C59   A    
C56   C58   A    
C18   C26   A    
C47   C49   A    
C19   C27   A    
C69   H35   S    
C7    C27   A    
C67   H30   S    
C18   C32   A    
C45   C47   A    
O16   C64   A    
C25   H11   S    
C39   H19   S    
O15   C63   A    
C16   C20   A    
O12   V3    S    
C5    C29   A    
C50   C52   A    
O3    C1    A    
C6    C30   A    
C40   H20   S    
C70   H36   S    
O13   C61   A    
C4    C7    S    
C67   H31   S    
C10   C12   A    
O7    V1    S    
C68   H34   S    
C1    O8    A    
C19   C21   A    
O8    V2    S    
C12   C14   A    
C11   C69   S    
C22   C24   A    
C15   C17   A    
C54   C56   A    
O19   V4    S    
C41   C45   A    
C51   C64   S    
C60   H26   S    
C66   O22   D    
C20   C28   A    
C59   H25   S    
C8    C28   A    
C9    C31   A    
C42   C44   A    
O9    V2    S    
H4    C24   S    
O10   V1    S    
C67   H29   S    
C54   H22   S    
C62   O17   A    
C68   H32   S    
C14   C16   A    
