data_str_m3_o4_o10_f0_pcu.sym.8
_audit_creation_date              2012-12-10T20:25:47-0500
_audit_creation_method            fapswitch 2.2
_symmetry_space_group_name_H-M    P1
_symmetry_Int_Tables_number       1
_space_group_crystal_system       triclinic
_cell_length_a                    8.571677
_cell_length_b                    10.688851
_cell_length_c                    9.874002
_cell_angle_alpha                 89.178239
_cell_angle_beta                  98.740172
_cell_angle_gamma                 90.780861
_cell_volume                      894.012316128

loop_
_atom_site_label
_atom_site_type_symbol
_atom_type_description
_atom_site_fract_x
_atom_site_fract_y
_atom_site_fract_z
_atom_type_partial_charge
C1    C     C_R   0.498791 0.260398 0.500815 0.931278
C2    C     C_R   0.375505 0.449866 0.912920 0.145828
C3    C     C_3   0.320228 0.317600 0.899585 -0.580068
C4    C     C_R   0.201187 0.498903 0.464129 0.986838
C5    C     C_3   0.321444 0.315428 0.053725 0.288417
C6    C     C_R   0.507646 0.739893 0.499997 0.947927
C7    C     C_R   0.798810 0.498264 0.536014 1.009856
C8    C     C_2   0.035923 0.495775 0.445072 -0.359943
C9    C     C_2   0.964137 0.496403 0.555427 -0.359383
C10   C     C_R   0.442092 0.060520 0.600265 0.131971
C11   C     C_R   0.512378 0.129309 0.505515 -0.144746
C12   C     C_R   0.613673 0.942138 0.419548 0.460602
C13   C     C_R   0.606142 0.071666 0.421392 -0.291722
C14   C     C_R   0.521885 0.872451 0.502640 -0.242284
C15   C     C_R   0.446250 0.933021 0.597972 0.090649
C16   C     C_3   0.279078 0.919125 0.622657 -0.414812
C17   C     C_3   0.273989 0.060678 0.624392 -0.450740
C18   C     C_R   0.375178 0.449530 0.055701 0.161995
C19   C     C_R   0.618857 0.555418 0.086573 -0.020189
C20   C     C_R   0.618207 0.556400 0.942744 -0.057593
H1    H     H_    0.973734 0.494380 0.340502 0.208751
H2    H     H_    0.192650 0.101706 0.537003 0.227315
H3    H     H_    0.260912 0.097481 0.726509 0.216262
H4    H     H_    0.717054 0.597376 0.152746 0.192812
H5    H     H_    0.037925 0.240512 0.286084 0.378639
H6    H     H_    0.914381 0.735073 0.330484 0.371123
H7    H     H_    0.715044 0.600292 0.900716 0.168977
H8    H     H_    0.201385 0.310296 0.836752 0.236670
H9    H     H_    0.410505 0.255630 0.867192 0.201872
H10   H     H_    0.411000 0.251407 0.109624 0.117993
H11   H     H_    0.026267 0.497317 0.660068 0.189393
H12   H     H_    0.669395 0.127792 0.354773 0.202147
H13   H     H_    0.200332 0.877403 0.534400 0.218516
H14   H     H_    0.270655 0.874893 0.723927 0.225306
N1    N     N_R   0.498950 0.499140 0.142680 -0.152556
N2    N     N_R   0.498950 0.499180 0.857030 -0.114429
O1    O     O_R   0.500020 0.316790 0.614690 -0.624510
O2    O     O_2   0.043553 0.190005 0.017814 -0.261140
O3    O     O_3   0.147349 0.254477 0.267819 -0.559036
O4    O     O_2   0.629321 0.829745 0.182879 -0.294578
O5    O     O_2   0.848164 0.970743 0.268831 -0.293984
O6    O     O_3   0.834387 0.754832 0.389332 -0.591945
O7    O     O_R   0.500000 0.316760 0.385350 -0.615751
O8    O     O_R   0.271760 0.500010 0.587850 -0.627736
O9    O     O_R   0.271740 0.499970 0.358500 -0.571442
O10   O     O_R   0.500000 0.683240 0.614650 -0.624673
O11   O     O_R   0.499980 0.683210 0.385310 -0.554862
O12   O     O_R   0.728260 0.500030 0.641500 -0.625153
O13   O     O_R   0.728240 0.499990 0.412150 -0.611496
O14   O     O_2   0.035466 0.412338 0.074878 -0.333141
S1    S     S_3+6 0.128736 0.293946 0.100776 0.040437
S2    S     S_3+6 0.733174 0.874913 0.309484 0.017399
Zn1   Zn    Zn3+2 0.500010 0.500020 0.653130 0.975370
Zn2   Zn    Zn3+2 0.499990 0.499980 0.346870 1.033570

loop_
_geom_bond_atom_site_label_1
_geom_bond_atom_site_label_2
_ccdc_geom_bond_type
C8    C9    D    
O3    S1    S    
C5    C18   S    
C20   H7    S    
C10   C15   A    
C16   H13   S    
C2    C18   A    
C6    O10   A    
C18   N1    A    
C13   H12   S    
C17   H2    S    
C1    C11   S    
O5    S2    D    
C1    O1    A    
C4    C8    S    
O1    Zn1   S    
C7    O12   A    
C19   C20   A    
C2    C3    S    
C19   N1    A    
H5    O3    S    
N1    Zn2   S    
C11   C13   A    
C7    O13   A    
C17   H3    S    
O11   Zn2   S    
O10   Zn1   S    
C3    H8    S    
C12   S2    S    
C12   C14   A    
O9    Zn2   S    
O14   S1    D    
C4    O9    A    
O12   Zn1   S    
O7    Zn2   S    
C6    C14   S    
C10   C11   A    
C9    H11   S    
C10   C17   S    
C15   C16   S    
C20   N2    A    
C12   C13   A    
H6    O6    S    
C7    C9    S    
C5    H10   S    
C6    O11   A    
C2    N2    A    
C3    H9    S    
C14   C15   A    
C5    S1    S    
O2    S1    D    
C4    O8    A    
C16   H14   S    
N2    Zn1   S    
O4    S2    D    
C19   H4    S    
O8    Zn1   S    
C1    O7    A    
O13   Zn2   S    
O6    S2    S    
C16   C17   S    
C3    C5    S    
C8    H1    S    
