data_str_m2_o10_o29_f0_pcu.sym.154
_audit_creation_date              2012-12-10T16:51:14-0500
_audit_creation_method            fapswitch 2.2
_symmetry_space_group_name_H-M    P1
_symmetry_Int_Tables_number       1
_space_group_crystal_system       triclinic
_cell_length_a                    27.809848
_cell_length_b                    8.753118
_cell_length_c                    7.456608
_cell_angle_alpha                 103.098927
_cell_angle_beta                  93.750147
_cell_angle_gamma                 92.490986
_cell_volume                      1760.91964824

loop_
_atom_site_label
_atom_site_type_symbol
_atom_type_description
_atom_site_fract_x
_atom_site_fract_y
_atom_site_fract_z
_atom_type_partial_charge
C1    C     C_R   0.497865 0.200515 0.454109 0.818507
C2    C     C_R   0.502185 0.799474 0.545900 0.819837
C3    C     C_R   0.101719 0.485047 0.547234 -0.121194
C4    C     C_R   0.898189 0.500990 0.455651 -0.122456
C5    C     C_R   0.124236 0.340877 0.500394 -0.042171
C6    C     C_R   0.875835 0.645620 0.500413 -0.069911
C7    C     C_R   0.095524 0.198943 0.446627 0.492671
C8    C     C_R   0.904619 0.787316 0.555184 0.493785
C9    C     C_R   0.130407 0.626329 0.613698 -0.065405
C10   C     C_R   0.869336 0.359584 0.392091 -0.079123
C11   C     C_R   0.354031 0.502203 0.508971 -0.134771
C12   C     C_R   0.645851 0.495755 0.491036 -0.131960
C13   C     C_R   0.971188 0.351798 0.427888 0.067713
C14   C     C_R   0.028667 0.633815 0.575752 0.067806
C15   C     C_R   0.977892 0.638936 0.543386 0.008366
C16   C     C_R   0.022045 0.346759 0.459300 0.010121
C17   C     C_R   0.949239 0.497309 0.475477 0.076878
C18   C     C_R   0.050659 0.488439 0.527440 0.076491
C19   C     C_R   0.941772 0.216881 0.339172 -0.266791
C20   C     C_R   0.057924 0.768429 0.666721 -0.271854
C21   C     C_R   0.891623 0.219460 0.316917 -0.027160
C22   C     C_R   0.108017 0.765516 0.690418 -0.000215
C23   C     C_R   0.407408 0.501891 0.502973 0.875467
C24   C     C_R   0.592557 0.498005 0.497027 0.878547
C25   C     C_R   0.045146 0.203491 0.430028 -0.308340
C26   C     C_R   0.954940 0.782371 0.572281 -0.308534
C27   C     C_2   0.491657 0.034237 0.432317 -0.242395
C28   C     C_2   0.508367 0.965768 0.567836 -0.243851
C29   C     C_R   0.175134 0.343928 0.508907 0.622218
C30   C     C_R   0.824985 0.643351 0.489058 0.598039
C31   C     C_R   0.180418 0.623785 0.595307 0.632759
C32   C     C_R   0.819378 0.363432 0.412318 0.629057
C33   C     C_R   0.283648 0.554454 0.684423 -0.152410
C34   C     C_R   0.716186 0.431718 0.318291 -0.148413
C35   C     C_R   0.333262 0.572708 0.673431 -0.133223
C36   C     C_R   0.666453 0.418027 0.329177 -0.131845
C37   C     C_R   0.323371 0.433458 0.348544 0.367401
C38   C     C_R   0.676552 0.569136 0.649569 0.363023
C39   C     C_R   0.272476 0.429185 0.356761 -0.062237
C40   C     C_R   0.727447 0.568873 0.641794 -0.057593
C41   C     C_R   0.253039 0.485906 0.528425 0.206608
C42   C     C_R   0.746851 0.503946 0.472609 0.210978
Cu1   Cu    Cu3+1 0.505380 0.517380 0.684380 1.112611
Cu2   Cu    Cu3+1 0.494620 0.482620 0.315620 1.113373
H1    H     H_    0.731804 0.375549 0.192229 0.203668
H2    H     H_    0.267956 0.605123 0.812350 0.201599
H3    H     H_    0.957259 0.109151 0.275090 0.171161
H4    H     H_    0.042381 0.875684 0.732311 0.164063
H5    H     H_    0.024786 0.091929 0.397005 0.133172
H6    H     H_    0.975412 0.893763 0.605464 0.133923
N1    N     N_R   0.201674 0.484110 0.544594 -0.460685
N2    N     N_R   0.798249 0.503812 0.457410 -0.463275
N3    N     N_2   0.486510 0.456430 0.038510 0.131141
N4    N     N_2   0.513490 0.543570 0.961490 0.129476
O1    O     O_R   0.503500 0.286120 0.619780 -0.544871
O2    O     O_R   0.496500 0.713880 0.380220 -0.544297
O3    O     O_R   0.494410 0.256780 0.308360 -0.592952
O4    O     O_R   0.505590 0.743220 0.691640 -0.594769
O5    O     O_R   0.434810 0.514700 0.655690 -0.563899
O6    O     O_R   0.565190 0.485300 0.344310 -0.564994
O7    O     O_R   0.425720 0.485350 0.344280 -0.538322
O8    O     O_R   0.574280 0.514650 0.655720 -0.539412
O9    O     O_2   0.198146 0.208940 0.478036 -0.435408
O10   O     O_2   0.802179 0.778625 0.512748 -0.406940
O11   O     O_2   0.792392 0.228523 0.396720 -0.442194
O12   O     O_2   0.207382 0.759809 0.618705 -0.462767
O13   O     O_3   0.344020 0.374516 0.185366 -0.667693
H7    H     H_    0.323625 0.397110 0.081748 0.357660
O14   O     O_3   0.655793 0.637446 0.809715 -0.675920
H8    H     H_    0.677364 0.631254 0.918322 0.352508
O15   O     O_3   0.450121 0.371778 0.929185 -0.565067
H9    H     H_    0.432744 0.317234 0.010536 0.373710
O16   O     O_3   0.549765 0.628707 0.070980 -0.567900
H10   H     H_    0.567133 0.683281 0.989632 0.373011
C43   C     C_2   0.239814 0.367756 0.186976 0.859996
O17   O     O_2   0.204170 0.437796 0.156582 -0.572536
O18   O     O_R   0.249939 0.230505 0.061194 -0.709056
H11   H     H_    0.226061 0.204419 0.948311 0.363020
C44   C     C_2   0.760587 0.631995 0.809110 0.862988
O19   O     O_2   0.756073 0.763311 0.904410 -0.500924
O20   O     O_R   0.797276 0.540684 0.856342 -0.747905
H12   H     H_    0.816932 0.593927 0.974991 0.324864
O21   O     O_3   0.117015 0.056668 0.408632 -0.641876
H13   H     H_    0.091878 0.969201 0.371873 0.322772
O22   O     O_3   0.883232 0.929728 0.594905 -0.628397
H14   H     H_    0.908424 0.016961 0.632583 0.322746
C45   C     C_2   0.638613 0.299408 0.182645 0.932561
O23   O     O_2   0.643007 0.297610 0.020113 -0.528958
O24   O     O_R   0.610540 0.181284 0.232101 -0.746071
H15   H     H_    0.599822 0.091438 0.123180 0.357134
C46   C     C_2   0.360492 0.690315 0.822883 0.935234
O25   O     O_2   0.356523 0.687326 0.984404 -0.538193
O26   O     O_R   0.387329 0.813107 0.777572 -0.744923
H16   H     H_    0.397207 0.901884 0.888622 0.357673
C47   C     C_2   0.864948 0.078397 0.196116 0.980749
O27   O     O_2   0.830847 0.093219 0.090429 -0.493682
O28   O     O_R   0.880868 0.928817 0.194574 -0.757981
H17   H     H_    0.860670 0.842805 0.103382 0.342399
C48   C     C_2   0.134764 0.902898 0.817180 0.945988
O29   O     O_2   0.123869 0.036398 0.815009 -0.578172
O30   O     O_R   0.170569 0.878637 0.946831 -0.698353
H18   H     H_    0.184251 0.980133 0.032892 0.378469
C49   C     C_2   0.463151 0.948022 0.262325 0.923061
O31   O     O_2   0.419600 0.923259 0.263510 -0.540245
O32   O     O_R   0.486917 0.891698 0.103786 -0.697897
H19   H     H_    0.465236 0.819127 0.003307 0.352903
C50   C     C_2   0.537262 0.051659 0.737069 0.925327
O33   O     O_2   0.581061 0.069956 0.736564 -0.533682
O34   O     O_R   0.513731 0.114072 0.894376 -0.695107
H20   H     H_    0.535942 0.185736 0.993837 0.351949

loop_
_geom_bond_atom_site_label_1
_geom_bond_atom_site_label_2
_ccdc_geom_bond_type
C31   O12   S    
C7    O21   S    
C45   O23   D    
C29   O9    S    
O26   H16   S    
C30   O10   S    
C8    C26   A    
O16   H10   S    
C14   C18   A    
C47   O27   D    
C34   C42   A    
Cu1   Cu2   S    
O28   H17   S    
C39   C41   A    
O18   H11   S    
C23   O5    A    
O30   H18   S    
C19   C21   A    
C26   H6    S    
C19   H3    S    
C9    C22   A    
C28   C50   S    
C3    C18   A    
C8    O22   S    
C11   C23   S    
C11   C37   A    
C32   N2    A    
Cu1   O4    S    
Cu2   N3    S    
O21   H13   S    
C50   O33   D    
C39   C43   S    
C12   C36   A    
Cu1   O5    S    
C40   C42   A    
C38   O14   S    
C36   C45   S    
C33   H2    S    
C50   O34   S    
O20   H12   S    
C5    C29   A    
C10   C21   A    
C13   C19   A    
O13   H7    S    
C14   C20   A    
C4    C6    A    
C46   O25   D    
C5    C7    A    
C15   C26   A    
C6    C8    A    
C21   C47   S    
O22   H14   S    
C43   O17   D    
C3    C9    A    
C1    O3    A    
C46   O26   S    
N4    O16   S    
Cu2   O2    S    
Cu1   N4    S    
C48   O29   D    
Cu2   O3    S    
C24   O6    A    
C47   O28   S    
C40   C44   S    
C49   O32   S    
C34   H1    S    
C43   O18   S    
C20   H4    S    
C4    C17   A    
Cu1   O1    S    
C6    C30   A    
C20   C22   A    
C45   O24   S    
C4    C10   A    
N3    O15   S    
C49   O31   D    
C44   O20   S    
C29   N1    A    
C16   C25   A    
C15   C17   A    
C30   N2    A    
C24   O8    A    
C22   C48   S    
C48   O30   S    
C31   N1    A    
C3    C5    A    
C2    O4    A    
N3    N4    D    
Cu2   O7    S    
O32   H19   S    
C12   C24   S    
C7    C25   A    
C13   C17   A    
C33   C41   A    
C11   C35   A    
C1    O1    A    
O15   H9    S    
C37   C39   A    
C2    O2    A    
O34   H20   S    
C38   C40   A    
Cu2   O6    S    
C37   O13   S    
C27   C49   S    
C33   C35   A    
C34   C36   A    
C12   C38   A    
O14   H8    S    
C25   H5    S    
C9    C31   A    
C44   O19   D    
C10   C32   A    
C23   O7    A    
C16   C18   A    
C13   C16   A    
C27   C28   D    
C1    C27   S    
C14   C15   A    
C2    C28   S    
O24   H15   S    
C41   N1    S    
Cu1   O8    S    
C42   N2    S    
C32   O11   S    
C35   C46   S    
