data_str_m4_o4_o15_f0_acs.sym.124
_audit_creation_date              2012-12-11T15:44:48-0500
_audit_creation_method            fapswitch 2.2
_symmetry_space_group_name_H-M    P1
_symmetry_Int_Tables_number       1
_space_group_crystal_system       triclinic
_cell_length_a                    19.015436
_cell_length_b                    10.921358
_cell_length_c                    18.736437
_cell_angle_alpha                 90.348955
_cell_angle_beta                  90.158473
_cell_angle_gamma                 89.721671
_cell_volume                      3890.94537119

loop_
_atom_site_label
_atom_site_type_symbol
_atom_type_description
_atom_site_fract_x
_atom_site_fract_y
_atom_site_fract_z
_atom_type_partial_charge
C1    C     C_R   0.759985 0.535545 0.646603 0.531079
C2    C     C_R   0.239218 0.535129 0.353162 0.535239
C3    C     C_R   0.259985 0.035543 0.646602 0.529993
C4    C     C_R   0.739218 0.035128 0.353162 0.535695
C5    C     C_R   0.733764 0.038151 0.550490 -0.127916
C6    C     C_R   0.162564 0.114326 0.480037 -0.166804
C7    C     C_R   0.233748 0.538176 0.550488 -0.127969
C8    C     C_R   0.662564 0.614318 0.480035 -0.166754
C9    C     C_R   0.718628 0.009388 0.479683 -0.125833
C10   C     C_R   0.173844 0.088421 0.552100 -0.161749
C11   C     C_R   0.218612 0.509415 0.479681 -0.125756
C12   C     C_R   0.673843 0.588414 0.552098 -0.161859
C13   C     C_3   0.797670 0.299587 0.417947 -0.279790
C14   C     C_3   0.366223 0.159305 0.534638 -0.256010
C15   C     C_3   0.297713 0.799561 0.417940 -0.279804
C16   C     C_3   0.866222 0.659319 0.534640 -0.256014
C17   C     C_3   0.812324 0.332516 0.495207 -0.281146
C18   C     C_3   0.353319 0.184154 0.456000 -0.262599
C19   C     C_3   0.312359 0.832496 0.495201 -0.281134
C20   C     C_3   0.853317 0.684163 0.456001 -0.262644
C21   C     C_R   0.776660 0.138630 0.566085 0.033115
C22   C     C_R   0.217139 0.161496 0.438465 -0.000241
C23   C     C_R   0.276659 0.638633 0.566085 0.032956
C24   C     C_R   0.717139 0.661493 0.438464 -0.000052
C25   C     C_R   0.003680 0.347211 0.429044 -0.045252
C26   C     C_R   0.010273 0.329292 0.579049 -0.041953
C27   C     C_R   0.503685 0.847210 0.429045 -0.045407
C28   C     C_R   0.510275 0.829288 0.579050 -0.041968
C29   C     C_R   0.967992 0.130793 0.421944 -0.086206
C30   C     C_R   0.992781 0.104949 0.567464 -0.083791
C31   C     C_R   0.467996 0.630792 0.421942 -0.086158
C32   C     C_R   0.492779 0.604945 0.567463 -0.083841
C33   C     C_R   0.960849 0.016865 0.453797 -0.120362
C34   C     C_R   0.974620 0.003374 0.526150 -0.131280
C35   C     C_R   0.460851 0.516864 0.453794 -0.120321
C36   C     C_R   0.474619 0.503372 0.526148 -0.131332
C37   C     C_R   0.997616 0.222862 0.536935 0.007568
C38   C     C_R   0.990041 0.233837 0.462057 -0.008059
C39   C     C_R   0.497617 0.722859 0.536935 0.007568
C40   C     C_R   0.490045 0.733835 0.462057 -0.008129
C41   C     C_R   0.031299 0.437691 0.545680 -0.000343
C42   C     C_R   0.016819 0.453232 0.472760 0.004385
C43   C     C_R   0.531307 0.937683 0.545683 -0.000302
C44   C     C_R   0.516827 0.953228 0.472763 0.004321
C45   C     C_R   0.791576 0.171007 0.638792 0.563484
C46   C     C_R   0.208210 0.172732 0.361107 0.564402
C47   C     C_R   0.291576 0.671008 0.638791 0.563650
C48   C     C_R   0.708210 0.672731 0.361107 0.564164
C49   C     C_R   0.061089 0.535138 0.585478 -0.083750
C50   C     C_R   0.016531 0.575405 0.446739 -0.075734
C51   C     C_R   0.561101 0.035124 0.585483 -0.083729
C52   C     C_R   0.516544 0.075403 0.446744 -0.075779
C53   C     C_R   0.067841 0.651039 0.555951 -0.118070
C54   C     C_R   0.043170 0.672100 0.487377 -0.132006
C55   C     C_R   0.567859 0.151025 0.555958 -0.118077
C56   C     C_R   0.543187 0.172093 0.487384 -0.132010
C57   C     C_R   0.745935 0.060557 0.071911 0.020596
C58   C     C_R   0.249378 0.087395 0.922108 0.013166
C59   C     C_R   0.255000 0.589660 0.079574 0.017234
C60   C     C_R   0.756800 0.553544 0.930136 0.018395
C61   C     C_R   0.784554 0.979070 0.029519 0.047742
C62   C     C_R   0.184149 0.077091 0.955630 0.018054
C63   C     C_R   0.316552 0.557309 0.042887 0.028225
C64   C     C_R   0.704088 0.494140 0.967715 0.035457
C65   C     C_R   0.786107 0.988522 0.956483 0.018258
C66   C     C_R   0.179825 0.082720 0.028769 0.047188
C67   C     C_R   0.319453 0.565176 0.969857 0.045172
C68   C     C_R   0.699908 0.502391 0.040511 0.021719
C69   C     C_R   0.703136 0.155961 0.963599 -0.165212
C70   C     C_R   0.303150 0.127885 0.038108 -0.172462
C71   C     C_R   0.204332 0.655944 0.966873 -0.167218
C72   C     C_R   0.809271 0.612276 0.043921 -0.153783
C73   C     C_R   0.701489 0.145044 0.038049 -0.174275
C74   C     C_R   0.308037 0.122226 0.963655 -0.163921
C75   C     C_R   0.201877 0.651192 0.041667 -0.168530
C76   C     C_R   0.812911 0.604501 0.969210 -0.151389
C77   C     C_3   0.860426 0.944877 0.034260 -0.267133
C78   C     C_3   0.130232 0.977669 0.951859 -0.269026
C79   C     C_3   0.358889 0.441092 0.042348 -0.269743
C80   C     C_3   0.626458 0.499543 0.957194 -0.280530
C81   C     C_3   0.861846 0.950492 0.953727 -0.271128
C82   C     C_3   0.127781 0.981341 0.032287 -0.267057
C83   C     C_3   0.360820 0.449597 0.961925 -0.277571
C84   C     C_3   0.621170 0.509088 0.037437 -0.269704
C85   C     C_R   0.749919 0.083462 0.922643 0.012341
C86   C     C_R   0.239184 0.101346 0.071367 0.019325
C87   C     C_R   0.262030 0.606005 0.929988 0.018062
C88   C     C_R   0.748682 0.572099 0.079210 0.015252
C89   C     C_R   0.973806 0.343915 0.648358 0.523149
C90   C     C_R   0.029085 0.347928 0.354143 0.520579
C91   C     C_R   0.473806 0.843914 0.648358 0.523142
C92   C     C_R   0.529086 0.847928 0.354143 0.521123
C93   C     C_R   0.991675 0.341011 0.079606 0.016782
C94   C     C_R   0.982702 0.341786 0.930802 0.022787
C95   C     C_R   0.490731 0.842059 0.080153 0.015816
C96   C     C_R   0.480480 0.841389 0.931528 0.018395
C97   C     C_R   0.976746 0.449648 0.042929 0.023618
C98   C     C_R   0.972870 0.449137 0.969913 0.042425
C99   C     C_R   0.478551 0.951267 0.042954 0.024668
C100  C     C_R   0.474227 0.950006 0.970140 0.037637
C101  C     C_R   0.985289 0.230204 0.967530 -0.156236
C102  C     C_R   0.988081 0.229804 0.042108 -0.159163
C103  C     C_R   0.478211 0.730132 0.968980 -0.159241
C104  C     C_R   0.482070 0.730527 0.043627 -0.166361
C105  C     C_3   0.014156 0.570366 0.042635 -0.269324
C106  C     C_3   0.010114 0.567905 0.962314 -0.277540
C107  C     C_3   0.517576 0.070726 0.042033 -0.268376
C108  C     C_3   0.512956 0.067215 0.961605 -0.279752
C109  C     C_R   0.761928 0.527557 0.854315 0.546728
C110  C     C_R   0.240153 0.533771 0.148289 0.546035
C111  C     C_R   0.260542 0.032968 0.852187 0.551153
C112  C     C_R   0.739077 0.030513 0.146860 0.543921
C113  C     C_R   0.772103 0.125963 0.852971 0.558288
C114  C     C_R   0.226964 0.126966 0.146231 0.551766
C115  C     C_R   0.273566 0.628874 0.854548 0.551690
C116  C     C_R   0.728023 0.623573 0.147747 0.554259
C117  C     C_R   0.967675 0.347029 0.855339 0.545049
C118  C     C_R   0.028276 0.347014 0.147383 0.549887
C119  C     C_R   0.466863 0.847026 0.855779 0.544966
C120  C     C_R   0.528113 0.847083 0.147511 0.546868
C121  C     C_R   0.747641 0.079335 0.424569 0.034089
C122  C     C_R   0.240542 0.107128 0.583476 0.003821
C123  C     C_R   0.247641 0.579339 0.424568 0.034239
C124  C     C_R   0.740541 0.607128 0.583476 0.003697
C125  C     C_R   0.797148 0.168701 0.440468 0.010070
C126  C     C_R   0.289163 0.176563 0.545449 0.012266
C127  C     C_R   0.297162 0.668679 0.440469 0.010078
C128  C     C_R   0.789160 0.676568 0.545450 0.012278
C129  C     C_R   0.810745 0.199115 0.510911 0.013617
C130  C     C_R   0.277681 0.202369 0.473939 0.025509
C131  C     C_R   0.310757 0.699097 0.510911 0.013558
C132  C     C_R   0.777679 0.702371 0.473939 0.025547
Cr1   Cr    Cr6+3 0.885860 0.491680 0.749630 1.004654
Cr2   Cr    Cr6+3 0.114140 0.491680 0.250370 0.999602
Cr3   Cr    Cr6+3 0.385860 0.991680 0.749630 1.004068
Cr4   Cr    Cr6+3 0.614140 0.991680 0.250370 1.000371
Cr5   Cr    Cr6+3 0.730490 0.332970 0.748720 0.996771
Cr6   Cr    Cr6+3 0.269510 0.332970 0.251280 0.998788
Cr7   Cr    Cr6+3 0.230490 0.832970 0.748720 0.994943
Cr8   Cr    Cr6+3 0.769510 0.832970 0.251280 1.000949
Cr9   Cr    Cr6+3 0.887570 0.179310 0.750150 0.998084
Cr10  Cr    Cr6+3 0.112430 0.179310 0.249850 0.999025
Cr11  Cr    Cr6+3 0.387570 0.679310 0.750150 1.000934
Cr12  Cr    Cr6+3 0.612430 0.679310 0.249850 0.995365
H1    H     H_    0.710945 0.984368 0.592852 0.129176
H2    H     H_    0.113386 0.087702 0.455621 0.157966
H3    H     H_    0.210917 0.484407 0.592850 0.129176
H4    H     H_    0.613387 0.587690 0.455618 0.158049
H5    H     H_    0.089682 0.725427 0.587226 0.123547
H6    H     H_    0.044299 0.763621 0.465597 0.107021
H7    H     H_    0.589703 0.225409 0.587234 0.123520
H8    H     H_    0.544320 0.263616 0.465606 0.107068
H9    H     H_    0.672432 0.227940 0.939090 0.139239
H10   H     H_    0.349370 0.149594 0.069509 0.120402
H11   H     H_    0.160311 0.693559 0.937859 0.113267
H12   H     H_    0.850907 0.656557 0.073407 0.117376
H13   H     H_    0.667417 0.204657 0.068987 0.121741
H14   H     H_    0.358898 0.134577 0.939370 0.137488
H15   H     H_    0.156291 0.686476 0.069208 0.113404
H16   H     H_    0.858054 0.640861 0.942056 0.125006
H17   H     H_    0.869192 0.851978 0.055407 0.136766
H18   H     H_    0.151015 0.890169 0.931231 0.166412
H19   H     H_    0.328536 0.361503 0.061013 0.172561
H20   H     H_    0.604654 0.412817 0.935428 0.132579
H21   H     H_    0.892304 0.017196 0.060566 0.132648
H22   H     H_    0.080739 0.008515 0.926035 0.124126
H23   H     H_    0.411346 0.452592 0.067753 0.123824
H24   H     H_    0.609155 0.583932 0.929102 0.137477
H25   H     H_    0.897191 0.022366 0.933917 0.160731
H26   H     H_    0.076280 0.009940 0.053704 0.135844
H27   H     H_    0.414463 0.464266 0.940620 0.132047
H28   H     H_    0.601195 0.599517 0.055245 0.169856
H29   H     H_    0.869003 0.859584 0.927842 0.126233
H30   H     H_    0.150220 0.898477 0.057772 0.136416
H31   H     H_    0.330497 0.376357 0.934444 0.141305
H32   H     H_    0.595816 0.428382 0.062271 0.126596
H33   H     H_    0.068770 0.562048 0.061928 0.171506
H34   H     H_    0.976664 0.641808 0.939955 0.131433
H35   H     H_    0.572428 0.062425 0.061264 0.175258
H36   H     H_    0.479957 0.141833 0.939234 0.132117
H37   H     H_    0.982608 0.645257 0.067330 0.122840
H38   H     H_    0.062078 0.556648 0.936061 0.135623
H39   H     H_    0.486698 0.146891 0.066327 0.123734
H40   H     H_    0.564715 0.054104 0.935113 0.142142
H41   H     H_    0.684502 0.932659 0.467809 0.122814
H42   H     H_    0.133104 0.040105 0.580394 0.140652
H43   H     H_    0.184475 0.432702 0.467807 0.122855
H44   H     H_    0.633104 0.540094 0.580391 0.140615
H45   H     H_    0.245505 0.832183 0.398766 0.154923
H46   H     H_    0.884654 0.564908 0.545709 0.159707
H47   H     H_    0.745452 0.332183 0.398785 0.154967
H48   H     H_    0.384651 0.064891 0.545705 0.159789
H49   H     H_    0.842421 0.320002 0.381940 0.134555
H50   H     H_    0.397163 0.232179 0.561614 0.142557
H51   H     H_    0.342474 0.819941 0.381941 0.134740
H52   H     H_    0.897158 0.732198 0.561616 0.142609
H53   H     H_    0.865329 0.371573 0.503808 0.135107
H54   H     H_    0.378020 0.269621 0.437159 0.138573
H55   H     H_    0.365369 0.871532 0.503810 0.135128
H56   H     H_    0.878015 0.769632 0.437159 0.138519
H57   H     H_    0.768352 0.382953 0.520856 0.148571
H58   H     H_    0.362098 0.102418 0.421396 0.140256
H59   H     H_    0.268391 0.882960 0.520840 0.148666
H60   H     H_    0.862098 0.602427 0.421399 0.140118
H61   H     H_    0.945765 0.938802 0.421721 0.106260
H62   H     H_    0.971352 0.914025 0.550447 0.103973
H63   H     H_    0.445767 0.438802 0.421717 0.106387
H64   H     H_    0.471349 0.414022 0.550444 0.103953
H65   H     H_    0.954658 0.137822 0.365959 0.129956
H66   H     H_    0.006231 0.088748 0.622696 0.131063
H67   H     H_    0.454662 0.637822 0.365958 0.130303
H68   H     H_    0.506226 0.588742 0.622696 0.130981
H69   H     H_    0.993154 0.599615 0.396153 0.137987
H70   H     H_    0.078154 0.521852 0.640120 0.126422
H71   H     H_    0.493168 0.099620 0.396160 0.138084
H72   H     H_    0.578164 0.021833 0.640125 0.126396
O1    O     O_R   0.957020 0.451640 0.669920 -0.518235
O2    O     O_R   0.042980 0.451640 0.330080 -0.526717
O3    O     O_R   0.457020 0.951640 0.669920 -0.518064
O4    O     O_R   0.542980 0.951640 0.330080 -0.526542
O5    O     O_R   0.736470 0.210100 0.823360 -0.504733
O6    O     O_R   0.263530 0.210100 0.176640 -0.505078
O7    O     O_R   0.236470 0.710100 0.823360 -0.503912
O8    O     O_R   0.763530 0.710100 0.176640 -0.500471
O9    O     O_R   0.831960 0.093290 0.830130 -0.520799
O10   O     O_R   0.168040 0.093290 0.169870 -0.513350
O11   O     O_R   0.331960 0.593290 0.830130 -0.515271
O12   O     O_R   0.668040 0.593290 0.169870 -0.519661
O13   O     O_R   0.945600 0.250580 0.824860 -0.510596
O14   O     O_R   0.054400 0.250580 0.175140 -0.504252
O15   O     O_R   0.445600 0.750580 0.824860 -0.509798
O16   O     O_R   0.554400 0.750580 0.175140 -0.509641
O17   O     O_3   0.834640 0.334650 0.749500 -0.260116
O18   O     O_3   0.165360 0.334650 0.250500 -0.259981
O19   O     O_3   0.334640 0.834650 0.749500 -0.259598
O20   O     O_3   0.665360 0.834650 0.250500 -0.260091
O21   O     O_R   0.821450 0.543440 0.674610 -0.496783
O22   O     O_R   0.178550 0.543440 0.325390 -0.500372
O23   O     O_R   0.321450 0.043440 0.674610 -0.497632
O24   O     O_R   0.678550 0.043440 0.325390 -0.499896
O25   O     O_R   0.715320 0.458650 0.668100 -0.536804
O26   O     O_R   0.284680 0.458650 0.331900 -0.527267
O27   O     O_R   0.215320 0.958650 0.668100 -0.537004
O28   O     O_R   0.784680 0.958650 0.331900 -0.527558
O29   O     O_R   0.737170 0.209590 0.674530 -0.510126
O30   O     O_R   0.262830 0.209590 0.325470 -0.500717
O31   O     O_R   0.237170 0.709590 0.674530 -0.509289
O32   O     O_R   0.762830 0.709590 0.325470 -0.502010
O33   O     O_R   0.832710 0.092740 0.669580 -0.512079
O34   O     O_R   0.167290 0.092740 0.330420 -0.521414
O35   O     O_R   0.332710 0.592740 0.669580 -0.512069
O36   O     O_R   0.667290 0.592740 0.330420 -0.521339
O37   O     O_R   0.946290 0.250060 0.676040 -0.521026
O38   O     O_R   0.053710 0.250060 0.323960 -0.520077
O39   O     O_R   0.446290 0.750060 0.676040 -0.521242
O40   O     O_R   0.553710 0.750060 0.323960 -0.519114
O41   O     O_R   0.956270 0.452200 0.830470 -0.519491
O42   O     O_R   0.043730 0.452200 0.169530 -0.525582
O43   O     O_R   0.456270 0.952200 0.830470 -0.519140
O44   O     O_R   0.543730 0.952200 0.169530 -0.523854
O45   O     O_R   0.820760 0.543950 0.823440 -0.504464
O46   O     O_R   0.179240 0.543950 0.176560 -0.507677
O47   O     O_R   0.320760 0.043950 0.823440 -0.505432
O48   O     O_R   0.679240 0.043950 0.176560 -0.508292
O49   O     O_R   0.714570 0.459210 0.828640 -0.519025
O50   O     O_R   0.285430 0.459210 0.171360 -0.524814
O51   O     O_R   0.214570 0.959210 0.828640 -0.524302
O52   O     O_R   0.785430 0.959210 0.171360 -0.518952
H73   H     H_    0.987930 0.144764 0.938620 0.112818
H74   H     H_    0.993866 0.144332 0.069946 0.114464
H75   H     H_    0.476213 0.643777 0.940693 0.129548
H76   H     H_    0.485213 0.644384 0.071676 0.119668

loop_
_geom_bond_atom_site_label_1
_geom_bond_atom_site_label_2
_ccdc_geom_bond_type
C51   H72   S    
C58   C62   A    
C119  O43   A    
C55   C56   A    
C82   H26   S    
C67   C83   S    
C101  C102  A    
C72   H12   S    
Cr5   O5    S    
Cr4   O48   S    
Cr9   O33   S    
C41   C42   A    
C14   C18   S    
C96   C119  S    
C35   C36   A    
Cr10  O38   S    
C75   H15   S    
C72   C76   A    
C30   C34   A    
Cr7   O31   S    
Cr3   O43   S    
C120  O16   A    
C47   O31   A    
C97   C98   A    
C54   H6    S    
C63   C79   S    
C53   C54   A    
C34   H62   S    
C26   C89   S    
Cr1   O45   S    
Cr12  O40   S    
C33   H61   S    
C25   C90   S    
C50   C54   A    
Cr11  O35   S    
C116  O12   A    
C11   H43   S    
C64   C68   A    
C115  O7    A    
C69   C73   A    
C89   O1    A    
C1    O25   A    
C9    H41   S    
C32   H68   S    
C94   C117  S    
C95   C99   A    
Cr10  O14   S    
C57   C112  S    
C66   C82   S    
C94   C98   A    
C92   O40   A    
C77   H21   S    
C12   H44   S    
C73   H13   S    
C17   H57   S    
C59   C110  S    
C117  O41   A    
C31   C40   A    
C108  H36   S    
Cr8   O32   S    
C51   C55   A    
C36   H64   S    
C32   C39   A    
C57   C73   A    
C92   O4    A    
C24   C132  A    
C46   O34   A    
Cr2   O42   S    
Cr10  O34   S    
C45   O33   A    
C121  C125  A    
C77   H17   S    
Cr5   O49   S    
C27   C44   A    
C106  H38   S    
C82   H30   S    
C29   C33   A    
C61   C77   S    
C113  O5    A    
C83   H27   S    
C29   C38   A    
C70   C74   A    
C9    C121  A    
C107  C108  S    
C94   C101  A    
C17   H53   S    
C60   C109  S    
C81   H25   S    
C56   H8    S    
Cr7   O27   S    
C112  O52   A    
C47   O35   A    
Cr6   O26   S    
C3    C122  S    
C119  O15   A    
C124  C128  A    
C97   C105  S    
C122  C126  A    
C44   C52   A    
Cr1   O41   S    
Cr12  O36   S    
C71   H11   S    
Cr2   O46   S    
C15   C127  S    
C22   C130  A    
C53   H5    S    
C64   C80   S    
C79   H23   S    
C19   H59   S    
C8    H4    S    
Cr1   O21   S    
C4    C121  S    
C20   C132  S    
Cr6   O18   S    
C128  C132  A    
C41   C49   A    
C72   C88   A    
C62   C78   S    
C7    C11   A    
C46   O30   A    
C21   C45   S    
C14   C126  S    
C19   C131  S    
C63   C67   A    
C100  C108  S    
C5    H1    S    
Cr12  O20   S    
Cr11  O19   S    
C80   C84   S    
C68   C84   S    
C80   H24   S    
C23   C47   S    
C88   C116  S    
C20   H60   S    
C109  O49   A    
C30   H66   S    
Cr9   O13   S    
C45   O29   A    
C39   C40   A    
C126  C130  A    
C62   C66   A    
Cr8   O8    S    
Cr1   O17   S    
Cr6   O50   S    
C50   H69   S    
C1    O21   A    
Cr2   O2    S    
C101  H73   S    
C49   H70   S    
C60   C76   A    
C7    H3    S    
C80   H20   S    
C17   C129  S    
C58   C111  S    
C30   C37   A    
C107  H39   S    
Cr8   O28   S    
C5    C21   A    
C103  H75   S    
C116  O8    A    
C15   C19   S    
C43   C44   A    
C104  H76   S    
C115  O11   A    
C37   C38   A    
Cr6   O30   S    
Cr10  O10   S    
C125  C129  A    
C25   C38   A    
C114  O10   A    
Cr9   O9    S    
Cr5   O29   S    
C78   C82   S    
C24   C48   S    
C113  O9    A    
C99   C100  A    
C12   C124  A    
C77   C81   S    
C27   C40   A    
C8    C12   A    
Cr3   O3    S    
Cr8   O52   S    
C33   C34   A    
C4    O24   A    
C23   C131  A    
C27   C92   S    
C18   H58   S    
C3    O27   A    
Cr4   O44   S    
C114  O6    A    
C74   H14   S    
C29   H65   S    
C16   C128  S    
C21   C129  A    
C78   H22   S    
C16   H46   S    
C42   C50   A    
C84   H32   S    
C71   C87   A    
C90   O38   A    
C35   H63   S    
C22   C46   S    
C112  O48   A    
C15   H45   S    
C78   H18   S    
Cr4   O24   S    
Cr7   O19   S    
C68   C88   A    
C31   C35   A    
C59   C63   A    
C79   H19   S    
C93   C118  S    
C14   H50   S    
Cr5   O17   S    
C70   C86   A    
C59   C75   A    
C123  C127  A    
C110  O50   A    
C4    O28   A    
C69   C85   A    
C95   C104  A    
C58   C74   A    
C105  H33   S    
C69   H9    S    
Cr7   O7    S    
C55   H7    S    
C2    O26   A    
Cr7   O51   S    
C76   H16   S    
C102  H74   S    
C107  H35   S    
C86   C114  S    
C70   H10   S    
C93   C102  A    
C67   C87   A    
Cr12  O16   S    
C2    O22   A    
C71   C75   A    
Cr11  O11   S    
C84   H28   S    
C13   H47   S    
C25   C42   A    
C66   C86   A    
Cr4   O20   S    
C32   C36   A    
C26   C37   A    
C57   C61   A    
Cr3   O47   S    
Cr4   O4    S    
C108  H40   S    
C11   C123  A    
C95   C120  S    
C99   C107  S    
C105  C106  S    
C28   C39   A    
C28   C43   A    
C19   H55   S    
C98   C106  S    
C13   C17   S    
C16   C20   S    
C60   C64   A    
C87   C115  S    
C127  C131  A    
C85   C113  S    
C1    C124  S    
C15   H51   S    
C48   O32   A    
C65   C85   A    
C120  O44   A    
C110  O46   A    
C79   C83   S    
Cr11  O39   S    
C43   C51   A    
C7    C23   A    
C91   O39   A    
Cr5   O25   S    
C118  O14   A    
C6    H2    S    
C96   C100  A    
C117  O13   A    
C16   H52   S    
C10   H42   S    
C93   C97   A    
Cr3   O23   S    
C83   H31   S    
C28   C91   S    
Cr3   O19   S    
C14   H48   S    
C52   H71   S    
C48   O36   A    
C91   O3    A    
Cr11  O15   S    
C89   O37   A    
Cr1   O1    S    
C90   O2    A    
C49   C53   A    
C18   C130  S    
C6    C10   A    
Cr2   O22   S    
C111  O51   A    
C61   C65   A    
C10   C122  A    
Cr10  O18   S    
C31   H67   S    
C8    C24   A    
C26   C41   A    
Cr9   O17   S    
C118  O42   A    
C96   C103  A    
C3    O23   A    
C103  C104  A    
Cr8   O20   S    
Cr6   O6    S    
C65   C81   S    
Cr12  O12   S    
C13   H49   S    
C5    C9    A    
C105  H37   S    
C111  O47   A    
C109  O45   A    
C13   C125  S    
C106  H34   S    
C20   H56   S    
C2    C123  S    
C18   H54   S    
C52   C56   A    
Cr9   O37   S    
C81   H29   S    
Cr2   O18   S    
C6    C22   A    
