data_str_m3_o10_o18_f0_pcu.sym.99
_audit_creation_date              2012-12-10T16:52:41-0500
_audit_creation_method            fapswitch 2.2
_symmetry_space_group_name_H-M    P1
_symmetry_Int_Tables_number       1
_space_group_crystal_system       triclinic
_cell_length_a                    7.917012
_cell_length_b                    8.550108
_cell_length_c                    13.745292
_cell_angle_alpha                 94.382896
_cell_angle_beta                  92.94301
_cell_angle_gamma                 93.83693
_cell_volume                      924.144694751

loop_
_atom_site_label
_atom_site_type_symbol
_atom_type_description
_atom_site_fract_x
_atom_site_fract_y
_atom_site_fract_z
_atom_type_partial_charge
C1    C     C_R   0.044608 0.794254 0.497736 0.964387
C2    C     C_R   0.937521 0.488521 0.318095 0.855783
C3    C     C_R   0.093542 0.528692 0.787151 -0.065360
C4    C     C_R   0.906452 0.471276 0.212850 -0.065364
C5    C     C_R   0.056957 0.665767 0.943380 -0.195935
C6    C     C_R   0.943000 0.334127 0.056638 -0.195939
C7    C     C_R   0.999449 0.625336 0.846836 -0.184217
C8    C     C_R   0.000524 0.374594 0.153176 -0.184221
C9    C     C_R   0.236343 0.464228 0.825190 -0.230734
C10   C     C_R   0.763653 0.535735 0.174805 -0.230735
C11   C     C_R   0.305514 0.513735 0.918778 0.090234
C12   C     C_R   0.955392 0.205746 0.502264 0.964390
C13   C     C_R   0.694452 0.486176 0.081231 0.090251
C14   C     C_R   0.211716 0.614646 0.978765 0.166058
C15   C     C_R   0.788239 0.385242 0.021252 0.166046
C16   C     C_R   0.467630 0.471128 0.952408 0.058574
C17   C     C_R   0.532327 0.528762 0.047606 0.058571
C18   C     C_2   0.485757 0.375898 0.387366 1.099908
C19   C     C_2   0.514244 0.624094 0.612636 1.099906
C20   C     C_R   0.431051 0.623826 0.106757 -0.174646
C21   C     C_R   0.568891 0.376038 0.893265 -0.174639
C22   C     C_R   0.274312 0.665757 0.072615 -0.229376
C23   C     C_R   0.725628 0.334103 0.927409 -0.229365
C24   C     C_2   0.067839 0.957947 0.496384 -0.373831
C25   C     C_2   0.932160 0.042053 0.503616 -0.373827
C26   C     C_R   0.062479 0.511476 0.681905 0.855786
H1    H     H_    0.202381 0.740406 0.119841 0.150729
H2    H     H_    0.532201 0.330438 0.819671 0.174223
H3    H     H_    0.195983 0.008639 0.489443 0.210800
H4    H     H_    0.804016 0.991361 0.510557 0.210802
H5    H     H_    0.576812 0.182357 0.322208 0.318203
H6    H     H_    0.423190 0.817629 0.677801 0.318200
H7    H     H_    0.797547 0.259431 0.880190 0.150725
H8    H     H_    0.704977 0.618350 0.222813 0.162293
H9    H     H_    0.295046 0.381658 0.777168 0.162335
H10   H     H_    0.113391 0.325341 0.182091 0.182947
H11   H     H_    0.886580 0.674591 0.817926 0.182951
H12   H     H_    0.984517 0.742254 0.989044 0.141563
H13   H     H_    0.015428 0.257618 0.010982 0.141562
H14   H     H_    0.467726 0.669392 0.180359 0.174292
N1    N     N_2   0.440860 0.456490 0.474790 -0.184856
N2    N     N_2   0.559140 0.543510 0.525210 -0.184856
O1    O     O_R   0.891570 0.738930 0.506190 -0.631774
O2    O     O_R   0.553573 0.229625 0.389706 -0.808718
O3    O     O_2   0.548523 0.571317 0.690792 -0.675979
O4    O     O_R   0.446431 0.770368 0.610302 -0.808722
O5    O     O_R   0.108430 0.261070 0.493810 -0.631774
O6    O     O_R   0.174650 0.711050 0.490030 -0.580775
O7    O     O_R   0.825350 0.288950 0.509970 -0.580770
O8    O     O_R   0.909850 0.521900 0.644940 -0.607577
O9    O     O_R   0.090150 0.478100 0.355060 -0.607582
O10   O     O_R   0.192930 0.494020 0.628780 -0.622496
O11   O     O_R   0.807070 0.505980 0.371220 -0.622490
O12   O     O_2   0.451473 0.428665 0.309208 -0.676002
Zn1   Zn    Zn3+2 0.810990 0.518620 0.510790 0.990524
Zn2   Zn    Zn3+2 0.189010 0.481380 0.489210 0.990518

loop_
_geom_bond_atom_site_label_1
_geom_bond_atom_site_label_2
_ccdc_geom_bond_type
C2    C4    S    
C19   O3    D    
N1    Zn2   S    
C16   C21   A    
C3    C9    A    
C26   O10   A    
N2    Zn1   S    
C11   C16   A    
O11   Zn1   S    
O8    Zn1   S    
O6    Zn2   S    
C19   N2    S    
C13   C17   A    
C12   C25   S    
C4    C8    A    
H5    O2    S    
C14   C22   A    
C26   O8    A    
C15   C23   A    
C12   O7    A    
C7    H11   S    
C19   O4    S    
C10   H8    S    
C10   C13   A    
C5    H12   S    
C24   H3    S    
C9    C11   A    
C5    C14   A    
C12   O5    A    
C6    C8    A    
O1    Zn1   S    
C21   H2    S    
C20   C22   A    
C3    C7    A    
C22   H1    S    
C13   C15   A    
C21   C23   A    
C20   H14   S    
C11   C14   A    
C2    O9    A    
C18   O12   D    
C4    C10   A    
C18   O2    S    
N1    N2    D    
C17   C20   A    
C24   C25   D    
C1    C24   S    
C5    C7    A    
O9    Zn2   S    
C8    H10   S    
C18   N1    S    
C25   H4    S    
C9    H9    S    
C6    H13   S    
C16   C17   A    
C1    O6    A    
C6    C15   A    
O7    Zn1   S    
H6    O4    S    
C1    O1    A    
C3    C26   S    
O10   Zn2   S    
O5    Zn2   S    
C23   H7    S    
C2    O11   A    
