data_str_m3_o10_o25_f0_pcu.sym.146
_audit_creation_date              2012-12-10T16:56:30-0500
_audit_creation_method            fapswitch 2.2
_symmetry_space_group_name_H-M    P1
_symmetry_Int_Tables_number       1
_space_group_crystal_system       triclinic
_cell_length_a                    7.838923
_cell_length_b                    8.560039
_cell_length_c                    15.718283
_cell_angle_alpha                 90.965772
_cell_angle_beta                  87.094764
_cell_angle_gamma                 92.975601
_cell_volume                      1051.83735237

loop_
_atom_site_label
_atom_site_type_symbol
_atom_type_description
_atom_site_fract_x
_atom_site_fract_y
_atom_site_fract_z
_atom_type_partial_charge
C1    C     C_R   0.544999 0.794190 0.497873 0.972829
C2    C     C_3   0.387123 0.366851 0.027308 -0.449634
C3    C     C_1   0.512540 0.496364 0.750048 -0.135641
C4    C     C_1   0.485918 0.495634 0.249891 -0.138193
C5    C     C_3   0.344747 0.504129 0.970565 0.510592
C6    C     C_3   0.649719 0.467371 0.029112 0.513817
C7    C     C_3   0.510043 0.486279 0.916012 0.001424
C8    C     C_3   0.484573 0.487822 0.083782 0.019163
C9    C     C_1   0.515680 0.491949 0.825114 0.046983
C10   C     C_1   0.480949 0.491773 0.174781 0.056615
C11   C     C_2   0.371514 0.777057 0.055871 0.463465
C12   C     C_R   0.454999 0.205812 0.502110 0.969132
C13   C     C_2   0.616237 0.194372 0.939939 0.384611
C14   C     C_3   0.828632 0.316797 0.103844 0.064207
C15   C     C_3   0.952790 0.344690 0.174227 -0.722381
C16   C     C_3   0.118248 0.396800 0.896687 0.142236
C17   C     C_3   0.992722 0.444454 0.832675 -0.740621
C18   C     C_2   0.019020 0.411736 0.396818 0.687160
C19   C     C_2   0.983776 0.581882 0.604793 0.696793
C20   C     C_R   0.503916 0.500108 0.661607 0.900625
C21   C     C_R   0.495973 0.499356 0.338378 0.899667
C22   C     C_2   0.568809 0.957510 0.496616 -0.346898
C23   C     C_2   0.431183 0.042496 0.503332 -0.339967
C24   C     C_3   0.439369 0.623120 0.027725 -0.047560
C25   C     C_3   0.554955 0.349018 0.971287 -0.106442
C26   C     C_3   0.606770 0.605439 0.972953 -0.353330
H1    H     H_    0.697638 0.701611 0.950505 0.186280
H2    H     H_    0.972722 0.232717 0.206014 0.235947
H3    H     H_    0.077643 0.393860 0.147578 0.260409
H4    H     H_    0.050489 0.318372 0.944059 0.165588
H5    H     H_    0.217851 0.329622 0.861367 0.133873
H6    H     H_    0.059723 0.524145 0.785501 0.248381
H7    H     H_    0.939118 0.339396 0.799021 0.231386
H8    H     H_    0.886989 0.506164 0.865611 0.270058
H9    H     H_    0.055327 0.499074 0.349171 0.021782
H10   H     H_    0.937852 0.490504 0.648315 0.013330
H11   H     H_    0.297011 0.270387 0.050034 0.172977
H12   H     H_    0.699293 0.007300 0.490153 0.207114
H13   H     H_    0.300698 0.992710 0.509788 0.208526
H14   H     H_    0.345148 0.862249 0.008583 0.060473
H15   H     H_    0.635169 0.103244 0.985096 0.045242
H16   H     H_    0.880111 0.227663 0.058844 0.132185
H17   H     H_    0.705425 0.268059 0.133367 0.131657
H18   H     H_    0.899501 0.428707 0.221755 0.249790
N1    N     N_2   0.950320 0.457950 0.477300 -0.183790
N2    N     N_2   0.049680 0.542050 0.522700 -0.181255
O1    O     O_R   0.389250 0.738570 0.505570 -0.604616
O2    O     O_2   0.642788 0.169109 0.863941 -0.569748
O3    O     O_3   0.814321 0.458613 0.060676 -0.581715
O4    O     O_3   0.184957 0.532595 0.938111 -0.595151
O5    O     O_2   0.029721 0.273111 0.379350 -0.608659
O6    O     O_2   0.989151 0.718219 0.628824 -0.594796
O7    O     O_R   0.610750 0.261430 0.494430 -0.609763
O8    O     O_R   0.678390 0.711630 0.491020 -0.617259
O9    O     O_R   0.321610 0.288370 0.508980 -0.612448
O10   O     O_R   0.355460 0.513480 0.630490 -0.632990
O11   O     O_R   0.644540 0.486520 0.369510 -0.640056
O12   O     O_R   0.644600 0.486540 0.615950 -0.646934
O13   O     O_R   0.355400 0.513460 0.384050 -0.640489
O14   O     O_2   0.345774 0.807566 0.131375 -0.569056
Zn1   Zn    Zn3+2 0.306940 0.517990 0.509710 0.987461
Zn2   Zn    Zn3+2 0.693060 0.482010 0.490290 0.977615

loop_
_geom_bond_atom_site_label_1
_geom_bond_atom_site_label_2
_ccdc_geom_bond_type
O12   Zn2   S    
C13   O2    D    
C6    C8    S    
C1    O8    A    
C16   H4    S    
O1    Zn1   S    
C3    C9    T    
C2    C5    S    
O7    Zn2   S    
N1    Zn2   S    
C12   O7    A    
C7    C25   S    
C14   H16   S    
C20   O10   A    
C12   O9    A    
C6    C25   S    
C13   H15   S    
C15   H2    S    
C19   N2    S    
C3    C20   S    
C21   O13   A    
N1    N2    D    
C16   H5    S    
C21   O11   A    
C4    C21   S    
C5    C24   S    
C2    H11   S    
C13   C25   S    
C26   H1    S    
C6    C26   S    
C7    C26   S    
C17   H7    S    
C23   H13   S    
O9    Zn1   S    
C8    C24   S    
C16   O4    S    
C18   O5    D    
C15   H3    S    
C2    C25   S    
C19   H10   S    
C6    O3    S    
C11   H14   S    
C5    O4    S    
O13   Zn1   S    
C14   O3    S    
C16   C17   S    
C17   H8    S    
N2    Zn1   S    
C4    C10   T    
C11   O14   D    
C22   H12   S    
C18   N1    S    
C7    C9    S    
C11   C24   S    
C1    C22   S    
C8    C10   S    
C18   H9    S    
C5    C7    S    
C17   H6    S    
C15   H18   S    
O10   Zn1   S    
C1    O1    A    
C12   C23   S    
O8    Zn2   S    
O11   Zn2   S    
C22   C23   D    
C20   O12   A    
C19   O6    D    
C2    C8    S    
C14   C15   S    
C24   C26   S    
C14   H17   S    
