data_str_m2_o4_o9_f0_pcu.sym.88
_audit_creation_date              2012-12-10T19:10:07-0500
_audit_creation_method            fapswitch 2.2
_symmetry_space_group_name_H-M    P1
_symmetry_Int_Tables_number       1
_space_group_crystal_system       triclinic
_cell_length_a                    10.962207
_cell_length_b                    10.886815
_cell_length_c                    9.64268
_cell_angle_alpha                 91.107735
_cell_angle_beta                  90.908627
_cell_angle_gamma                 90.564462
_cell_volume                      1150.37222795

loop_
_atom_site_label
_atom_site_type_symbol
_atom_type_description
_atom_site_fract_x
_atom_site_fract_y
_atom_site_fract_z
_atom_type_partial_charge
C1    C     C_R   0.495781 0.262522 0.498461 0.811516
C2    C     C_R   0.188881 0.387880 0.967555 -0.142728
C3    C     C_R   0.932570 0.480858 0.379807 -0.258159
C4    C     C_R   0.872572 0.489849 0.505577 -0.096155
C5    C     C_R   0.943475 0.491283 0.629587 0.012572
C6    C     C_R   0.069649 0.502734 0.622334 -0.242577
C7    C     C_R   0.129079 0.495240 0.495616 -0.072001
C8    C     C_R   0.059037 0.478042 0.372504 0.033419
C9    C     C_R   0.924237 0.538829 0.881803 -0.173001
C10   C     C_R   0.881256 0.509132 0.012030 -0.138172
C11   C     C_R   0.807328 0.404803 0.028113 -0.132774
C12   C     C_R   0.262679 0.498226 0.498391 0.782933
C13   C     C_R   0.781895 0.327130 0.915097 -0.121147
C14   C     C_R   0.827353 0.355176 0.785085 -0.063691
C15   C     C_R   0.894059 0.463912 0.766633 0.113044
C16   C     C_R   0.472207 0.066202 0.619051 0.103368
C17   C     C_R   0.479086 0.129330 0.495163 -0.083587
C18   C     C_R   0.464668 0.061865 0.369857 -0.221823
C19   C     C_R   0.461612 0.932948 0.370975 -0.220878
C20   C     C_R   0.471795 0.870341 0.497491 -0.084564
C21   C     C_R   0.464189 0.939169 0.620096 0.080730
C22   C     C_3   0.543844 0.931520 0.744661 -0.531565
C23   C     C_R   0.492557 0.737375 0.500081 0.792706
C24   C     C_3   0.558831 0.069136 0.740586 -0.034229
C25   C     C_R   0.519426 0.605924 0.077169 0.261228
C26   C     C_R   0.473665 0.396659 0.071204 -0.064130
C27   C     C_R   0.473526 0.396783 0.923437 -0.075996
C28   C     C_R   0.520327 0.606231 0.930033 0.249499
C29   C     C_3   0.636311 0.679564 0.936608 -0.524927
C30   C     C_3   0.631023 0.682252 0.092750 -0.490153
C31   C     C_R   0.737816 0.496076 0.501756 0.784297
C32   C     C_R   0.194842 0.509224 0.017232 -0.136946
C33   C     C_R   0.155362 0.538239 0.150754 -0.160160
C34   C     C_R   0.111259 0.445386 0.236312 0.128318
C35   C     C_R   0.108040 0.322206 0.187333 0.203758
C36   C     C_R   0.147295 0.294599 0.052405 -0.180340
Cu1   Cu    Cu3+1 0.499990 0.499980 0.640670 0.947484
Cu2   Cu    Cu3+1 0.500010 0.500020 0.359330 0.940208
H1    H     H_    0.218081 0.365460 0.863573 0.142825
H2    H     H_    0.767543 0.383662 0.126601 0.138086
H3    H     H_    0.725884 0.246309 0.929048 0.130709
H4    H     H_    0.462753 0.107693 0.271190 0.151162
H5    H     H_    0.490460 0.901573 0.835286 0.177077
H6    H     H_    0.628974 0.881226 0.720466 0.199890
H7    H     H_    0.524565 0.118020 0.833941 0.141528
H8    H     H_    0.451971 0.312297 0.122994 0.134899
H9    H     H_    0.228329 0.581099 0.951378 0.123964
H10   H     H_    0.629578 0.772335 0.899078 0.190248
H11   H     H_    0.706220 0.634062 0.145893 0.219685
H12   H     H_    0.611488 0.774825 0.136982 0.184496
H13   H     H_    0.157264 0.633068 0.186875 0.121353
H14   H     H_    0.879913 0.469300 0.286815 0.146784
H15   H     H_    0.122280 0.509808 0.717866 0.159296
H16   H     H_    0.978217 0.621780 0.870320 0.123927
N1    N     N_R   0.500790 0.500930 0.147930 -0.187314
N2    N     N_R   0.500790 0.500890 0.852020 -0.182689
O1    O     O_R   0.500000 0.319640 0.618810 -0.578739
O2    O     O_R   0.500010 0.319680 0.381230 -0.599106
O3    O     O_R   0.319640 0.499990 0.618790 -0.599639
O4    O     O_R   0.319650 0.500030 0.381210 -0.572857
O5    O     O_R   0.499990 0.680320 0.618770 -0.575488
O6    O     O_R   0.500000 0.680360 0.381190 -0.589057
O7    O     O_R   0.680350 0.499970 0.618790 -0.568857
O8    O     O_R   0.680360 0.500010 0.381210 -0.593127
H17   H     H_    0.809515 0.294426 0.697232 0.143939
H18   H     H_    0.458361 0.883106 0.272790 0.153625
N3    N     N_3   0.682771 0.105648 0.703170 -0.604160
H19   H     H_    0.708063 0.062222 0.610274 0.230659
H20   H     H_    0.742640 0.074449 0.779993 0.212197
H21   H     H_    0.450309 0.313001 0.867520 0.129969
H22   H     H_    0.711902 0.628756 0.890566 0.240674
N4    N     N_3   0.064142 0.226400 0.274608 -0.603519
H23   H     H_    0.969392 0.234660 0.279718 0.211676
H24   H     H_    0.080740 0.140239 0.229355 0.205722
H25   H     H_    0.144607 0.201009 0.012346 0.118790
H26   H     H_    0.901587 0.571477 0.097713 0.125998

loop_
_geom_bond_atom_site_label_1
_geom_bond_atom_site_label_2
_ccdc_geom_bond_type
C16   C21   A    
C19   C20   A    
C26   N1    A    
C13   H3    S    
C28   N2    A    
C7    C8    A    
C25   C28   A    
C26   C27   A    
Cu1   Cu2   S    
C24   H7    S    
C28   C29   S    
C18   C19   A    
C18   H4    S    
C5    C6    A    
C19   H18   S    
C2    C32   A    
C34   C35   A    
C24   N3    S    
Cu2   O2    S    
C12   O3    A    
C10   H26   S    
C2    H1    S    
C23   O6    A    
C22   H6    S    
Cu2   N1    S    
C35   C36   A    
C16   C17   A    
C9    C10   A    
C30   H12   S    
C16   C24   S    
C13   C14   A    
Cu1   N2    S    
Cu1   O7    S    
C33   C34   A    
Cu2   O8    S    
C7    C12   S    
C29   H10   S    
N3    H19   S    
C31   O7    A    
N4    H24   S    
C3    C8    A    
C27   N2    A    
C4    C5    A    
N3    H20   S    
C29   C30   S    
C36   H25   S    
C1    O1    A    
C22   H5    S    
C20   C23   S    
C17   C18   A    
C8    C34   S    
Cu1   O3    S    
C27   H21   S    
Cu2   O4    S    
C30   H11   S    
C35   N4    S    
C32   H9    S    
C22   C24   S    
C6    H15   S    
C3    C4    A    
C2    C36   A    
C25   C30   S    
C31   O8    A    
C25   N1    A    
N4    H23   S    
Cu1   O5    S    
C3    H14   S    
C6    C7    A    
C33   H13   S    
C1    C17   S    
C32   C33   A    
C9    C15   A    
C1    O2    A    
C11   C13   A    
C14   H17   S    
C11   H2    S    
C5    C15   S    
C4    C31   S    
C10   C11   A    
C26   H8    S    
C12   O4    A    
C23   O5    A    
C20   C21   A    
C14   C15   A    
C9    H16   S    
C29   H22   S    
C21   C22   S    
Cu1   O1    S    
Cu2   O6    S    
