data_str_m4_o14_o24_f0_acs.sym.49
_audit_creation_date              2012-12-11T14:24:54-0500
_audit_creation_method            fapswitch 2.2
_symmetry_space_group_name_H-M    P1
_symmetry_Int_Tables_number       1
_space_group_crystal_system       triclinic
_cell_length_a                    18.932082
_cell_length_b                    11.015705
_cell_length_c                    18.720135
_cell_angle_alpha                 90.139795
_cell_angle_beta                  91.278169
_cell_angle_gamma                 89.719236
_cell_volume                      3903.05958838

loop_
_atom_site_label
_atom_site_type_symbol
_atom_type_description
_atom_site_fract_x
_atom_site_fract_y
_atom_site_fract_z
_atom_type_partial_charge
C1    C     C_R   0.714849 0.335529 0.138263 0.564913
C2    C     C_R   0.229394 0.856221 0.061973 -0.002418
C3    C     C_R   0.716415 0.616398 0.399921 0.394019
C4    C     C_R   0.944263 0.017769 0.516558 -0.096478
C5    C     C_R   0.137487 0.203719 0.411141 -0.059431
C6    C     C_R   0.406175 0.608862 0.572895 -0.078560
C7    C     C_R   0.664671 0.699199 0.416564 -0.077584
C8    C     C_R   0.940987 0.966817 0.448620 -0.161746
C9    C     C_R   0.121416 0.205717 0.483042 -0.153616
C10   C     C_R   0.419880 0.564711 0.504730 -0.158707
C11   C     C_R   0.639495 0.702457 0.485147 -0.219832
C12   C     C_R   0.877574 0.920486 0.422168 -0.096283
C13   C     C_R   0.273640 0.346532 0.939195 0.007749
C14   C     C_R   0.167344 0.152182 0.533386 -0.069523
C15   C     C_R   0.365074 0.523507 0.460074 -0.009444
C16   C     C_R   0.666056 0.625474 0.537739 -0.113881
C17   C     C_R   0.748220 0.937968 0.430367 0.003060
C18   C     C_R   0.267098 0.005547 0.559294 -0.052476
C19   C     C_R   0.233962 0.493844 0.443317 -0.058505
C20   C     C_R   0.743548 0.444372 0.569447 -0.028664
C21   C     C_R   0.730658 0.375225 0.354554 0.645621
C22   C     C_R   0.264842 0.391459 0.652249 0.593598
C23   C     C_R   0.233833 0.886405 0.350131 0.622897
C24   C     C_R   0.729407 0.356260 0.061986 -0.002639
C25   C     C_R   0.769754 0.884154 0.647137 0.595414
C26   C     C_R   0.531519 0.160070 0.352716 0.559185
C27   C     C_R   0.468142 0.156084 0.646723 0.586418
C28   C     C_R   0.032536 0.658056 0.352519 0.516005
C29   C     C_R   0.941075 0.651930 0.638892 0.551309
C30   C     C_R   0.741998 0.972320 0.356742 0.596846
C31   C     C_R   0.271571 0.025597 0.636495 0.560838
C32   C     C_R   0.230168 0.517071 0.365075 0.582981
C33   C     C_R   0.756754 0.474924 0.642710 0.574551
C34   C     C_3   0.537895 0.263530 0.964994 -0.105788
C35   C     C_R   0.711841 0.804073 0.975588 -0.011045
C36   C     C_3   0.488707 0.250792 0.029795 -0.091017
C37   C     C_3   0.037895 0.763523 0.964995 -0.103766
C38   C     C_3   0.988704 0.750795 0.029795 -0.092281
C39   C     C_3   0.589502 0.167567 0.998367 -0.168568
C40   C     C_3   0.447671 0.147693 0.990971 -0.132509
C41   C     C_3   0.089496 0.667556 0.998370 -0.166765
C42   C     C_3   0.947665 0.647699 0.990972 -0.135200
C43   C     C_3   0.539599 0.155309 0.061959 -0.011724
C44   C     C_3   0.497619 0.160685 0.927543 0.002384
C45   C     C_3   0.039592 0.655308 0.061961 -0.012807
C46   C     C_R   0.288750 0.806302 0.024322 -0.031588
C47   C     C_3   0.997615 0.660682 0.927545 0.000481
C48   C     C_2   0.545803 0.393839 0.436195 0.220292
C49   C     C_2   0.545337 0.369793 0.589444 0.234300
C50   C     C_2   0.102813 0.806626 0.457767 0.246454
C51   C     C_2   0.060097 0.807240 0.601530 0.304776
C52   C     C_R   0.211842 0.304077 0.975592 -0.011654
C53   C     C_R   0.788775 0.306366 0.024350 -0.030246
C54   C     C_R   0.708531 0.821091 0.050934 0.000760
C55   C     C_R   0.290739 0.821582 0.948886 0.000634
C56   C     C_R   0.208539 0.321084 0.050939 -0.001232
C57   C     C_R   0.286388 0.332507 0.861467 0.588171
C58   C     C_R   0.790773 0.321645 0.948917 0.001918
C59   C     C_R   0.822288 0.919834 0.051940 -0.121839
C60   C     C_R   0.182179 0.937841 0.951324 -0.126480
C61   C     C_R   0.322289 0.419842 0.051936 -0.121516
C62   C     C_R   0.682190 0.437853 0.951332 -0.126169
C63   C     C_R   0.829808 0.895127 0.980267 0.309212
C64   C     C_R   0.175523 0.915835 0.022768 0.314850
C65   C     C_R   0.329808 0.395131 0.980264 0.309230
C66   C     C_R   0.675532 0.415856 0.022776 0.314055
C67   C     C_R   0.652666 0.746480 0.941705 -0.024927
C68   C     C_R   0.214845 0.835516 0.138261 0.566275
C69   C     C_R   0.346314 0.742064 0.057040 -0.052297
C70   C     C_R   0.152666 0.246484 0.941714 -0.024531
C71   C     C_R   0.846341 0.242143 0.057082 -0.051788
C72   C     C_R   0.095997 0.204252 0.980724 -0.031998
C73   C     C_R   0.898727 0.187864 0.016528 -0.047618
C74   C     C_R   0.595987 0.704269 0.980707 -0.032215
C75   C     C_R   0.398698 0.687800 0.016473 -0.047662
C76   C     C_R   0.597526 0.711109 0.054435 0.008925
C77   C     C_R   0.395199 0.692883 0.942642 -0.027670
C78   C     C_R   0.097546 0.211074 0.054454 0.007720
C79   C     C_R   0.786391 0.832500 0.861467 0.585706
C80   C     C_R   0.895241 0.192951 0.942699 -0.025770
C81   C     C_R   0.654096 0.765615 0.089436 -0.037914
C82   C     C_R   0.341454 0.757996 0.908939 -0.047984
C83   C     C_R   0.154116 0.265586 0.089450 -0.037540
C84   C     C_R   0.841505 0.258075 0.908986 -0.050658
C85   C     C_R   0.562590 0.150433 0.137508 0.554020
C86   C     C_R   0.469057 0.155162 0.854639 0.585121
C87   C     C_R   0.062587 0.650433 0.137508 0.557978
C88   C     C_R   0.969061 0.655162 0.854635 0.600295
C89   C     C_R   0.759519 0.894041 0.086075 -0.046241
C90   C     C_3   0.499035 0.053463 0.023298 0.412223
C91   C     C_R   0.241585 0.899954 0.915052 -0.046507
C92   C     C_R   0.259522 0.394045 0.086074 -0.047231
C93   C     C_R   0.741604 0.399983 0.915069 -0.048842
C94   C     C_R   0.496672 0.159271 0.573572 0.049343
C95   C     C_R   0.498951 0.178101 0.423420 0.004095
C96   C     C_R   0.969047 0.649772 0.567119 0.016633
C97   C     C_R   0.002796 0.667677 0.423397 -0.034886
C98   C     C_R   0.484852 0.057061 0.528558 0.014142
C99   C     C_R   0.472105 0.074159 0.455271 -0.030754
C100  C     C_R   0.949109 0.555499 0.518369 0.003065
C101  C     C_3   0.547790 0.066168 0.960032 0.400121
C102  C     C_R   0.956473 0.576174 0.445053 0.003233
C103  C     C_R   0.519056 0.279564 0.467419 -0.047655
C104  C     C_R   0.518050 0.269436 0.542890 -0.043416
C105  C     C_R   0.038083 0.740840 0.475318 -0.048203
C106  C     C_R   0.018741 0.736638 0.546873 -0.007390
C107  C     C_R   0.490900 0.936419 0.552961 -0.043421
C108  C     C_R   0.446661 0.976450 0.413214 -0.082756
C109  C     C_R   0.929778 0.436380 0.539329 -0.072912
C110  C     C_R   0.927485 0.491669 0.395534 -0.072252
C111  C     C_R   0.920256 0.344822 0.488742 -0.126494
C112  C     C_3   0.999024 0.553465 0.023302 0.410346
C113  C     C_R   0.915652 0.373282 0.416806 -0.112475
C114  C     C_R   0.480272 0.840335 0.506576 -0.131267
C115  C     C_R   0.457516 0.858886 0.436830 -0.054641
C116  C     C_R   0.759958 0.938895 0.577019 0.051388
C117  C     C_R   0.261001 0.946758 0.414238 0.035285
C118  C     C_R   0.237158 0.469028 0.592373 0.062944
C119  C     C_R   0.751220 0.407571 0.425176 0.019522
C120  C     C_R   0.820840 0.961603 0.534528 0.017164
C121  C     C_R   0.229893 0.056282 0.437105 0.015557
C122  C     C_R   0.286704 0.541649 0.558419 0.002649
C123  C     C_3   0.047781 0.566161 0.960036 0.402593
C124  C     C_R   0.732785 0.522235 0.448847 -0.035410
C125  C     C_R   0.815657 0.932142 0.462365 -0.011354
C126  C     C_R   0.223134 0.075272 0.511458 -0.035067
C127  C     C_R   0.295393 0.520755 0.485259 -0.008054
C128  C     C_R   0.715383 0.533165 0.520574 -0.057824
C129  C     C_R   0.688024 0.956982 0.472497 -0.094471
C130  C     C_R   0.307484 0.910391 0.532502 -0.088829
C131  C     C_R   0.171228 0.468029 0.480271 -0.161063
C132  C     C_R   0.767152 0.333333 0.545284 -0.113818
C133  C     C_R   0.743502 0.963968 0.151093 0.535424
C134  C     C_R   0.773643 0.846523 0.939196 0.007751
C135  C     C_R   0.256693 0.964487 0.848844 0.560306
C136  C     C_R   0.243502 0.463970 0.151093 0.550618
C137  C     C_R   0.756699 0.464502 0.848855 0.544559
C138  C     C_R   0.693691 0.946849 0.545938 0.327179
C139  C     C_R   0.299658 0.875538 0.462661 0.302017
C140  C     C_R   0.174307 0.445725 0.554494 0.341165
C141  C     C_R   0.765794 0.311823 0.473162 0.308130
C142  C     C_R   0.884850 0.016733 0.559455 0.412816
C143  C     C_R   0.194091 0.134365 0.388355 0.420570
C144  C     C_R   0.338159 0.606477 0.597674 0.436818
Cr1   Cr    Cr6+3 0.772820 0.169820 0.252640 1.029565
Cr2   Cr    Cr6+3 0.383280 0.011130 0.749340 1.065962
Cr3   Cr    Cr6+3 0.116720 0.511130 0.250660 1.031200
Cr4   Cr    Cr6+3 0.883280 0.511130 0.749340 1.067112
Cr5   Cr    Cr6+3 0.227180 0.169820 0.747360 1.052218
Cr6   Cr    Cr6+3 0.272820 0.669820 0.252640 1.041207
Cr7   Cr    Cr6+3 0.727180 0.669820 0.747360 1.037723
Cr8   Cr    Cr6+3 0.615040 0.323610 0.249150 1.124293
Cr9   Cr    Cr6+3 0.384960 0.323610 0.750850 1.102836
Cr10  Cr    Cr6+3 0.115040 0.823610 0.249150 1.076604
Cr11  Cr    Cr6+3 0.884960 0.823610 0.750850 1.113439
Cr12  Cr    Cr6+3 0.616720 0.011130 0.250660 1.031097
F1    F     F_    0.887741 0.084267 0.620278 -0.636991
F2    F     F_    0.577276 0.972206 0.921844 -0.615835
F3    F     F_    0.979172 0.443969 0.052506 -0.614910
F4    F     F_    0.077266 0.472194 0.921852 -0.610075
F5    F     F_    0.892503 0.922646 0.950624 -0.664272
F6    F     F_    0.114099 0.951046 0.052842 -0.659868
F7    F     F_    0.392505 0.422631 0.950620 -0.663941
F8    F     F_    0.614103 0.451057 0.052843 -0.660285
F9    F     F_    0.210138 0.135879 0.317974 -0.631997
F10   F     F_    0.325247 0.647622 0.664672 -0.615579
F11   F     F_    0.744068 0.619191 0.333550 -0.645018
F12   F     F_    0.635881 0.946642 0.586903 -0.667115
F13   F     F_    0.324598 0.765156 0.444340 -0.663443
F14   F     F_    0.117029 0.404546 0.589096 -0.631362
F15   F     F_    0.780723 0.198295 0.450238 -0.647362
F16   F     F_    0.479186 0.943960 0.052497 -0.614082
H1    H     H_    0.648000 0.169857 0.001607 0.116978
H2    H     H_    0.902303 0.303999 0.377784 0.162740
H3    H     H_    0.494812 0.752282 0.524462 0.094815
H4    H     H_    0.449008 0.782721 0.401070 0.179538
H5    H     H_    0.636259 0.973704 0.448540 0.154804
H6    H     H_    0.339851 0.853455 0.567035 0.189608
H7    H     H_    0.121388 0.457989 0.451462 0.152745
H8    H     H_    0.785197 0.263282 0.582042 0.188604
H9    H     H_    0.992343 0.061278 0.535335 0.143794
H10   H     H_    0.105320 0.254424 0.373001 0.138593
H11   H     H_    0.448355 0.641724 0.607661 0.111708
H12   H     H_    0.389321 0.138584 0.986823 0.124818
H13   H     H_    0.644347 0.761529 0.376673 0.155432
H14   H     H_    0.986366 0.969006 0.414670 0.180829
H15   H     H_    0.075261 0.255211 0.500122 0.177025
H16   H     H_    0.472779 0.568213 0.485532 0.132279
H17   H     H_    0.602975 0.771358 0.498895 0.164958
H18   H     H_    0.875708 0.886015 0.367917 0.145384
H19   H     H_    0.154285 0.167109 0.588135 0.210459
H20   H     H_    0.379128 0.489252 0.408351 0.199288
H21   H     H_    0.640828 0.635040 0.588316 0.191345
H22   H     H_    0.549555 0.349680 0.937551 0.183442
H23   H     H_    0.147995 0.669834 0.001610 0.117703
H24   H     H_    0.465898 0.326969 0.060595 0.190616
H25   H     H_    0.049557 0.849671 0.937550 0.184138
H26   H     H_    0.965898 0.826974 0.060595 0.189074
H27   H     H_    0.864949 0.965824 0.080086 0.146634
H28   H     H_    0.140699 0.989217 0.924547 0.148031
H29   H     H_    0.364950 0.465830 0.080081 0.148782
H30   H     H_    0.640705 0.489208 0.924548 0.148347
H31   H     H_    0.645746 0.732205 0.885572 0.181920
H32   H     H_    0.354792 0.731723 0.113340 0.175450
H33   H     H_    0.145740 0.232228 0.885579 0.183734
H34   H     H_    0.889314 0.638595 0.986823 0.125257
H35   H     H_    0.854824 0.231819 0.113382 0.173371
H36   H     H_    0.052064 0.160590 0.953470 0.114512
H37   H     H_    0.941002 0.137504 0.042678 0.122451
H38   H     H_    0.552053 0.660616 0.953448 0.113472
H39   H     H_    0.440982 0.637445 0.042614 0.124125
H40   H     H_    0.055652 0.171721 0.084984 0.149947
H41   H     H_    0.933943 0.145623 0.911224 0.157058
H42   H     H_    0.555622 0.671775 0.084960 0.151009
H43   H     H_    0.433899 0.645563 0.911160 0.156646
H44   H     H_    0.655399 0.760895 0.147092 0.153456
H45   H     H_    0.511627 0.913136 0.605333 0.213722
H46   H     H_    0.338985 0.754965 0.851220 0.168210
H47   H     H_    0.155429 0.260858 0.147107 0.165242
H48   H     H_    0.839050 0.255041 0.851271 0.149189
H49   H     H_    0.591851 0.437394 0.459473 0.104628
H50   H     H_    0.542423 0.463253 0.572036 0.069197
H51   H     H_    0.146882 0.757637 0.435306 0.121158
H52   H     H_    0.070038 0.903100 0.593986 0.145955
H53   H     H_    0.427848 0.990018 0.358701 0.146665
H54   H     H_    0.926779 0.406051 0.593504 0.194814
H55   H     H_    0.922159 0.512123 0.339118 0.161433
H56   H     H_    0.910667 0.253201 0.505842 0.181082
O1    O     O_R   0.788190 0.043000 0.172520 -0.551796
O2    O     O_R   0.454170 0.051610 0.669840 -0.545503
O3    O     O_R   0.045830 0.551610 0.330160 -0.539163
O4    O     O_R   0.954170 0.551610 0.669840 -0.478206
O5    O     O_R   0.681920 0.959720 0.327070 -0.526820
O6    O     O_R   0.318080 0.959720 0.672930 -0.470911
O7    O     O_R   0.181920 0.459720 0.327070 -0.494091
O8    O     O_R   0.818080 0.459720 0.672930 -0.530021
O9    O     O_3   0.668190 0.168190 0.250820 -0.315429
O10   O     O_3   0.331810 0.168190 0.749180 -0.332739
O11   O     O_3   0.168190 0.668190 0.250820 -0.333478
O12   O     O_R   0.211810 0.043000 0.827480 -0.541699
O13   O     O_3   0.831810 0.668190 0.749180 -0.328670
O14   O     O_R   0.766240 0.292300 0.176860 -0.536486
O15   O     O_R   0.233760 0.292300 0.823140 -0.518616
O16   O     O_R   0.266240 0.792300 0.176860 -0.536591
O17   O     O_R   0.733760 0.792300 0.823140 -0.521138
O18   O     O_R   0.670310 0.409160 0.168720 -0.415338
O19   O     O_R   0.329690 0.409160 0.831280 -0.416422
O20   O     O_R   0.170310 0.909160 0.168720 -0.410626
O21   O     O_R   0.829690 0.909160 0.831280 -0.428165
O22   O     O_R   0.556160 0.251900 0.173380 -0.491411
O23   O     O_R   0.288190 0.543000 0.172520 -0.540008
O24   O     O_R   0.443840 0.251900 0.826620 -0.485210
O25   O     O_R   0.056160 0.751900 0.173380 -0.494028
O26   O     O_R   0.943840 0.751900 0.826620 -0.482106
O27   O     O_R   0.545410 0.050140 0.168240 -0.452438
O28   O     O_R   0.454590 0.050140 0.831760 -0.469400
O29   O     O_R   0.045410 0.550140 0.168240 -0.452564
O30   O     O_R   0.954590 0.550140 0.831760 -0.460377
O31   O     O_R   0.681530 0.958350 0.176970 -0.518582
O32   O     O_R   0.318470 0.958350 0.823030 -0.498542
O33   O     O_R   0.181530 0.458350 0.176970 -0.511160
O34   O     O_R   0.711810 0.543000 0.827480 -0.541903
O35   O     O_R   0.818470 0.458350 0.823030 -0.507766
O36   O     O_R   0.788610 0.044480 0.334450 -0.463305
O37   O     O_R   0.211390 0.044480 0.665550 -0.503173
O38   O     O_R   0.288610 0.544480 0.334450 -0.483884
O39   O     O_R   0.711390 0.544480 0.665550 -0.509790
O40   O     O_R   0.766630 0.293670 0.326970 -0.463001
O41   O     O_R   0.233370 0.293670 0.673030 -0.500011
O42   O     O_R   0.266630 0.793670 0.326970 -0.460269
O43   O     O_R   0.733370 0.793670 0.673030 -0.478610
O44   O     O_R   0.670730 0.410640 0.330640 -0.471546
O45   O     O_R   0.556550 0.253260 0.323480 -0.447629
O46   O     O_R   0.329270 0.410640 0.669360 -0.494040
O47   O     O_R   0.170730 0.910640 0.330640 -0.462793
O48   O     O_R   0.829270 0.910640 0.669360 -0.473663
O49   O     O_2   0.514931 0.442802 0.385938 -0.509339
O50   O     O_2   0.574181 0.348263 0.647065 -0.473519
O51   O     O_2   0.106535 0.915495 0.467932 -0.563788
O52   O     O_2   0.085608 0.757066 0.654267 -0.430096
O53   O     O_R   0.443450 0.253260 0.676520 -0.476551
O54   O     O_R   0.056550 0.753260 0.323480 -0.505901
O55   O     O_R   0.943450 0.753260 0.676520 -0.474048
O56   O     O_R   0.545830 0.051610 0.330160 -0.535801

loop_
_geom_bond_atom_site_label_1
_geom_bond_atom_site_label_2
_ccdc_geom_bond_type
Cr2   O6    S    
C49   H50   S    
Cr10  O54   S    
Cr5   O37   S    
C57   O19   A    
C114  C115  A    
C28   O54   A    
C135  O32   A    
C45   C87   S    
C4    C142  A    
C95   C99   A    
C5    C143  A    
C81   H44   S    
C63   F5    S    
C38   C45   S    
C131  C140  A    
Cr3   O3    S    
C46   C55   A    
C39   H1    S    
C97   C105  A    
C137  O34   A    
C34   H22   S    
C71   H35   S    
C94   C104  A    
C100  C109  A    
C15   C127  A    
C17   C30   S    
C117  C139  A    
C20   C132  A    
C118  C140  A    
C19   C32   S    
C35   C134  A    
C31   O6    A    
C85   O27   A    
C43   C85   S    
C71   C73   A    
C120  C125  A    
Cr9   O53   S    
Cr7   O17   S    
C37   C38   S    
C47   C123  S    
C44   C101  S    
Cr1   O36   S    
C120  C142  A    
C111  C113  A    
C67   C74   A    
C33   O8    A    
C20   C33   S    
C101  F2    S    
C119  C141  A    
C18   C130  A    
C53   C71   A    
C78   H40   S    
C5    H10   S    
C56   C83   A    
C22   C118  S    
C136  O33   A    
C29   O4    A    
Cr11  O48   S    
C53   C58   A    
Cr12  O9    S    
C59   C63   A    
C14   C126  A    
C60   C64   A    
C41   H23   S    
C77   C82   A    
C50   O51   D    
C139  F13   S    
Cr1   O40   S    
C30   O5    A    
Cr11  O55   S    
C67   H31   S    
C60   H28   S    
C61   C65   A    
C21   C119  S    
Cr6   O11   S    
C62   C93   A    
C41   C45   S    
C18   C31   S    
C54   C81   A    
C21   O44   A    
Cr10  O25   S    
C28   C97   S    
C23   O42   A    
Cr2   O32   S    
C87   O29   A    
C49   C104  S    
Cr8   O22   S    
Cr11  O21   S    
C3    F11   S    
C72   H36   S    
C68   O20   A    
C99   C108  A    
C74   C76   A    
C108  C115  A    
C73   H37   S    
C25   O48   A    
C2    C68   S    
C109  C111  A    
C93   C137  S    
C13   C57   S    
C86   O28   A    
C141  F15   S    
C138  F12   S    
C118  C122  A    
C122  C127  A    
C42   C112  S    
C72   C78   A    
C84   H48   S    
Cr7   O34   S    
C107  H45   S    
C143  F9    S    
Cr8   O9    S    
Cr2   O10   S    
C50   C105  S    
C10   H16   S    
C38   H26   S    
C69   C75   A    
C16   H21   S    
C4    H9    S    
C37   C47   S    
C26   O56   A    
C23   O47   A    
C95   C103  A    
C89   C133  S    
C62   C66   A    
C34   C39   S    
C25   C116  S    
C8    H14   S    
C48   C103  S    
C116  C120  A    
C36   H24   S    
C5    C9    A    
Cr7   O13   S    
C83   H47   S    
C110  C113  A    
C35   C67   A    
C8    C12   A    
C65   F7    S    
C66   F8    S    
C75   C77   A    
C25   O43   A    
C132  H8    S    
C22   O41   A    
C98   C99   A    
C6    C144  A    
C132  C141  A    
C79   C134  S    
Cr1   O1    S    
C7    H13   S    
C27   C94   S    
C23   C117  S    
C29   C96   S    
C109  H54   S    
C61   C92   A    
C80   H41   S    
Cr3   O11   S    
C18   C126  A    
C96   C100  A    
Cr1   O14   S    
C34   C36   S    
C37   C41   S    
C1    O14   A    
C76   H42   S    
C40   C44   S    
C24   C66   A    
C1    C24   S    
C113  H2    S    
C31   O37   A    
C80   C84   A    
C48   O49   D    
C70   H33   S    
C75   H39   S    
Cr9   O10   S    
C111  H56   S    
C79   O17   A    
C58   C93   A    
C3    C7    A    
Cr8   O45   S    
Cr11  O26   S    
C108  H53   S    
C94   C98   A    
C135  O12   A    
C62   H30   S    
C55   C91   A    
C130  H6    S    
C21   O40   A    
C78   C83   A    
Cr4   O4    S    
Cr6   O38   S    
Cr8   O18   S    
C97   C102  A    
Cr12  O27   S    
C88   O30   A    
C124  C128  A    
Cr12  O31   S    
Cr6   O16   S    
C35   C54   A    
Cr6   O42   S    
C92   C136  S    
C130  C139  A    
C86   O24   A    
Cr9   O24   S    
C50   H51   S    
C43   C90   S    
C63   C134  A    
C112  C123  S    
Cr12  O56   S    
C88   O26   A    
C12   C125  A    
C24   C53   A    
C129  H5    S    
C98   C107  A    
C144  F10   S    
C11   H17   S    
Cr3   O29   S    
C9    C14   A    
C107  C114  A    
C26   O45   A    
C13   C52   A    
C11   C16   A    
C27   O2    A    
C51   H52   S    
Cr5   O10   S    
C137  O35   A    
Cr7   O39   S    
C114  H3    S    
C74   H38   S    
C102  C110  A    
C142  F1    S    
C3    C124  A    
C77   H43   S    
C140  F14   S    
C10   C15   A    
C6    C10   A    
C38   C42   S    
C105  C106  A    
C6    H11   S    
C110  H55   S    
Cr5   O41   S    
C57   O15   A    
Cr9   O19   S    
C51   O52   D    
C42   H34   S    
C133  O1    A    
C133  O31   A    
C91   C135  S    
C123  F4    S    
C90   F16   S    
C103  C104  A    
C36   C43   S    
C40   C90   S    
C22   O46   A    
C40   H12   S    
C32   O7    A    
Cr3   O7    S    
C15   H20   S    
C112  F3    S    
C121  C143  A    
C122  C144  A    
C4    C8    A    
C17   C125  A    
C45   C112  S    
Cr6   O23   S    
C13   C65   A    
C119  C124  A    
C2    C46   A    
C7    C11   A    
C33   O39   A    
Cr8   O44   S    
C20   C128  A    
C1    O18   A    
C59   C89   A    
C48   H49   S    
Cr5   O12   S    
C117  C121  A    
C46   C69   A    
C61   H29   S    
C129  C138  A    
C59   H27   S    
Cr1   O9    S    
C136  O23   A    
C32   O38   A    
Cr9   O46   S    
C37   H25   S    
Cr5   O15   S    
C85   O22   A    
C79   O21   A    
C44   C86   S    
C2    C64   A    
C39   C101  S    
C116  C138  A    
C19   C131  A    
C17   C129  A    
C36   C40   S    
C34   C44   S    
C54   C89   A    
C64   F6    S    
C87   O25   A    
C131  H7    S    
C39   C43   S    
Cr10  O11   S    
Cr4   O8    S    
C90   C101  S    
C115  H4    S    
C58   C84   A    
C82   H46   S    
Cr12  O5    S    
C29   O55   A    
C100  C102  A    
C55   C82   A    
C16   C128  A    
C28   O3    A    
C69   H32   S    
C14   H19   S    
Cr10  O20   S    
Cr4   O13   S    
Cr3   O33   S    
Cr11  O13   S    
Cr2   O2    S    
C60   C91   A    
C26   C95   S    
C96   C106  A    
Cr2   O28   S    
Cr4   O30   S    
C9    H15   S    
C76   C81   A    
C27   O53   A    
C12   H18   S    
C47   C88   S    
C41   C123  S    
C121  C126  A    
Cr7   O43   S    
C49   O50   D    
C68   O16   A    
C51   C106  S    
C19   C127  A    
C73   C80   A    
C30   O36   A    
C42   C47   S    
Cr4   O35   S    
Cr10  O47   S    
C52   C70   A    
C56   C92   A    
C70   C72   A    
C52   C56   A    
