data_str_m3_o13_o14_f0_pcu.sym.58
_audit_creation_date              2012-12-10T17:27:55-0500
_audit_creation_method            fapswitch 2.2
_symmetry_space_group_name_H-M    P1
_symmetry_Int_Tables_number       1
_space_group_crystal_system       triclinic
_cell_length_a                    10.807144
_cell_length_b                    12.22176
_cell_length_c                    12.66726
_cell_angle_alpha                 98.423509
_cell_angle_beta                  93.659844
_cell_angle_gamma                 87.465612
_cell_volume                      1650.6660327

loop_
_atom_site_label
_atom_site_type_symbol
_atom_type_description
_atom_site_fract_x
_atom_site_fract_y
_atom_site_fract_z
_atom_type_partial_charge
C1    C     C_R   0.489176 0.525646 0.700681 0.988690
C2    C     C_R   0.516988 0.645439 0.874860 -0.392499
C3    C     C_R   0.433438 0.465334 0.867549 0.500096
C4    C     C_R   0.738648 0.500499 0.498950 0.917783
C5    C     C_R   0.487578 0.455891 0.968980 -0.258155
C6    C     C_R   0.536435 0.551924 0.031797 -0.141368
C7    C     C_R   0.576863 0.544485 0.138141 0.396444
C8    C     C_R   0.534430 0.348242 0.115034 0.212837
C9    C     C_R   0.509343 0.351070 0.003383 0.366168
C10   C     C_R   0.389111 0.945683 0.389697 0.240725
C11   C     C_R   0.394185 0.830700 0.402291 0.356209
C12   C     C_R   0.932390 0.419218 0.422302 0.124577
C13   C     C_R   0.561781 0.864650 0.536013 0.471001
C14   C     C_R   0.554208 0.978214 0.521280 -0.274791
C15   C     C_R   0.451119 0.020713 0.467269 -0.215557
C16   C     C_R   0.513533 0.473634 0.298475 0.933899
C17   C     C_R   0.432985 0.137941 0.474152 0.075768
C18   C     C_R   0.632589 0.163236 0.560975 0.465059
C19   C     C_R   0.653850 0.049096 0.546723 0.477502
C20   C     C_R   0.260679 0.499555 0.500207 0.945396
C21   C     C_R   0.866912 0.340466 0.349609 -0.100629
C22   C     C_R   0.928120 0.246829 0.300601 -0.187042
C23   C     C_R   0.870415 0.499968 0.492173 -0.081999
C24   C     C_R   0.056509 0.236227 0.313261 0.556319
C25   C     C_R   0.123728 0.324865 0.365316 -0.191542
C26   C     C_R   0.062951 0.414707 0.427817 -0.023932
C27   C     C_3   0.803021 0.983408 0.433700 -0.109118
C28   C     C_3   0.074972 0.058290 0.345448 -0.157175
C29   C     C_3   0.628143 0.826495 0.001918 0.024571
C30   C     C_R   0.934409 0.578106 0.561988 -0.210940
C31   C     C_R   0.060944 0.584675 0.560377 0.410120
C32   C     C_R   0.127134 0.499201 0.496386 -0.195678
C33   C     C_R   0.543651 0.452063 0.183711 -0.343642
C34   C     C_R   0.474054 0.548381 0.815244 -0.176487
C35   C     C_R   0.542655 0.651122 0.985802 0.610649
H1    H     H_    0.884523 0.633939 0.619349 0.229272
H2    H     H_    0.262115 0.954163 0.108864 0.399453
H3    H     H_    0.896179 0.941943 0.430186 0.194372
H4    H     H_    0.803783 0.059871 0.395795 0.129442
H5    H     H_    0.737388 0.924246 0.387321 0.191220
H6    H     H_    0.114609 0.793575 0.358379 0.370302
H7    H     H_    0.738567 0.720504 0.744637 0.362550
H8    H     H_    0.008636 0.003411 0.294955 0.196875
H9    H     H_    0.032807 0.095437 0.421375 0.138250
H10   H     H_    0.154379 0.007553 0.371584 0.217592
H11   H     H_    0.288325 0.744023 0.742924 0.388837
H12   H     H_    0.529034 0.715680 0.834472 0.205546
H13   H     H_    0.823689 0.591145 0.079758 0.361411
H14   H     H_    0.422571 0.144460 0.088754 0.391759
H15   H     H_    0.561810 0.872956 0.952778 0.152537
H16   H     H_    0.704230 0.785311 0.953669 0.125434
H17   H     H_    0.671818 0.887810 0.064983 0.241208
H18   H     H_    0.348004 0.173432 0.442200 0.182507
H19   H     H_    0.767715 0.346615 0.335446 0.201911
H20   H     H_    0.876507 0.178498 0.259009 0.211715
H21   H     H_    0.222718 0.316624 0.360459 0.189232
H22   H     H_    0.633942 0.077222 0.877492 0.398552
H23   H     H_    0.111697 0.457707 0.760566 0.380410
H24   H     H_    0.892403 0.197199 0.758745 0.402535
N1    N     N_R   0.523130 0.207800 0.519340 -0.181391
N2    N     N_R   0.476870 0.792180 0.480660 -0.216227
O1    O     O_R   0.506170 0.421690 0.658830 -0.536336
O2    O     O_2   0.538643 0.261707 0.794991 -0.246728
O3    O     O_3   0.647498 0.147022 0.926671 -0.425056
O4    O     O_2   0.305106 0.318443 0.724427 -0.246498
O5    O     O_2   0.242755 0.345458 0.909680 -0.241788
O6    O     O_3   0.184237 0.499061 0.794285 -0.505415
O7    O     O_2   0.857931 0.247617 0.561673 -0.342982
O8    O     O_2   0.722314 0.348955 0.693301 -0.268636
O9    O     O_3   0.815612 0.160456 0.728200 -0.434373
O10   O     O_2   0.366965 0.108547 0.261874 -0.284465
O11   O     O_2   0.487279 0.940393 0.202832 -0.204267
O12   O     O_R   0.491330 0.609320 0.646410 -0.560918
O13   O     O_3   0.248423 0.937419 0.181324 -0.410460
O14   O     O_3   0.775349 0.009052 0.542159 -0.494345
O15   O     O_2   0.353947 0.737679 0.197226 -0.167048
O16   O     O_2   0.272007 0.628678 0.316207 -0.289305
O17   O     O_3   0.156075 0.807449 0.294399 -0.499743
O18   O     O_2   0.799154 0.798579 0.557500 -0.237883
O19   O     O_2   0.715797 0.918910 0.709671 -0.259415
O20   O     O_3   0.671886 0.715361 0.686883 -0.583783
O21   O     O_3   0.117069 0.135948 0.284338 -0.555150
O22   O     O_2   0.157436 0.783097 0.562673 -0.312023
O23   O     O_R   0.690660 0.406170 0.506210 -0.588750
O24   O     O_2   0.037030 0.761551 0.714520 -0.222926
O25   O     O_3   0.257442 0.672146 0.706771 -0.526781
O26   O     O_2   0.639198 0.734587 0.263412 -0.210590
O27   O     O_2   0.769968 0.570204 0.284241 -0.345193
O28   O     O_3   0.793029 0.663108 0.117294 -0.500439
O29   O     O_2   0.722417 0.203921 0.122603 -0.253056
O30   O     O_2   0.594291 0.213557 0.273492 -0.285111
O31   O     O_3   0.509290 0.114998 0.092112 -0.422886
O32   O     O_3   0.564758 0.751009 0.051720 -0.522647
O33   O     O_R   0.675810 0.593790 0.493790 -0.529852
O34   O     O_R   0.508670 0.390680 0.353590 -0.594967
O35   O     O_R   0.493830 0.578310 0.341170 -0.531160
O36   O     O_R   0.324190 0.406210 0.506210 -0.645076
O37   O     O_R   0.309340 0.593830 0.493790 -0.529233
O38   O     O_2   0.408493 0.163663 0.896479 -0.249518
S1    S     S_3+6 0.523551 0.229604 0.902909 0.122279
S2    S     S_3+6 0.290194 0.401552 0.823085 0.102620
S3    S     S_3+6 0.757090 0.237115 0.635461 0.114325
S4    S     S_3+6 0.372834 0.985314 0.257692 0.112523
S5    S     S_3+6 0.297131 0.744771 0.303283 0.145587
S6    S     S_3+6 0.688011 0.823338 0.623365 0.086199
S7    S     S_3+6 0.127332 0.704332 0.637196 0.085691
S8    S     S_3+6 0.695672 0.630182 0.205234 0.090969
S9    S     S_3+6 0.591653 0.220444 0.156312 0.091523
Zn1   Zn    Zn3+2 0.509910 0.374720 0.508290 1.092177
Zn2   Zn    Zn3+2 0.490090 0.625280 0.491710 1.142345

loop_
_geom_bond_atom_site_label_1
_geom_bond_atom_site_label_2
_ccdc_geom_bond_type
C2    C35   A    
O15   S5    D    
H2    O13   S    
C26   C32   A    
O37   Zn2   S    
C25   H21   S    
O4    S2    D    
C1    O1    A    
O12   Zn2   S    
O8    S3    D    
C12   C23   A    
C5    C6    A    
C10   S4    S    
O7    S3    D    
C4    C23   S    
C10   C15   A    
C20   C32   S    
C21   H19   S    
C27   H3    S    
C6    C35   A    
O18   S6    D    
C18   C19   A    
C18   S3    S    
C24   O21   S    
N1    Zn1   S    
O31   S9    S    
C20   O36   A    
C31   C32   A    
C27   H4    S    
C8    C9    A    
C11   S5    S    
O30   S9    D    
C20   O37   A    
C3    S2    S    
C13   C14   A    
C7    C33   A    
O5    S2    D    
O25   S7    S    
H7    O20   S    
C27   O14   S    
N2    Zn2   S    
C8    S9    S    
C1    C34   S    
C29   H15   S    
C35   O32   S    
O20   S6    S    
C28   H10   S    
C16   O35   A    
C28   O21   S    
C23   C30   A    
C24   C25   A    
C13   S6    S    
O34   Zn1   S    
H6    O17   S    
O27   S8    D    
C17   N1    A    
C3    C34   A    
C11   N2    A    
C25   C26   A    
O35   Zn2   S    
C12   C21   A    
C28   H9    S    
C12   C26   A    
C5    C9    A    
O2    S1    D    
C16   C33   S    
O36   Zn1   S    
O38   S1    D    
C4    O23   A    
C27   H5    S    
O28   S8    S    
O26   S8    D    
C6    C7    A    
C4    O33   A    
C18   N1    A    
C9    S1    S    
H13   O28   S    
C31   S7    S    
C7    S8    S    
H14   O31   S    
O24   S7    D    
C17   H18   S    
O6    S2    S    
H22   O3    S    
C29   H16   S    
C15   C17   A    
O10   S4    D    
C16   O34   A    
C14   C19   A    
C3    C5    A    
O9    S3    S    
C22   H20   S    
O11   S4    D    
C2    H12   S    
C28   H8    S    
O23   Zn1   S    
O22   S7    D    
C30   H1    S    
C1    O12   A    
C19   O14   S    
O29   S9    D    
C29   O32   S    
C2    C34   A    
C30   C31   A    
O1    Zn1   S    
O19   S6    D    
O33   Zn2   S    
O17   S5    S    
C22   C24   A    
C8    C33   A    
C10   C11   A    
H24   O9    S    
H23   O6    S    
O3    S1    S    
C13   N2    A    
C14   C15   A    
O16   S5    D    
C21   C22   A    
O13   S4    S    
H11   O25   S    
C29   H17   S    
