data_str_m2_o9_o18_f0_pcu.sym.221
_audit_creation_date              2012-12-10T19:45:44-0500
_audit_creation_method            fapswitch 2.2
_symmetry_space_group_name_H-M    P1
_symmetry_Int_Tables_number       1
_space_group_crystal_system       triclinic
_cell_length_a                    10.893331
_cell_length_b                    14.645354
_cell_length_c                    14.785955
_cell_angle_alpha                 64.410154
_cell_angle_beta                  102.92411
_cell_angle_gamma                 102.689102
_cell_volume                      2053.20158555

loop_
_atom_site_label
_atom_site_type_symbol
_atom_type_description
_atom_site_fract_x
_atom_site_fract_y
_atom_site_fract_z
_atom_type_partial_charge
C1    C     C_R   0.473455 0.120854 0.312005 0.871794
C2    C     C_R   0.468416 0.784709 0.961252 0.528206
C3    C     C_R   0.387677 0.147907 0.132587 -0.368249
C4    C     C_R   0.503715 0.849534 0.865254 -0.319944
C5    C     C_R   0.446614 0.296193 0.174640 0.441846
C6    C     C_R   0.488815 0.703664 0.824458 0.452955
C7    C     C_R   0.398468 0.359069 0.074180 -0.130304
C8    C     C_R   0.440105 0.637848 0.915639 -0.129735
C9    C     C_R   0.357635 0.316799 0.000190 -0.109285
C10   C     C_R   0.433136 0.678706 0.985464 -0.145898
C11   C     C_R   0.398126 0.465079 0.043810 0.007076
C12   C     C_R   0.518908 0.879272 0.688055 0.873769
C13   C     C_R   0.403331 0.531231 0.941579 0.021841
C14   C     C_R   0.362749 0.489340 0.868591 -0.244653
C15   C     C_R   0.383442 0.506202 0.110270 -0.241939
C16   C     C_R   0.262836 0.000115 0.501622 0.805777
C17   C     C_R   0.737095 0.000095 0.498260 0.793290
C18   C     C_R   0.328799 0.383254 0.897076 0.509329
C19   C     C_R   0.389936 0.611516 0.078590 0.498753
C20   C     C_R   0.741113 0.295038 0.646166 0.428044
C21   C     C_R   0.255355 0.698618 0.364578 0.408823
C22   C     C_R   0.694857 0.208870 0.623277 -0.098952
C23   C     C_R   0.870356 0.999785 0.496560 -0.101231
C24   C     C_R   0.301976 0.787260 0.381357 -0.056422
C25   C     C_R   0.516240 0.283405 0.514419 0.044800
C26   C     C_R   0.488803 0.719291 0.481397 0.051860
C27   C     C_R   0.555662 0.373935 0.531883 -0.121584
C28   C     C_R   0.450116 0.627785 0.465136 -0.118244
C29   C     C_R   0.669968 0.378702 0.600210 0.025538
C30   C     C_R   0.331919 0.619414 0.402477 0.021192
C31   C     C_R   0.483494 0.457856 0.485530 0.061556
C32   C     C_R   0.523635 0.544679 0.510084 0.080637
C33   C     C_R   0.635266 0.545484 0.579775 -0.306915
C34   C     C_R   0.129506 0.001694 0.502505 -0.091647
C35   C     C_R   0.370559 0.456303 0.417026 -0.303960
C36   C     C_R   0.709054 0.465654 0.623333 0.434857
C37   C     C_R   0.292458 0.532647 0.379470 0.468546
C38   C     C_R   0.353368 0.112999 0.744834 -0.242668
C39   C     C_R   0.668814 0.872302 0.252061 -0.173766
C40   C     C_R   0.264254 0.055919 0.698159 0.404917
C41   C     C_R   0.740489 0.934018 0.301488 0.383576
C42   C     C_R   0.181214 0.107191 0.609850 0.031289
C43   C     C_R   0.820233 0.888509 0.394649 0.041421
C44   C     C_R   0.182548 0.212718 0.576627 -0.336157
C45   C     C_R   0.908746 0.948355 0.447868 0.016781
C46   C     C_R   0.825368 0.783145 0.434665 -0.311144
C47   C     C_R   0.268004 0.267590 0.626888 -0.201050
C48   C     C_R   0.756871 0.723859 0.382776 -0.295437
C49   C     C_R   0.357463 0.220082 0.709297 0.575851
C50   C     C_R   0.679753 0.768321 0.289638 0.510724
C51   C     C_R   0.962156 0.052017 0.546858 -0.245355
C52   C     C_R   0.037805 0.950544 0.451419 -0.242275
C53   C     C_3   0.540586 0.234023 0.825413 -0.238359
C54   C     C_3   0.685136 0.651930 0.224776 -0.227756
C55   C     C_3   0.184294 0.102965 0.983397 -0.315999
C56   C     C_R   0.091195 0.053084 0.551456 0.020559
C57   C     C_3   0.424870 0.910090 0.001561 -0.293141
C58   C     C_3   0.885458 0.209600 0.786408 -0.358050
C59   C     C_3   0.046433 0.654437 0.379721 -0.275958
C60   C     C_3   0.176621 0.390604 0.757987 -0.256043
C61   C     C_3   0.231864 0.671177 0.103859 -0.186042
C62   C     C_3   0.653822 0.646981 0.804021 -0.320989
C63   C     C_3   0.636098 0.370524 0.230862 -0.277266
C64   C     C_R   0.438175 0.189711 0.204499 -0.205120
C65   C     C_R   0.507568 0.810176 0.794980 -0.203307
C66   C     C_R   0.345458 0.209484 0.031610 0.518305
Cu1   Cu    Cu3+1 0.466270 0.918260 0.475690 0.963749
Cu2   Cu    Cu3+1 0.533730 0.081740 0.524310 0.954549
H1    H     H_    0.348791 0.538867 0.789103 0.201585
H2    H     H_    0.607702 0.906642 0.181397 0.184141
H3    H     H_    0.117955 0.253075 0.510628 0.177917
H4    H     H_    0.885363 0.746980 0.505671 0.169818
H5    H     H_    0.266879 0.348904 0.599770 0.172170
H6    H     H_    0.764604 0.643257 0.415507 0.159006
H7    H     H_    0.933577 0.090313 0.585733 0.160690
H8    H     H_    0.066526 0.912010 0.412830 0.158336
H9    H     H_    0.528805 0.930814 0.845372 0.180772
H10   H     H_    0.382055 0.066534 0.154393 0.191041
H11   H     H_    0.592276 0.196344 0.797575 0.113046
H12   H     H_    0.356786 0.456966 0.184319 0.200018
H13   H     H_    0.501824 0.178261 0.895359 0.193318
H14   H     H_    0.610448 0.292506 0.845296 0.200982
H15   H     H_    0.695426 0.580384 0.294075 0.138248
H16   H     H_    0.779645 0.695321 0.204365 0.132008
H17   H     H_    0.637688 0.629188 0.161754 0.186425
H18   H     H_    0.116808 0.142824 0.994967 0.150930
H19   H     H_    0.198274 0.029969 0.050244 0.147907
H20   H     H_    0.140067 0.083637 0.917461 0.185520
H21   H     H_    0.338523 0.912224 0.944075 0.180708
H22   H     H_    0.497017 0.978021 0.972585 0.146344
H23   H     H_    0.576372 0.732973 0.527119 0.158587
H24   H     H_    0.394158 0.913052 0.066787 0.187879
H25   H     H_    0.833851 0.537389 0.697251 0.297870
H26   H     H_    0.162856 0.457814 0.311482 0.301870
H27   H     H_    0.930452 0.166131 0.760053 0.156792
H28   H     H_    0.800353 0.162396 0.822009 0.140462
H29   H     H_    0.955152 0.226469 0.846333 0.200074
H30   H     H_    0.042620 0.713000 0.407631 0.146490
H31   H     H_    0.067663 0.581460 0.444797 0.167980
H32   H     H_    0.951091 0.638365 0.339572 0.179888
H33   H     H_    0.185926 0.918497 0.710336 0.313878
H34   H     H_    0.431789 0.272028 0.464711 0.159086
H35   H     H_    0.793114 0.073747 0.292358 0.313686
H36   H     H_    0.209692 0.462745 0.695822 0.146757
H37   H     H_    0.111885 0.404288 0.798153 0.170844
H38   H     H_    0.120485 0.338965 0.722044 0.220031
H39   H     H_    0.162448 0.600623 0.113418 0.149796
H40   H     H_    0.221046 0.726062 0.022933 0.120106
H41   H     H_    0.208521 0.708495 0.147720 0.235392
H42   H     H_    0.666171 0.594503 0.885799 0.163846
H43   H     H_    0.718399 0.720392 0.791376 0.142695
H44   H     H_    0.682181 0.609680 0.762305 0.183756
H45   H     H_    0.244884 0.848719 0.350722 0.144298
H46   H     H_    0.647939 0.432520 0.154767 0.149098
H47   H     H_    0.683690 0.305074 0.243773 0.161849
H48   H     H_    0.684733 0.401337 0.288301 0.177059
H49   H     H_    0.747735 0.145073 0.653495 0.145200
H50   H     H_    0.668935 0.608232 0.602156 0.124550
H51   H     H_    0.337585 0.394948 0.392406 0.128243
H52   H     H_    0.418239 0.072200 0.809016 0.121720
N1    N     N_R   0.584450 0.204570 0.560790 -0.210481
N2    N     N_R   0.415550 0.795430 0.439210 -0.214257
O1    O     O_R   0.455540 0.022090 0.338120 -0.577220
O2    O     O_3   0.608723 0.711802 0.235983 -0.502624
O3    O     O_3   0.301685 0.165472 0.962056 -0.540054
O4    O     O_3   0.480675 0.820330 0.036591 -0.515758
O5    O     O_3   0.818636 0.471143 0.690601 -0.698373
O6    O     O_3   0.177255 0.523418 0.319318 -0.709592
O7    O     O_3   0.858362 0.303360 0.705974 -0.535653
O8    O     O_3   0.134973 0.690714 0.311104 -0.562468
O9    O     O_3   0.262961 0.951241 0.740775 -0.769817
O10   O     O_3   0.731300 0.037314 0.254853 -0.748124
O11   O     O_3   0.281063 0.343388 0.824297 -0.506506
O12   O     O_R   0.544460 0.977910 0.661880 -0.587415
O13   O     O_3   0.357060 0.647287 0.141115 -0.501233
O14   O     O_3   0.526249 0.664175 0.766693 -0.573526
O15   O     O_3   0.506537 0.339339 0.242895 -0.580753
O16   O     O_R   0.512510 0.160150 0.379180 -0.536677
O17   O     O_R   0.487490 0.839850 0.620820 -0.534945
O18   O     O_R   0.291160 0.930970 0.479480 -0.603492
O19   O     O_R   0.708840 0.069030 0.520520 -0.597296
O20   O     O_R   0.348130 0.069020 0.520540 -0.578639
O21   O     O_R   0.651870 0.930980 0.479460 -0.576523
O22   O     O_3   0.443827 0.283304 0.750083 -0.536652

loop_
_geom_bond_atom_site_label_1
_geom_bond_atom_site_label_2
_ccdc_geom_bond_type
C22   H49   S    
C1    C64   S    
C59   O8    S    
C34   C56   A    
C8    C13   A    
C23   C45   A    
C57   H24   S    
C27   C29   A    
C59   H31   S    
C14   C18   A    
Cu2   O16   S    
C20   O7    S    
Cu1   O21   S    
C54   H16   S    
C39   C41   A    
C38   C49   A    
C3    C64   A    
C15   C19   A    
C29   C36   A    
C17   C23   S    
C57   H21   S    
C44   H3    S    
C53   H13   S    
C53   H11   S    
C51   H7    S    
C48   C50   A    
C4    C65   A    
C25   H34   S    
C58   O7    S    
C19   O13   S    
C49   O22   S    
C33   C36   A    
C18   O11   S    
C17   O19   A    
C51   C56   A    
C62   O14   S    
C55   H20   S    
C61   H40   S    
C58   H28   S    
C9    C66   A    
C6    O14   S    
C42   C56   S    
C63   H46   S    
C11   C15   A    
C6    C65   A    
C62   H43   S    
C55   O3    S    
C1    O1    A    
Cu2   O20   S    
Cu1   O17   S    
H35   O10   S    
C46   H4    S    
C44   C47   A    
C37   O6    S    
C38   H52   S    
C40   C42   A    
C63   O15   S    
C61   H41   S    
C33   H50   S    
C12   O12   A    
C13   C14   A    
C59   H32   S    
C41   C43   A    
C16   O18   A    
C58   H29   S    
C42   C44   A    
C54   H15   S    
C20   C29   A    
C46   C48   A    
C57   H22   S    
C27   C31   A    
Cu1   Cu2   S    
C48   H6    S    
C28   C32   A    
C50   O2    S    
C47   H5    S    
C47   C49   A    
C57   O4    S    
C5    C7    A    
C6    C8    A    
C45   C52   A    
C26   H23   S    
C30   C37   A    
C53   H14   S    
C7    C11   A    
C58   H27   S    
H25   O5    S    
C41   O10   S    
C23   C51   A    
C15   H12   S    
C62   H42   S    
C10   C19   A    
C16   C34   S    
C24   N2    A    
C12   O17   A    
Cu2   O19   S    
Cu1   O18   S    
C43   C45   S    
C16   O20   A    
C63   H48   S    
H33   O9    S    
C40   O9    S    
C20   C22   A    
C14   H1    S    
C31   C35   A    
C36   O5    S    
C2    C10   A    
Cu1   N2    S    
C2    O4    S    
C60   H38   S    
C61   O13   S    
C22   N1    A    
C12   C65   S    
C7    C9    A    
C54   O2    S    
C35   C37   A    
C26   C28   A    
C31   C32   A    
C52   H8    S    
Cu1   O1    S    
Cu2   N1    S    
C54   H17   S    
C5    O15   S    
H26   O6    S    
C25   C27   A    
C21   C30   A    
C34   C52   A    
C66   O3    S    
C17   O21   A    
C53   O22   S    
C32   C33   A    
C55   H18   S    
C28   C30   A    
C63   H47   S    
C4    H9    S    
C38   C40   A    
C11   C13   A    
C35   H51   S    
C2    C4    A    
Cu2   O12   S    
C39   H2    S    
C55   H19   S    
C61   H39   S    
C43   C46   A    
C21   O8    S    
C1    O16   A    
C3    C66   A    
C9    C18   A    
C24   H45   S    
C39   C50   A    
C62   H44   S    
C5    C64   A    
C8    C10   A    
C21   C24   A    
C59   H30   S    
C26   N2    A    
C60   H36   S    
C3    H10   S    
C25   N1    A    
C60   O11   S    
C60   H37   S    
