data_str_m3_o1_o10_f0_pcu.sym.217
_audit_creation_date              2012-12-10T18:42:32-0500
_audit_creation_method            fapswitch 2.2
_symmetry_space_group_name_H-M    P1
_symmetry_Int_Tables_number       1
_space_group_crystal_system       triclinic
_cell_length_a                    8.581889
_cell_length_b                    10.652796
_cell_length_c                    9.851329
_cell_angle_alpha                 90.40815
_cell_angle_beta                  98.946741
_cell_angle_gamma                 89.840256
_cell_volume                      889.638057233

loop_
_atom_site_label
_atom_site_type_symbol
_atom_type_description
_atom_site_fract_x
_atom_site_fract_y
_atom_site_fract_z
_atom_type_partial_charge
C1    C     C_R   0.505399 0.260378 0.500181 0.866428
C2    C     C_R   0.494938 0.739808 0.499932 0.862576
C3    C     C_R   0.201006 0.499196 0.463855 0.955749
C4    C     C_R   0.798994 0.498716 0.536060 0.950158
C5    C     C_2   0.035653 0.498549 0.444419 -0.383430
C6    C     C_2   0.964325 0.495317 0.555135 -0.421794
C7    C     C_R   0.611205 0.060329 0.429209 0.158145
C8    C     C_R   0.392609 0.940498 0.574085 0.165186
C9    C     C_R   0.600174 0.931265 0.428508 -0.245192
C10   C     C_R   0.400960 0.069442 0.571688 -0.250925
C11   C     C_R   0.493269 0.872376 0.500461 -0.080014
C12   C     C_R   0.507822 0.128101 0.500049 -0.094225
C13   C     C_R   0.600662 0.575198 0.086472 -0.306817
C14   C     C_R   0.397084 0.426250 0.913196 -0.338666
C15   C     C_R   0.604606 0.572831 0.942654 0.523116
C16   C     C_R   0.398759 0.423091 0.059103 0.545157
H1    H     H_    0.973167 0.502187 0.339566 0.180503
H2    H     H_    0.026955 0.490707 0.659833 0.182247
H3    H     H_    0.679190 0.876102 0.375699 0.155789
H4    H     H_    0.322526 0.124726 0.625041 0.152394
H5    H     H_    0.677846 0.637426 0.153097 0.165423
H6    H     H_    0.313951 0.370859 0.843998 0.154328
N1    N     N_R   0.499960 0.499970 0.857200 -0.119926
N2    N     N_R   0.500040 0.500030 0.142800 -0.121926
O1    O     O_R   0.499990 0.316750 0.614620 -0.631887
O2    O     O_R   0.500010 0.683250 0.385380 -0.629633
O3    O     O_R   0.499990 0.316780 0.385290 -0.575080
O4    O     O_R   0.500010 0.683220 0.614710 -0.571259
O5    O     O_R   0.271750 0.499990 0.587840 -0.627614
O6    O     O_R   0.728250 0.500010 0.412160 -0.623730
O7    O     O_R   0.271750 0.500010 0.358510 -0.573885
O8    O     O_R   0.728250 0.499990 0.641490 -0.597803
Zn1   Zn    Zn3+2 0.500000 0.499980 0.653120 0.965714
Zn2   Zn    Zn3+2 0.500000 0.500020 0.346880 0.978260
C17   C     C_3   0.739505 0.120483 0.361691 -0.404585
C18   C     C_3   0.692468 0.125464 0.205940 -0.828598
H7    H     H_    0.671017 0.029403 0.162572 0.253116
H8    H     H_    0.584194 0.182683 0.178768 0.279255
H9    H     H_    0.788641 0.169158 0.159305 0.236442
H10   H     H_    0.768341 0.216539 0.402076 0.206797
H11   H     H_    0.850427 0.065371 0.386426 0.191375
C19   C     C_3   0.275178 0.881544 0.654677 -0.413298
C20   C     C_3   0.338772 0.884933 0.808439 -0.801003
H12   H     H_    0.251188 0.844210 0.866897 0.236133
H13   H     H_    0.449771 0.829991 0.830642 0.296299
H14   H     H_    0.361991 0.983164 0.844358 0.239008
H15   H     H_    0.162011 0.934392 0.635672 0.189042
H16   H     H_    0.245291 0.783690 0.621462 0.212821
O9    O     O_3   0.705387 0.651090 0.886391 -0.589434
C21   C     C_3   0.862930 0.612993 0.930434 0.117697
H17   H     H_    0.881193 0.513908 0.899281 0.144568
H18   H     H_    0.896478 0.622027 0.043811 0.119258
C22   C     C_3   0.972943 0.696579 0.864510 -0.822044
H19   H     H_    0.968970 0.793887 0.905115 0.244056
H20   H     H_    0.095385 0.660008 0.888463 0.207625
H21   H     H_    0.937210 0.698319 0.751325 0.262685
O10   O     O_3   0.295061 0.350852 0.121321 -0.576788
C23   C     C_3   0.247391 0.239271 0.048246 0.046566
H22   H     H_    0.346500 0.193376 0.005789 0.127026
H23   H     H_    0.149008 0.259956 0.963798 0.138178
C24   C     C_3   0.187926 0.146890 0.145499 -0.797905
H24   H     H_    0.089988 0.189539 0.191661 0.251094
H25   H     H_    0.144555 0.060409 0.088360 0.203723
H26   H     H_    0.285014 0.121269 0.228918 0.263522

loop_
_geom_bond_atom_site_label_1
_geom_bond_atom_site_label_2
_ccdc_geom_bond_type
C14   N1    A    
C24   H26   S    
C21   H18   S    
C20   H12   S    
C8    C10   A    
C17   H11   S    
C9    C11   A    
C17   C18   S    
C13   C15   A    
C3    O7    A    
O8    Zn1   S    
C14   H6    S    
C23   C24   S    
C22   H20   S    
C21   H17   S    
O7    Zn2   S    
C13   H5    S    
O9    C21   S    
C16   N2    A    
C19   H16   S    
C22   H19   S    
C1    O1    A    
C20   H13   S    
C3    O5    A    
O10   C23   S    
C4    O8    A    
C1    C12   S    
C10   C12   A    
C8    C11   A    
C5    C6    D    
C2    C11   S    
C15   N1    A    
C18   H7    S    
C8    C19   S    
O4    Zn1   S    
C17   H10   S    
C7    C9    A    
C16   O10   S    
C15   O9    S    
O3    Zn2   S    
C24   H24   S    
C6    H2    S    
C20   H14   S    
C14   C16   A    
C7    C12   A    
C21   C22   S    
C5    H1    S    
C19   C20   S    
O6    Zn2   S    
C23   H23   S    
C18   H8    S    
O5    Zn1   S    
C19   H15   S    
C13   N2    A    
C2    O2    A    
C4    C6    S    
C22   H21   S    
O1    Zn1   S    
C1    O3    A    
C18   H9    S    
C2    O4    A    
C3    C5    S    
C23   H22   S    
C7    C17   S    
O2    Zn2   S    
C24   H25   S    
C4    O6    A    
C9    H3    S    
C10   H4    S    
N1    Zn1   S    
N2    Zn2   S    
