data_str_m3_o12_o18_f0_pcu.sym.139
_audit_creation_date              2012-12-10T17:18:55-0500
_audit_creation_method            fapswitch 2.2
_symmetry_space_group_name_H-M    P1
_symmetry_Int_Tables_number       1
_space_group_crystal_system       triclinic
_cell_length_a                    10.167519
_cell_length_b                    10.895186
_cell_length_c                    14.098487
_cell_angle_alpha                 89.371279
_cell_angle_beta                  100.874399
_cell_angle_gamma                 96.755885
_cell_volume                      1522.99283327

loop_
_atom_site_label
_atom_site_type_symbol
_atom_type_description
_atom_site_fract_x
_atom_site_fract_y
_atom_site_fract_z
_atom_type_partial_charge
C1    C     C_R   0.055421 0.732002 0.495556 0.935248
C2    C     C_2   0.989161 0.060554 0.473987 0.012043
C3    C     C_2   0.430681 0.508807 0.508285 -0.145836
C4    C     C_2   0.569396 0.490453 0.492310 -0.155997
C5    C     C_R   0.093864 0.510984 0.683918 0.878620
C6    C     C_R   0.906275 0.490664 0.316151 0.855576
C7    C     C_R   0.143907 0.519351 0.787318 -0.044314
C8    C     C_R   0.856135 0.488858 0.212825 -0.044255
C9    C     C_R   0.127041 0.590790 0.944826 -0.242807
C10   C     C_R   0.872542 0.428071 0.052807 -0.247394
C11   C     C_R   0.067136 0.561427 0.849897 -0.189771
C12   C     C_R   0.944147 0.267789 0.503306 0.946631
C13   C     C_R   0.932831 0.452182 0.148259 -0.198358
C14   C     C_R   0.273522 0.491271 0.822685 -0.269522
C15   C     C_R   0.726485 0.519094 0.179148 -0.263517
C16   C     C_R   0.333266 0.512548 0.919543 0.091805
C17   C     C_R   0.664637 0.498742 0.082722 0.091769
C18   C     C_R   0.263262 0.574171 0.978895 0.118842
C19   C     C_R   0.734545 0.439384 0.021674 0.120299
C20   C     C_R   0.464689 0.482592 0.955832 0.048816
C21   C     C_R   0.531845 0.527259 0.048023 0.045772
C22   C     C_R   0.271250 0.708677 0.122801 0.111445
C23   C     C_R   0.465700 0.601595 0.101511 -0.285611
C24   C     C_R   0.222486 0.668617 0.205695 -0.144583
C25   C     C_R   0.142998 0.741503 0.246375 -0.132522
C26   C     C_R   0.114439 0.855190 0.206189 -0.121611
C27   C     C_R   0.166837 0.897557 0.125541 -0.132461
C28   C     C_R   0.245292 0.824650 0.083887 -0.170311
C29   C     C_R   0.721690 0.301322 0.877028 0.121782
C30   C     C_R   0.781194 0.199727 0.921420 -0.175534
C31   C     C_R   0.843534 0.123958 0.868934 -0.128496
C32   C     C_R   0.841080 0.145544 0.770983 -0.119081
C33   C     C_R   0.773432 0.240513 0.725080 -0.141707
C34   C     C_R   0.529091 0.406199 0.903248 -0.290222
C35   C     C_R   0.715859 0.319662 0.777879 -0.147548
C36   C     C_R   0.047346 0.099801 0.386738 0.177149
C37   C     C_R   0.187740 0.121051 0.391881 -0.126884
C38   C     C_R   0.240281 0.163643 0.311150 -0.159792
C39   C     C_R   0.153532 0.187877 0.225511 -0.127650
C40   C     C_R   0.014023 0.167537 0.219898 -0.160098
C41   C     C_R   0.960937 0.124495 0.300221 -0.174181
C42   C     C_R   0.966054 0.906569 0.612954 0.171118
C43   C     C_R   0.060633 0.897595 0.698634 -0.177901
C44   C     C_R   0.017959 0.857631 0.783649 -0.156914
C45   C     C_R   0.332479 0.623095 0.068487 -0.029109
C46   C     C_R   0.880840 0.824961 0.783576 -0.129444
C47   C     C_R   0.786030 0.833149 0.698659 -0.161381
C48   C     C_R   0.828190 0.873372 0.613453 -0.131609
C49   C     C_R   0.663292 0.386987 0.933787 -0.024330
C50   C     C_2   0.083510 0.863203 0.482126 -0.450327
C51   C     C_2   0.913573 0.135245 0.510270 -0.455552
C52   C     C_2   0.014101 0.940994 0.521013 0.008067
H1    H     H_    0.671290 0.549120 0.231016 0.159390
H2    H     H_    0.137767 0.889674 0.424741 0.146734
H3    H     H_    0.664583 0.617193 0.589132 0.164779
H4    H     H_    0.335389 0.383887 0.410104 0.168857
H5    H     H_    0.240641 0.578956 0.235879 0.137509
H6    H     H_    0.099888 0.708377 0.307169 0.152935
H7    H     H_    0.050176 0.909261 0.236920 0.148775
H8    H     H_    0.143746 0.985093 0.093658 0.131652
H9    H     H_    0.281125 0.855945 0.019072 0.128863
H10   H     H_    0.781864 0.181007 0.997069 0.126494
H11   H     H_    0.893607 0.048774 0.904206 0.132388
H12   H     H_    0.329882 0.460846 0.771693 0.157823
H13   H     H_    0.890917 0.088429 0.730650 0.153068
H14   H     H_    0.764991 0.253052 0.648685 0.164219
H15   H     H_    0.667545 0.395391 0.741669 0.129801
H16   H     H_    0.256066 0.105756 0.458622 0.125777
H17   H     H_    0.348348 0.179358 0.315376 0.122681
H18   H     H_    0.194351 0.221785 0.163321 0.124918
H19   H     H_    0.946961 0.185150 0.153291 0.134713
H20   H     H_    0.852591 0.110392 0.295137 0.125874
H21   H     H_    0.167327 0.920922 0.699288 0.129976
H22   H     H_    0.091259 0.851261 0.849480 0.139347
H23   H     H_    0.036198 0.434241 0.172461 0.165742
H24   H     H_    0.848096 0.793559 0.849390 0.128411
H25   H     H_    0.679887 0.807910 0.698785 0.122568
H26   H     H_    0.754075 0.877047 0.547636 0.128507
H27   H     H_    0.579379 0.421608 0.439881 0.167068
H28   H     H_    0.420772 0.577017 0.561225 0.166790
H29   H     H_    0.963814 0.578845 0.824286 0.172706
H30   H     H_    0.067339 0.630152 0.990016 0.169904
H31   H     H_    0.932832 0.394624 0.005307 0.167545
H32   H     H_    0.516894 0.648575 0.167542 0.154554
H33   H     H_    0.475193 0.355660 0.839523 0.152619
H34   H     H_    0.849834 0.103206 0.560762 0.133655
N1    N     N_2   0.322180 0.446120 0.460900 -0.196767
N2    N     N_2   0.677820 0.553880 0.539100 -0.198285
O1    O     O_R   0.935190 0.693030 0.507870 -0.585139
O2    O     O_R   0.064810 0.306970 0.492130 -0.581089
O3    O     O_R   0.142080 0.658430 0.482770 -0.622907
O4    O     O_R   0.857920 0.341570 0.517230 -0.631294
O5    O     O_R   0.969700 0.527180 0.651960 -0.609209
O6    O     O_R   0.030300 0.472820 0.348040 -0.619847
O7    O     O_R   0.176600 0.492580 0.626860 -0.624175
O8    O     O_R   0.823400 0.507420 0.373140 -0.621150
Zn1   Zn    Zn3+2 0.861850 0.523100 0.516760 0.935987
Zn2   Zn    Zn3+2 0.138150 0.476900 0.483240 0.938883

loop_
_geom_bond_atom_site_label_1
_geom_bond_atom_site_label_2
_ccdc_geom_bond_type
C43   H21   S    
C8    C13   A    
C23   C45   A    
C40   H19   S    
C46   H24   S    
O7    Zn2   S    
C29   C49   S    
C11   H29   S    
C7    C11   A    
C26   C27   A    
C37   C38   A    
C15   H1    S    
C12   O2    A    
C36   C37   A    
C27   H8    S    
C30   C31   A    
O6    Zn2   S    
C37   H16   S    
C10   H31   S    
C48   H26   S    
H3    N2    S    
C17   C19   A    
C7    C14   A    
C13   H23   S    
C24   H5    S    
C6    O6    A    
O4    Zn1   S    
C50   C52   D    
C1    C50   S    
N2    Zn1   S    
C9    H30   S    
N1    Zn2   S    
C20   C34   A    
C28   H9    S    
C38   H17   S    
C1    O3    A    
C22   C28   A    
C36   C41   A    
C3    H28   S    
C51   H34   S    
C5    O7    A    
C44   C46   A    
C33   H14   S    
C23   H32   S    
C3    N1    D    
C31   H11   S    
C24   C25   A    
C4    H27   S    
C39   C40   A    
C5    C7    S    
H4    N1    S    
C6    C8    S    
C25   C26   A    
C17   C21   A    
O1    Zn1   S    
C34   H33   S    
C43   C44   A    
C29   C30   A    
C19   C49   A    
C47   C48   A    
C35   H15   S    
C10   C19   A    
C16   C20   A    
C14   H12   S    
O8    Zn1   S    
C42   C48   A    
C44   H22   S    
C9    C11   A    
C2    C52   S    
C41   H20   S    
C40   C41   A    
C8    C15   A    
C6    O8    A    
C30   H10   S    
C14   C16   A    
C25   H6    S    
C47   H25   S    
C3    C4    S    
C18   C45   A    
O5    Zn1   S    
C12   C51   S    
C26   H7    S    
C2    C36   S    
C15   C17   A    
C46   C47   A    
C34   C49   A    
C1    O1    A    
C12   O4    A    
C31   C32   A    
C10   C13   A    
C5    O5    A    
C4    N2    D    
C29   C35   A    
C32   C33   A    
C21   C23   A    
C50   H2    S    
C38   C39   A    
C33   C35   A    
C39   H18   S    
C22   C24   A    
O3    Zn2   S    
C2    C51   D    
C9    C18   A    
C22   C45   S    
C20   C21   A    
C16   C18   A    
C42   C43   A    
C27   C28   A    
O2    Zn2   S    
C42   C52   S    
C32   H13   S    
