data_str_m2_o10_o29_f0_pcu.sym.60
_audit_creation_date              2012-10-26T20:17:40-0400
_audit_creation_method            fapswitch 2.2
_symmetry_space_group_name_H-M    P1
_symmetry_Int_Tables_number       1
_space_group_crystal_system       triclinic
_cell_length_a                    27.790977
_cell_length_b                    8.694014
_cell_length_c                    7.5076
_cell_angle_alpha                 102.855149
_cell_angle_beta                  94.32369
_cell_angle_gamma                 93.557861
_cell_volume                      1757.64430561

loop_
_atom_site_label
_atom_site_type_symbol
_atom_type_description
_atom_site_fract_x
_atom_site_fract_y
_atom_site_fract_z
_atom_type_partial_charge
C1    C     C_R   0.498205 0.200318 0.453805 0.553956
C2    C     C_R   0.868498 0.352278 0.414611 0.031052
C3    C     C_R   0.355353 0.509536 0.505610 -0.025692
C4    C     C_R   0.644645 0.490233 0.494408 -0.025519
C5    C     C_R   0.970943 0.357472 0.418811 -0.029130
C6    C     C_R   0.029054 0.641791 0.581938 -0.029132
C7    C     C_R   0.977602 0.642508 0.570557 0.039566
C8    C     C_R   0.022396 0.356768 0.430156 0.039598
C9    C     C_R   0.949015 0.497316 0.497215 -0.033823
C10   C     C_R   0.050981 0.501963 0.503483 -0.033819
C11   C     C_R   0.940269 0.225508 0.319939 -0.067532
C12   C     C_R   0.501808 0.799684 0.546194 0.553482
C13   C     C_R   0.059728 0.773731 0.680866 -0.067483
C14   C     C_R   0.890375 0.220237 0.322933 0.388092
C15   C     C_R   0.109621 0.779017 0.677839 0.388146
C16   C     C_R   0.407830 0.501863 0.501912 0.574714
C17   C     C_R   0.592170 0.498090 0.498085 0.574920
C18   C     C_R   0.046497 0.214939 0.378441 0.254151
C19   C     C_R   0.953505 0.784352 0.622227 0.254141
C20   C     C_2   0.495455 0.032738 0.428449 0.310584
C21   C     C_2   0.504571 0.967266 0.571545 0.310340
C22   C     C_R   0.175010 0.376918 0.423767 0.479814
C23   C     C_R   0.102269 0.506513 0.504730 -0.105364
C24   C     C_R   0.824978 0.622468 0.576555 0.479812
C25   C     C_R   0.182134 0.648231 0.582076 0.445940
C26   C     C_R   0.817858 0.351096 0.418468 0.445989
C27   C     C_R   0.280346 0.610771 0.411224 -0.102642
C28   C     C_R   0.719612 0.389004 0.589226 -0.102981
C29   C     C_R   0.330806 0.610709 0.413564 0.180891
C30   C     C_R   0.669150 0.389231 0.586824 0.180970
C31   C     C_R   0.329235 0.413906 0.598503 0.334395
C32   C     C_R   0.670795 0.585488 0.401176 0.334374
C33   C     C_R   0.279319 0.418808 0.601134 0.480779
C34   C     C_R   0.897726 0.492790 0.495889 -0.105358
C35   C     C_R   0.720709 0.580431 0.398644 0.480716
C36   C     C_R   0.254517 0.515595 0.505418 0.125781
C37   C     C_R   0.745473 0.483843 0.494747 0.125947
C38   C     C_3   0.423499 0.276541 0.974380 0.073430
C39   C     C_3   0.576504 0.723453 0.025577 0.073421
C40   C     C_3   0.634942 0.142556 0.570189 -0.045051
C41   C     C_3   0.365420 0.857144 0.431981 -0.044756
C42   C     C_3   0.033700 0.950202 0.221990 -0.107005
C43   C     C_3   0.966310 0.049046 0.778805 -0.107025
C44   C     C_R   0.124586 0.369532 0.428826 -0.007276
C45   C     C_R   0.875407 0.629807 0.571663 -0.007244
C46   C     C_R   0.096909 0.225348 0.371345 -0.058783
C47   C     C_R   0.903090 0.773976 0.629175 -0.058754
C48   C     C_R   0.131496 0.647016 0.586040 0.031048
Cu1   Cu    Cu3+1 0.505380 0.517380 0.684380 1.157867
Cu2   Cu    Cu3+1 0.494620 0.482620 0.315620 1.157932
F1    F     F_    0.351649 0.309338 0.678151 -0.644404
F2    F     F_    0.648421 0.689876 0.321117 -0.644205
F3    F     F_    0.254813 0.327002 0.694317 -0.523420
F4    F     F_    0.745254 0.671930 0.305220 -0.523451
F5    F     F_    0.863786 0.086471 0.229055 -0.555621
F6    F     F_    0.136212 0.912763 0.771767 -0.555601
F7    F     F_    0.482072 0.945270 0.255345 -0.601942
F8    F     F_    0.517952 0.054734 0.744651 -0.602067
H1    H     H_    0.115179 0.118221 0.332903 0.183783
H2    H     H_    0.574854 0.769935 0.900119 0.147338
H3    H     H_    0.599662 0.622179 0.011321 0.180119
H4    H     H_    0.593974 0.821362 0.136796 0.176142
H5    H     H_    0.669161 0.086961 0.536975 0.172801
H6    H     H_    0.612108 0.143168 0.441944 0.112110
H7    H     H_    0.614654 0.067976 0.646050 0.182833
H8    H     H_    0.388671 0.855036 0.558742 0.111581
H9    H     H_    0.331404 0.913047 0.467852 0.173187
H10   H     H_    0.385454 0.932359 0.356139 0.182817
H11   H     H_    0.040251 0.996897 0.098540 0.093480
H12   H     H_    0.884824 0.881122 0.667542 0.183789
H13   H     H_    0.065330 0.890049 0.263834 0.151770
H14   H     H_    0.002605 0.859342 0.182734 0.156413
H15   H     H_    0.934694 0.109253 0.736945 0.151755
H16   H     H_    0.959733 0.002302 0.902200 0.093522
H17   H     H_    0.997412 0.139875 0.818159 0.156400
H18   H     H_    0.738689 0.315329 0.664944 0.190856
H19   H     H_    0.261248 0.684647 0.335847 0.191336
H20   H     H_    0.953592 0.126207 0.230349 0.179962
H21   H     H_    0.046404 0.872998 0.770512 0.179917
H22   H     H_    0.400326 0.377769 0.988384 0.179795
H23   H     H_    0.425132 0.230236 0.099960 0.147476
H24   H     H_    0.406058 0.178499 0.863257 0.176189
N1    N     N_R   0.202717 0.514447 0.501059 -0.389806
N2    N     N_R   0.797273 0.484933 0.499296 -0.389758
N3    N     N_2   0.486510 0.456430 0.038510 0.098119
N4    N     N_2   0.513490 0.543570 0.961490 0.098166
O1    O     O_R   0.503500 0.286120 0.619780 -0.428964
O2    O     O_2   0.803706 0.752082 0.657954 -0.402874
O3    O     O_2   0.789291 0.218420 0.340183 -0.365000
O4    O     O_2   0.210700 0.780890 0.660440 -0.364937
O5    O     O_3   0.469800 0.316838 0.927305 -0.415234
O6    O     O_3   0.530209 0.683147 0.072706 -0.415249
O7    O     O_3   0.644178 0.296420 0.682400 -0.526199
O8    O     O_3   0.355721 0.703994 0.318375 -0.526098
O9    O     O_3   0.022125 0.068582 0.371210 -0.530381
O10   O     O_3   0.977892 0.930704 0.629560 -0.530393
O11   O     O_R   0.496500 0.713880 0.380220 -0.429046
O12   O     O_R   0.494410 0.256780 0.308360 -0.490791
O13   O     O_R   0.505590 0.743220 0.691640 -0.490890
O14   O     O_R   0.434810 0.514700 0.655690 -0.475735
O15   O     O_R   0.565190 0.485300 0.344310 -0.475544
O16   O     O_R   0.425720 0.485350 0.344280 -0.524517
O17   O     O_R   0.574280 0.514650 0.655720 -0.524396
O18   O     O_2   0.196275 0.247358 0.342160 -0.402615

loop_
_geom_bond_atom_site_label_1
_geom_bond_atom_site_label_2
_ccdc_geom_bond_type
C43   H15   S    
C13   H21   S    
C1    O1    A    
C46   H1    S    
C27   C29   A    
Cu1   O1    S    
C40   O7    S    
N3    O5    S    
C41   H9    S    
N3    N4    D    
C26   O3    S    
C25   O4    S    
C40   H5    S    
C24   C45   A    
C35   C37   A    
C5    C11   A    
C30   O7    S    
C29   O8    S    
C11   C14   A    
C19   C47   A    
C36   N1    S    
C33   C36   A    
C22   O18   S    
C3    C29   A    
C17   O15   A    
C32   F2    S    
C12   O13   A    
Cu2   N3    S    
C22   C44   A    
C6    C7    A    
Cu2   O11   S    
C31   C33   A    
C37   N2    S    
C2    C34   A    
C43   H16   S    
C14   F5    S    
C38   H24   S    
C35   F4    S    
C43   H17   S    
C18   O9    S    
C15   C48   A    
C18   C46   A    
C44   C46   A    
C41   H10   S    
C45   C47   A    
C33   F3    S    
C39   H3    S    
Cu2   O12   S    
C42   O9    S    
C32   C35   A    
C16   O14   A    
C38   O5    S    
C42   H11   S    
C8    C18   A    
C23   C44   A    
C47   H12   S    
C5    C9    A    
C11   H20   S    
Cu1   O13   S    
C41   O8    S    
C42   H14   S    
C43   O10   S    
C2    C26   A    
C34   C45   A    
C3    C31   A    
C24   O2    S    
C25   C48   A    
C12   O11   A    
C4    C32   A    
C4    C17   S    
C16   O16   A    
Cu2   O16   S    
C7    C19   A    
C40   H7    S    
C13   C15   A    
C38   H23   S    
C9    C34   A    
C10   C23   A    
C28   H18   S    
C39   O6    S    
C7    C9    A    
C39   H4    S    
C1    C20   S    
C26   N2    A    
C23   C48   A    
Cu1   N4    S    
C31   F1    S    
C27   H19   S    
C1    O12   A    
Cu1   O17   S    
C5    C8    A    
C41   H8    S    
C27   C36   A    
C40   H6    S    
C15   F6    S    
C28   C30   A    
C24   N2    A    
C21   F8    S    
N4    O6    S    
C22   N1    A    
Cu1   O14   S    
C38   H22   S    
C28   C37   A    
C39   H2    S    
C12   C21   S    
C42   H13   S    
C17   O17   A    
C2    C14   A    
C6    C10   A    
C19   O10   S    
C20   C21   D    
Cu2   O15   S    
C8    C10   A    
Cu1   Cu2   S    
C25   N1    A    
C20   F7    S    
C4    C30   A    
C3    C16   S    
C6    C13   A    
