data_str_m9_o4_o16_f0_sra.sym.30
_audit_creation_date              2012-12-11T17:00:18-0500
_audit_creation_method            fapswitch 2.2
_symmetry_space_group_name_H-M    P1
_symmetry_Int_Tables_number       1
_space_group_crystal_system       triclinic
_cell_length_a                    6.964709
_cell_length_b                    13.657913
_cell_length_c                    20.269903
_cell_angle_alpha                 103.174199
_cell_angle_beta                  90.662503
_cell_angle_gamma                 90.13079
_cell_volume                      1877.24688342

loop_
_atom_site_label
_atom_site_type_symbol
_atom_type_description
_atom_site_fract_x
_atom_site_fract_y
_atom_site_fract_z
_atom_type_partial_charge
O1    O     O_R   0.506770 0.599700 0.449550 -0.538565
O2    O     O_R   0.179980 0.595740 0.587960 -0.546571
O3    O     O_R   0.004580 0.400300 0.550450 -0.541696
C1    C     C_R   0.348817 0.616353 0.615272 0.709814
O4    O     O_R   0.177380 0.611700 0.452380 -0.537941
O5    O     O_R   0.001970 0.416370 0.413900 -0.542368
C2    C     C_R   0.345198 0.637335 0.434963 0.709167
O6    O     O_R   0.509390 0.583630 0.586100 -0.538120
O7    O     O_3   0.337530 0.435890 0.487530 -0.375924
V1    V     V_3+5 0.064660 0.511890 0.502310 1.433895
O8    O     O_R   0.671950 0.404260 0.412040 -0.543212
C3    C     C_R   0.839986 0.382721 0.384829 0.696596
O9    O     O_R   0.674540 0.388300 0.547620 -0.543584
C4    C     C_R   0.844053 0.362620 0.564336 0.693835
V2    V     V_3+5 0.564030 0.488110 0.497690 1.425453
O10   O     O_3   0.841030 0.564110 0.512470 -0.369284
C5    C     C_R   0.882762 0.109937 0.603118 -0.101407
H1    H     H_    0.866241 0.164586 0.512329 0.103201
H2    H     H_    0.882271 0.033342 0.573614 0.158200
C6    C     C_R   0.856512 0.284399 0.601875 -0.022319
C7    C     C_R   0.866711 0.310783 0.926092 -0.139486
C8    C     C_R   0.881304 0.385994 0.890848 -0.123636
C9    C     C_R   0.889262 0.361950 0.820625 -0.149794
C10   C     C_R   0.877064 0.260825 0.783001 0.078706
C11   C     C_R   0.863094 0.182463 0.818976 0.011700
C12   C     C_R   0.876039 0.236157 0.710676 0.048447
C13   C     C_R   0.886618 0.133803 0.674819 0.098722
C14   C     C_R   0.886729 0.056839 0.710614 -0.008924
C15   C     C_R   0.852768 0.080778 0.780860 -0.114364
C16   C     C_R   0.859719 0.310432 0.672437 -0.200838
C17   C     C_R   0.869482 0.184679 0.567243 -0.198492
C18   C     C_R   0.860162 0.209796 0.891687 -0.066570
H3    H     H_    0.843385 0.389122 0.695543 0.086434
H4    H     H_    0.865589 0.331420 0.981012 0.130019
H5    H     H_    0.909292 0.424768 0.797528 0.107381
H6    H     H_    0.890238 0.463832 0.918299 0.122930
C19   C     C_R   0.710607 0.251108 0.203060 0.113739
C20   C     C_R   0.867993 0.188334 0.182738 -0.119207
C21   C     C_R   0.021010 0.194344 0.229339 -0.196832
H7    H     H_    0.140932 0.144531 0.216785 0.183207
C22   C     C_R   0.013114 0.258271 0.294526 -0.186516
H8    H     H_    0.130185 0.257367 0.329860 0.134337
C23   C     C_R   0.849708 0.317157 0.315639 -0.108584
C24   C     C_R   0.701570 0.314274 0.267917 0.113995
C25   C     C_3   0.493957 0.292671 0.274899 -0.474667
C26   C     C_3   0.504400 0.222255 0.205040 0.179801
H9    H     H_    0.403776 0.359963 0.275667 0.178790
H10   H     H_    0.467361 0.254479 0.316888 0.163259
H11   H     H_    0.414635 0.245671 0.165681 0.149719
C27   C     C_R   0.506142 0.687591 0.728868 0.115648
C28   C     C_R   0.354034 0.684159 0.683295 -0.123853
C29   C     C_R   0.196688 0.747382 0.707267 -0.135354
H12   H     H_    0.073233 0.749041 0.674728 0.147267
C30   C     C_R   0.197472 0.810031 0.773454 -0.152555
H13   H     H_    0.076782 0.858592 0.788785 0.101838
C31   C     C_R   0.354628 0.810975 0.818273 -0.071369
C32   C     C_R   0.505724 0.746914 0.792796 0.156301
C33   C     C_3   0.693573 0.708033 0.811321 -0.420594
C34   C     C_3   0.692832 0.640200 0.739190 -0.432227
H14   H     H_    0.679453 0.665507 0.851708 0.156574
H15   H     H_    0.807328 0.766747 0.820272 0.180709
H16   H     H_    0.676741 0.558928 0.738268 0.161691
H17   H     H_    0.806627 0.658995 0.706218 0.176677
C35   C     C_R   0.314308 0.887479 0.388623 -0.166674
H18   H     H_    0.311155 0.837863 0.481674 0.137829
H19   H     H_    0.264767 0.008393 0.304724 0.125379
H20   H     H_    0.287358 0.964952 0.414053 0.118044
C36   C     C_R   0.350810 0.714390 0.395310 -0.040598
C37   C     C_R   0.413864 0.686397 0.069507 -0.306714
C38   C     C_R   0.470815 0.614139 0.104815 0.437501
C39   C     C_R   0.478301 0.639486 0.176442 -0.043747
C40   C     C_R   0.399714 0.733132 0.212667 -0.080017
C41   C     C_R   0.353901 0.807124 0.175237 0.060286
C42   C     C_R   0.370982 0.758314 0.284728 0.087354
C43   C     C_R   0.331155 0.859613 0.317837 0.152217
C44   C     C_R   0.299979 0.931584 0.280017 -0.212169
C45   C     C_R   0.303509 0.904837 0.209872 -0.154316
C46   C     C_R   0.366783 0.685803 0.324717 -0.240222
C47   C     C_R   0.326782 0.815393 0.427188 -0.158718
C48   C     C_R   0.366434 0.783505 0.103802 -0.114973
H21   H     H_    0.364652 0.606254 0.301949 0.108580
H22   H     H_    0.421444 0.669260 0.014661 0.100934
H23   H     H_    0.267128 0.961987 0.182792 0.154815
O11   O     O_R   0.203450 0.916320 0.913910 -0.559250
O12   O     O_R   0.535520 0.888300 0.047620 -0.539313
O13   O     O_R   0.710860 0.083650 0.086100 -0.518836
C49   C     C_R   0.367798 0.862173 0.064756 0.717625
O14   O     O_R   0.532860 0.904250 0.912040 -0.532573
O15   O     O_R   0.708190 0.099710 0.949550 -0.532641
C50   C     C_R   0.363404 0.880311 0.885889 0.731878
O16   O     O_R   0.206120 0.900260 0.050460 -0.546521
O17   O     O_3   0.375280 0.064080 0.012470 -0.361627
V3    V     V_3+5 0.648180 0.988110 0.997690 1.474594
O18   O     O_R   0.038220 0.111740 0.952370 -0.541955
C51   C     C_R   0.869089 0.136442 0.934317 0.667541
O19   O     O_R   0.040880 0.095790 0.087940 -0.543714
C52   C     C_R   0.873175 0.117286 0.115252 0.718369
V4    V     V_3+5 0.148800 0.011950 0.002300 1.444920
O20   O     O_3   0.871820 0.935920 0.987530 -0.386984
O21   O     O_3   0.480889 0.119994 0.205631 -0.657373
H24   H     H_    0.561801 0.104305 0.242560 0.294272
C53   C     C_2   0.919645 0.949875 0.675249 0.319356
H25   H     H_    0.832798 0.889867 0.686514 0.085744
O22   O     O_2   0.051052 0.927605 0.635313 -0.540790
C54   C     C_2   0.599699 0.576310 0.211012 0.402140
H26   H     H_    0.679277 0.610832 0.256785 0.034497
O23   O     O_2   0.612615 0.485634 0.189065 -0.511249
O24   O     O_3   0.535069 0.521054 0.070101 -0.613579
H27   H     H_    0.521887 0.515733 0.020629 0.280207
C55   C     C_2   0.779351 0.999009 0.810085 0.329876
H28   H     H_    0.862260 0.969801 0.846722 0.053338
O25   O     O_2   0.623096 0.962178 0.791222 -0.535943

loop_
_geom_bond_atom_site_label_1
_geom_bond_atom_site_label_2
_ccdc_geom_bond_type
H18   C47   S    
C49   O16   A    
C22   H8    S    
O12   V3    S    
C1    O6    A    
O17   V4    S    
C21   C22   A    
C6    C16   A    
C25   C26   S    
O24   H27   S    
C54   O23   D    
C26   H11   S    
C12   C13   A    
C27   C34   S    
C14   C15   A    
C10   C12   A    
C48   C49   S    
O5    C3    A    
C20   C21   A    
O18   V4    S    
C33   H14   S    
V2    O10   S    
C31   C32   A    
O13   C52   A    
C55   H28   S    
O21   H24   S    
C37   H22   S    
C53   H25   S    
C2    C36   S    
C30   H13   S    
O8    V2    S    
C41   C48   A    
O19   V4    S    
C9    C10   A    
C38   C39   A    
O1    V2    S    
O7    V1    S    
V3    O20   S    
C33   H15   S    
C31   C50   S    
O9    C4    A    
C36   C46   A    
C22   C23   A    
C37   C38   A    
O11   C50   A    
C20   C52   S    
C29   C30   A    
C25   H9    S    
C11   C15   A    
C7    C18   A    
C30   C31   A    
C42   C43   A    
O12   C49   A    
C28   C29   A    
C5    C13   A    
C35   H20   S    
C4    C6    S    
C15   C55   S    
C10   C11   A    
C40   C42   A    
C21   H7    S    
O4    C2    A    
C7    H4    S    
C1    C28   S    
C33   C34   S    
O15   C51   A    
O2    C1    A    
C43   C44   A    
C19   C20   A    
O13   V3    S    
H19   C44   S    
O19   C52   A    
C27   C28   A    
C44   C45   A    
C53   O22   D    
O3    C4    A    
O14   C50   A    
C12   C16   A    
O6    V2    S    
C9    H5    S    
C39   C54   S    
C23   C24   A    
C5    C17   A    
C35   C47   A    
O2    V1    S    
C29   H12   S    
C25   H10   S    
C26   O21   S    
O14   V3    S    
C34   H16   S    
C41   C45   A    
C16   H3    S    
O1    C2    A    
C27   C32   A    
C24   C25   S    
C40   C41   A    
O5    V1    S    
O8    C3    A    
C3    C23   S    
C8    H6    S    
C54   H26   S    
C34   H17   S    
O11   V4    S    
C19   C24   A    
O9    V2    S    
O7    V2    S    
O4    V1    S    
O3    V1    S    
V1    O10   S    
C46   H21   S    
C32   C33   S    
C11   C18   A    
O17   V3    S    
C5    H2    S    
C35   C43   A    
O16   V4    S    
O15   V3    S    
O18   C51   A    
C55   O25   D    
C14   C53   S    
C39   C40   A    
C18   C51   S    
C36   C47   A    
V4    O20   S    
C42   C46   A    
C13   C14   A    
C45   H23   S    
C8    C9    A    
C37   C48   A    
C38   O24   S    
H1    C17   S    
C19   C26   S    
C7    C8    A    
C6    C17   A    
