data_str_m3_o40_o40_f0_fof.sym.57
_audit_creation_date              2012-12-10T16:37:25-0500
_audit_creation_method            fapswitch 2.2
_symmetry_space_group_name_H-M    P1
_symmetry_Int_Tables_number       1
_space_group_crystal_system       triclinic
_cell_length_a                    16.969048
_cell_length_b                    16.828304
_cell_length_c                    16.73319
_cell_angle_alpha                 65.743186
_cell_angle_beta                  65.478415
_cell_angle_gamma                 65.6135
_cell_volume                      3790.5483554

loop_
_atom_site_label
_atom_site_type_symbol
_atom_type_description
_atom_site_fract_x
_atom_site_fract_y
_atom_site_fract_z
_atom_type_partial_charge
C1    C     C_R   0.405759 0.096239 0.633501 0.133170
C2    C     C_R   0.443972 0.680714 0.962369 0.115194
C3    C     C_R   0.951355 0.604829 0.328025 0.122873
C4    C     C_R   0.957721 0.448809 0.681099 0.118488
C5    C     C_R   0.974262 0.178522 0.432374 0.915271
C6    C     C_R   0.041945 0.820780 0.559791 0.909129
C7    C     C_R   0.178179 0.432091 0.974867 0.927234
C8    C     C_R   0.820659 0.561368 0.039118 0.881553
C9    C     C_R   0.438817 0.960111 0.179444 0.914321
C10   C     C_R   0.561248 0.039736 0.820545 0.877912
C11   C     C_R   0.567792 0.822090 0.024767 0.905792
C12   C     C_R   0.595313 0.898422 0.367700 0.136112
C13   C     C_R   0.439206 0.179133 0.959787 0.894002
C14   C     C_R   0.024963 0.568052 0.821830 0.928539
C15   C     C_R   0.958666 0.439880 0.179378 0.889236
C16   C     C_R   0.823438 0.021079 0.569618 0.934725
C17   C     C_R   0.176773 0.978343 0.430693 0.902416
C18   C     C_R   0.449891 0.094818 0.688819 -0.241063
C19   C     C_R   0.550687 0.902963 0.311087 -0.237482
C20   C     C_R   0.076623 0.706628 0.439618 -0.238009
C21   C     C_R   0.027281 0.275711 0.510738 -0.240051
C22   C     C_R   0.708555 0.442582 0.067801 -0.241040
C23   C     C_R   0.057779 0.666877 0.392780 0.122523
C24   C     C_R   0.274647 0.509288 0.030083 -0.235113
C25   C     C_R   0.266900 0.042464 0.503194 -0.246464
C26   C     C_R   0.735477 0.949370 0.502996 -0.240575
C27   C     C_R   0.557280 0.293540 0.923604 -0.227595
C28   C     C_R   0.494612 0.727152 0.964638 -0.235014
C29   C     C_R   0.927807 0.559071 0.291388 -0.238949
C30   C     C_R   0.961128 0.499474 0.727336 -0.234150
C31   C     C_R   0.546705 0.006425 0.549919 -0.075536
C32   C     C_R   0.455794 0.987671 0.452308 -0.073040
C33   C     C_R   0.011698 0.555608 0.536954 -0.077230
C34   C     C_R   0.028522 0.323481 0.561387 0.120366
C35   C     C_R   0.985609 0.464078 0.446736 -0.077727
C36   C     C_R   0.554222 0.538448 0.009663 -0.076687
C37   C     C_R   0.462581 0.447693 0.984657 -0.077501
C38   C     C_R   0.597852 0.966523 0.475962 0.055102
C39   C     C_R   0.405284 0.025467 0.527396 0.056874
C40   C     C_R   0.991626 0.472028 0.584778 0.064309
C41   C     C_R   0.986901 0.555892 0.403348 0.058556
C42   C     C_R   0.469067 0.584854 0.993756 0.064219
C43   C     C_R   0.555193 0.406535 0.981318 0.059037
C44   C     C_R   0.551650 0.952761 0.429785 0.052976
C45   C     C_R   0.669125 0.396432 0.048027 0.119260
C46   C     C_R   0.450919 0.040739 0.572426 0.051761
C47   C     C_R   0.416984 0.533170 0.001425 0.065096
C48   C     C_R   0.595001 0.445721 0.011281 0.058020
C49   C     C_R   0.999206 0.419183 0.533608 0.065260
C50   C     C_R   0.017506 0.594892 0.442672 0.059095
C51   C     C_R   0.543101 0.055429 0.672091 0.039702
C52   C     C_R   0.457566 0.942801 0.328312 0.042311
C53   C     C_R   0.056184 0.676782 0.536023 0.035666
C54   C     C_R   0.986928 0.321148 0.438504 0.017527
C55   C     C_R   0.677550 0.538233 0.050360 0.036678
C56   C     C_R   0.321582 0.559478 0.032579 0.117593
C57   C     C_R   0.320140 0.437834 0.988329 0.017167
C58   C     C_R   0.314430 0.000649 0.432164 0.013142
C59   C     C_R   0.686893 0.995068 0.570778 0.006716
C60   C     C_R   0.462077 0.324265 0.943569 0.037035
C61   C     C_R   0.564448 0.680771 0.007411 0.013167
C62   C     C_R   0.944006 0.463576 0.323993 0.035631
C63   C     C_R   0.007160 0.566831 0.680162 0.010183
C64   C     C_R   0.590446 0.062739 0.720454 -0.178690
C65   C     C_R   0.409581 0.937018 0.279575 -0.191890
C66   C     C_R   0.065698 0.721465 0.586419 -0.178638
C67   C     C_R   0.310486 0.040860 0.558398 0.125227
C68   C     C_R   0.962894 0.276263 0.398645 -0.141425
C69   C     C_R   0.721792 0.588398 0.060807 -0.170298
C70   C     C_R   0.275524 0.397913 0.964142 -0.145101
C71   C     C_R   0.271926 0.971852 0.394314 -0.128784
C72   C     C_R   0.728604 0.026466 0.606870 -0.141110
C73   C     C_R   0.412167 0.278701 0.935485 -0.179138
C74   C     C_R   0.602717 0.724919 0.033744 -0.137943
C75   C     C_R   0.934402 0.413348 0.279271 -0.175948
C76   C     C_R   0.034552 0.603776 0.724405 -0.142851
C77   C     C_R   0.676917 0.069242 0.675683 0.025731
C78   C     C_R   0.693445 0.947655 0.448011 0.128784
C79   C     C_R   0.323110 0.930473 0.324410 0.025080
C80   C     C_R   0.074288 0.674367 0.673471 0.016406
C81   C     C_R   0.924926 0.326915 0.326608 0.019950
C82   C     C_R   0.674100 0.674212 0.071899 0.023005
C83   C     C_R   0.326142 0.325503 0.926221 0.021989
C84   C     C_R   0.592120 0.018876 0.597352 0.068539
C85   C     C_R   0.409366 0.977148 0.404443 0.068916
C86   C     C_R   0.026437 0.598931 0.584051 0.068748
C87   C     C_R   0.970629 0.416546 0.403919 0.066402
C88   C     C_R   0.597988 0.585474 0.023949 0.065051
C89   C     C_R   0.603817 0.332957 0.942587 0.126763
C90   C     C_R   0.415181 0.404091 0.970719 0.068772
H1    H     H_    0.333863 0.229175 0.602312 0.178471
H2    H     H_    0.767132 0.276263 0.048051 0.182593
H3    H     H_    0.239338 0.600330 0.145482 0.183717
H4    H     H_    0.222452 0.676773 0.045891 0.187004
H5    H     H_    0.244057 0.973712 0.683395 0.183012
H6    H     H_    0.199382 0.087533 0.656283 0.167296
H7    H     H_    0.804400 0.886130 0.360519 0.192347
H8    H     H_    0.771461 0.000920 0.322683 0.180026
H9    H     H_    0.720817 0.319641 0.839478 0.175831
H10   H     H_    0.724036 0.235138 0.938431 0.189250
H11   H     H_    0.404236 0.763212 0.849427 0.181220
H12   H     H_    0.277582 0.161600 0.695321 0.188719
H13   H     H_    0.328262 0.781454 0.949084 0.185677
H14   H     H_    0.857490 0.726755 0.308695 0.172610
H15   H     H_    0.956910 0.721395 0.224842 0.182481
H16   H     H_    0.843518 0.412897 0.763011 0.184587
H17   H     H_    0.939833 0.334027 0.783207 0.188234
H18   H     H_    0.732637 0.168717 0.640703 0.172465
H19   H     H_    0.660368 0.155104 0.744389 0.168205
H20   H     H_    0.339176 0.845440 0.255037 0.179852
H21   H     H_    0.266601 0.831826 0.358427 0.161695
H22   H     H_    0.155784 0.744799 0.659780 0.180171
H23   H     H_    0.720572 0.829849 0.306451 0.177074
H24   H     H_    0.170419 0.641721 0.732242 0.172496
H25   H     H_    0.844179 0.340697 0.255110 0.167912
H26   H     H_    0.830076 0.267179 0.357873 0.172345
H27   H     H_    0.641287 0.732161 0.170323 0.157249
H28   H     H_    0.743034 0.659169 0.155942 0.166769
H29   H     H_    0.267321 0.355872 0.830097 0.170495
H30   H     H_    0.340664 0.253991 0.844062 0.167016
H31   H     H_    0.413050 0.134881 0.737003 0.145089
H32   H     H_    0.586838 0.863816 0.262061 0.146623
H33   H     H_    0.110861 0.758803 0.399268 0.162449
H34   H     H_    0.662052 0.764104 0.399135 0.174705
H35   H     H_    0.060505 0.203707 0.529099 0.169224
H36   H     H_    0.761139 0.401680 0.101093 0.162006
H37   H     H_    0.202935 0.526926 0.064032 0.186110
H38   H     H_    0.194681 0.071887 0.522885 0.171919
H39   H     H_    0.807845 0.919371 0.485837 0.186369
H40   H     H_    0.597176 0.240702 0.889582 0.156108
H41   H     H_    0.478616 0.799141 0.929975 0.186031
H42   H     H_    0.894461 0.599855 0.238444 0.157996
H43   H     H_    0.925598 0.485358 0.799689 0.184018
H44   H     H_    0.161486 0.676443 0.275774 0.175687
H45   H     H_    0.065180 0.762481 0.269650 0.185918
H46   H     H_    0.139568 0.245107 0.602913 0.184627
H47   H     H_    0.042060 0.222957 0.678680 0.177445
H48   H     H_    0.684189 0.277244 0.148469 0.178432
N1    N     N_3   0.321559 0.165896 0.628615 -0.456082
N2    N     N_3   0.374443 0.730745 0.917634 -0.452041
N3    N     N_3   0.927548 0.702190 0.295972 -0.455883
N4    N     N_3   0.910600 0.380965 0.731345 -0.453624
N5    N     N_3   0.712140 0.118220 0.700112 -0.398801
N6    N     N_3   0.287499 0.882374 0.299304 -0.400854
N7    N     N_3   0.119817 0.699992 0.711255 -0.397255
N8    N     N_3   0.880506 0.289270 0.299552 -0.400027
N9    N     N_3   0.699390 0.710919 0.119065 -0.403325
N10   N     N_3   0.289243 0.298181 0.881126 -0.397998
N11   N     N_3   0.677307 0.825845 0.373342 -0.451550
N12   N     N_3   0.091065 0.691831 0.294627 -0.457878
N13   N     N_3   0.071286 0.275065 0.632885 -0.458894
N14   N     N_3   0.697062 0.298801 0.077258 -0.447136
N15   N     N_3   0.272305 0.629856 0.077400 -0.456044
N16   N     N_3   0.260425 0.035183 0.652930 -0.451721
N17   N     N_3   0.747803 0.943622 0.356627 -0.449021
N18   N     N_3   0.700813 0.305735 0.910776 -0.459044
O1    O     O_R   0.982940 0.138950 0.510160 -0.656764
O2    O     O_R   0.982940 0.510160 0.138950 -0.644191
O3    O     O_R   0.861050 0.017060 0.489840 -0.651775
O4    O     O_R   0.138950 0.982940 0.510160 -0.665546
O5    O     O_R   0.867700 0.025880 0.612340 -0.591728
O6    O     O_R   0.132300 0.974120 0.387660 -0.605856
O7    O     O_R   0.025880 0.612340 0.867700 -0.590044
O8    O     O_R   0.974120 0.387660 0.132300 -0.606778
O9    O     O_R   0.612340 0.867700 0.025880 -0.598690
O10   O     O_R   0.387660 0.132300 0.974120 -0.601500
O11   O     O_R   0.387660 0.974120 0.132300 -0.596765
O12   O     O_R   0.017060 0.861050 0.489840 -0.644354
O13   O     O_R   0.612340 0.025880 0.867700 -0.609304
O14   O     O_R   0.132300 0.387660 0.974120 -0.588418
O15   O     O_R   0.867700 0.612340 0.025880 -0.609068
O16   O     O_R   0.974120 0.132300 0.387660 -0.593588
O17   O     O_R   0.025880 0.867700 0.612340 -0.601389
O18   O     O_R   0.138950 0.510160 0.982940 -0.647702
O19   O     O_R   0.861050 0.489840 0.017060 -0.649224
O20   O     O_R   0.510160 0.982940 0.138950 -0.618378
O21   O     O_R   0.489840 0.017060 0.861050 -0.637071
O22   O     O_R   0.489840 0.861050 0.017060 -0.653895
O23   O     O_R   0.510160 0.138950 0.982940 -0.630032
O24   O     O_R   0.017060 0.489840 0.861050 -0.646351
Zn1   Zn    Zn3+2 0.004880 0.004880 0.583590 0.938197
Zn2   Zn    Zn3+2 0.995120 0.995120 0.416410 0.943739
Zn3   Zn    Zn3+2 0.004880 0.583590 0.004880 0.945063
Zn4   Zn    Zn3+2 0.995120 0.416410 0.995120 0.945467
Zn5   Zn    Zn3+2 0.583590 0.004880 0.004880 0.961848
Zn6   Zn    Zn3+2 0.416410 0.995120 0.995120 0.948441

loop_
_geom_bond_atom_site_label_1
_geom_bond_atom_site_label_2
_ccdc_geom_bond_type
C15   C75   S    
H34   N11   S    
C19   H32   S    
C65   C79   A    
C64   C77   A    
C41   C50   A    
C36   C42   A    
C3    N3    S    
C7    C70   S    
C71   C79   A    
C82   N9    S    
C8    O19   A    
C4    C30   A    
O20   Zn5   S    
C36   C88   A    
C10   O13   A    
C38   C44   A    
H25   N8    S    
C1    C18   A    
C26   C78   A    
C37   C90   A    
C67   N16   S    
C68   C81   A    
O15   Zn3   S    
C52   C85   A    
C25   H38   S    
O6    Zn2   S    
C27   C60   A    
H15   N3    S    
C54   C87   A    
C58   C71   A    
C22   H36   S    
C29   H42   S    
C54   C68   A    
C63   C76   A    
C40   C49   A    
H44   N12   S    
C7    O18   A    
C60   C73   A    
C55   C88   A    
H22   N7    S    
C9    O20   A    
C32   C39   A    
C14   O7    A    
C3    C29   A    
C17   O4    A    
C20   H33   S    
C69   C82   A    
C78   N17   S    
C29   C62   A    
C35   C87   A    
C19   C52   A    
H6    N16   S    
C4    C40   A    
C24   C57   A    
C31   C46   A    
C16   C72   S    
H2    N14   S    
C24   H37   S    
C36   C48   A    
C53   C86   A    
C57   C70   A    
C37   C47   A    
C43   C48   A    
C1    N1    S    
C8    O15   A    
C59   C72   A    
C42   C47   A    
C45   N14   S    
C28   C61   A    
H10   N18   S    
O17   Zn1   S    
C30   C63   A    
C16   O3    A    
O1    Zn1   S    
C74   C82   A    
C5    C68   S    
C35   C41   A    
H11   N2    S    
C18   C51   A    
H16   N4    S    
C32   C44   A    
C6    O12   A    
C33   C40   A    
C57   C90   A    
O7    Zn3   S    
H23   N11   S    
C15   O8    A    
C9    O11   A    
C59   C84   A    
C15   O2    A    
C75   C81   A    
C23   C50   A    
C21   C34   A    
C38   C78   A    
H48   N14   S    
H29   N10   S    
C13   O23   A    
O11   Zn6   S    
O9    Zn5   S    
C31   C84   A    
C25   C67   A    
C14   C76   S    
C37   C43   A    
C33   C86   A    
C77   N5    S    
C35   C49   A    
C72   C77   A    
O8    Zn4   S    
C61   C88   A    
C79   N6    S    
C20   C23   A    
C30   H43   S    
H9    N18   S    
C8    C69   S    
H19   N5    S    
C11   O22   A    
C43   C89   A    
H17   N4    S    
H20   N6    S    
C70   C83   A    
C55   C69   A    
C26   H39   S    
H21   N6    S    
C39   C46   A    
H1    N1    S    
C56   N15   S    
C80   N7    S    
C23   N12   S    
C13   C73   S    
H30   N10   S    
C5    O1    A    
C63   C86   A    
C61   C74   A    
C62   C75   A    
C25   C58   A    
C21   H35   S    
C58   C85   A    
O4    Zn1   S    
H46   N13   S    
O2    Zn3   S    
C45   C48   A    
H8    N17   S    
H28   N9    S    
C34   C49   A    
O14   Zn4   S    
O10   Zn6   S    
C10   O21   A    
C39   C67   A    
C12   N11   S    
C10   C64   S    
C51   C64   A    
C76   C80   A    
H24   N7    S    
C20   C53   A    
C89   N18   S    
C11   C74   S    
O18   Zn3   S    
C34   N13   S    
C17   C71   S    
C22   C55   A    
O23   Zn5   S    
C6    O17   A    
C60   C90   A    
C16   O5    A    
C24   C56   A    
H45   N12   S    
C66   C80   A    
C62   C87   A    
O12   Zn2   S    
C31   C38   A    
H27   N9    S    
C28   H41   S    
C2    N2    S    
H5    N16   S    
H3    N15   S    
C33   C50   A    
O13   Zn5   S    
C12   C44   A    
C53   C66   A    
H13   N2    S    
C4    N4    S    
H26   N8    S    
C13   O10   A    
C21   C54   A    
C2    C42   A    
H4    N15   S    
C32   C85   A    
C12   C19   A    
C5    O16   A    
C27   C89   A    
H12   N1    S    
H7    N17   S    
O3    Zn2   S    
O5    Zn1   S    
C1    C46   A    
C9    C65   S    
C3    C41   A    
C17   O6    A    
O21   Zn6   S    
C18   H31   S    
C83   N10   S    
O22   Zn6   S    
O16   Zn2   S    
C6    C66   S    
C22   C45   A    
C81   N8    S    
C7    O14   A    
C11   O9    A    
C27   H40   S    
H14   N3    S    
H47   N13   S    
C26   C59   A    
C2    C28   A    
C51   C84   A    
C73   C83   A    
H18   N5    S    
C14   O24   A    
C52   C65   A    
O24   Zn4   S    
C47   C56   A    
O19   Zn4   S    
