data_str_m12_o9_o11_f0_bcu.sym.33
_audit_creation_date              2012-12-11T17:39:33-0500
_audit_creation_method            fapswitch 2.2
_symmetry_space_group_name_H-M    P1
_symmetry_Int_Tables_number       1
_space_group_crystal_system       triclinic
_cell_length_a                    15.130253
_cell_length_b                    15.008769
_cell_length_c                    15.050607
_cell_angle_alpha                 108.430965
_cell_angle_beta                  110.92615
_cell_angle_gamma                 109.139811
_cell_volume                      2627.3118504

loop_
_atom_site_label
_atom_site_type_symbol
_atom_type_description
_atom_site_fract_x
_atom_site_fract_y
_atom_site_fract_z
_atom_type_partial_charge
C1    C     C_R   0.910220 0.919317 0.715677 -0.138739
C2    C     C_R   0.909989 0.686582 0.438527 -0.121983
C3    C     C_R   0.697746 0.798520 0.203460 -0.138354
C4    C     C_R   0.087140 0.299580 0.496225 -0.131261
C5    C     C_R   0.305417 0.009832 0.600413 -0.160910
C6    C     C_R   0.631676 0.711561 0.204651 0.147970
C7    C     C_R   0.367573 0.072553 0.572025 0.073224
C8    C     C_R   0.002781 0.677044 0.452062 0.053531
C9    C     C_R   0.001098 0.947957 0.178522 0.058549
C10   C     C_R   0.386819 0.674006 0.277303 -0.120290
C11   C     C_R   0.428585 0.784912 0.339694 -0.135896
C12   C     C_R   0.993347 0.299606 0.432378 0.065225
C13   C     C_R   0.496798 0.837755 0.453488 0.143046
C14   C     C_R   0.523402 0.778613 0.503737 -0.157530
C15   C     C_R   0.484375 0.668344 0.440773 -0.128292
C16   C     C_R   0.263452 0.218347 0.813545 -0.137607
C17   C     C_R   0.415170 0.615889 0.327755 -0.116694
C18   C     C_R   0.455408 0.970518 0.542592 -0.239647
C19   C     C_R   0.462170 0.071777 0.572271 0.062306
C20   C     C_R   0.547513 0.158157 0.582262 0.018140
C21   C     C_R   0.629564 0.142271 0.572529 -0.250889
C22   C     C_R   0.619761 0.040201 0.540502 0.061574
C23   C     C_R   0.305633 0.321400 0.827208 0.070705
C24   C     C_R   0.529163 0.951952 0.519265 0.001138
C25   C     C_R   0.496000 0.265842 0.498054 -0.191095
C26   C     C_R   0.513538 0.365008 0.502700 -0.115742
C27   C     C_R   0.593406 0.461277 0.599919 -0.101833
C28   C     C_R   0.737154 0.052041 0.458776 -0.170286
C29   C     C_R   0.654802 0.457998 0.692275 -0.098894
C30   C     C_R   0.632946 0.358799 0.689736 -0.175244
C31   C     C_R   0.552146 0.261340 0.592553 0.128184
C32   C     C_R   0.615796 0.156150 0.243901 0.596151
C33   C     C_R   0.704493 0.222718 0.241543 -0.326148
C34   C     C_R   0.701531 0.024960 0.523948 0.067156
C35   C     C_R   0.790444 0.319925 0.337059 0.066308
C36   C     C_R   0.781050 0.356013 0.429439 -0.140671
C37   C     C_R   0.688990 0.294673 0.428463 -0.175868
C38   C     C_R   0.606430 0.195166 0.336415 -0.314127
C39   C     C_R   0.905346 0.479680 0.342946 -0.244771
C40   C     C_R   0.268618 0.312959 0.723894 -0.144033
C41   C     C_R   0.006480 0.575453 0.414217 0.055218
C42   C     C_R   0.102351 0.566999 0.458598 0.042900
C43   C     C_R   0.088930 0.463650 0.428748 -0.233096
C44   C     C_R   0.989009 0.378604 0.394567 0.054392
C45   C     C_R   0.694049 0.707570 0.294457 -0.135817
C46   C     C_R   0.893556 0.385244 0.346173 0.057905
C47   C     C_R   0.306498 0.659313 0.550501 -0.148222
C48   C     C_R   0.409009 0.724027 0.645823 -0.154398
C49   C     C_R   0.422201 0.795280 0.741425 -0.150244
C50   C     C_R   0.331513 0.799266 0.743423 0.207820
C51   C     C_R   0.226825 0.721046 0.652871 -0.232725
C52   C     C_R   0.740565 0.961901 0.553318 -0.104097
C53   C     C_R   0.213098 0.655523 0.552806 0.088195
C54   C     C_2   0.384289 0.512082 0.940163 -0.192404
C55   C     C_2   0.384655 0.419723 0.931926 0.114684
C56   C     C_R   0.302973 0.098633 0.507897 -0.145373
C57   C     C_2   0.474030 0.619206 0.027128 -0.141724
C58   C     C_2   0.514940 0.643344 0.131069 -0.202158
C59   C     C_R   0.392352 0.236400 0.167462 -0.099487
C60   C     C_R   0.305710 0.130363 0.109333 -0.198078
C61   C     C_R   0.198086 0.107208 0.047438 0.111897
C62   C     C_R   0.179633 0.191806 0.041987 -0.121821
C63   C     C_R   0.266814 0.297709 0.099942 -0.125100
C64   C     C_R   0.906124 0.205773 0.403189 -0.127410
C65   C     C_R   0.372598 0.320176 0.164972 -0.130240
C66   C     C_R   0.104549 0.974176 0.087621 -0.225614
C67   C     C_R   0.091203 0.780525 0.518968 -0.150355
C68   C     C_R   0.005755 0.913159 0.077945 0.051580
C69   C     C_R   0.911280 0.846143 0.973278 0.028222
C70   C     C_R   0.915271 0.857666 0.886297 -0.244258
C71   C     C_R   0.008270 0.940641 0.904346 0.063280
C72   C     C_R   0.104692 0.001164 0.007973 0.021289
C73   C     C_R   0.815449 0.684129 0.984735 -0.147435
C74   C     C_R   0.719735 0.594781 0.952158 -0.151243
C75   C     C_R   0.618115 0.581715 0.887591 -0.094920
C76   C     C_R   0.092063 0.007195 0.804437 -0.144322
C77   C     C_R   0.612375 0.658600 0.856024 -0.125180
C78   C     C_R   0.909681 0.935505 0.188061 -0.130265
C79   C     C_R   0.708072 0.747011 0.886427 -0.192159
C80   C     C_R   0.810300 0.759698 0.950272 0.115760
C81   C     C_R   0.003481 0.960368 0.814328 0.055165
C82   C     C_3   0.545689 0.976254 0.189952 0.263203
C83   C     C_3   0.460803 0.862633 0.095913 -0.944932
C84   C     C_3   0.344695 0.886996 0.839391 -0.464140
C85   C     C_3   0.443983 0.997848 0.886889 -0.213420
C86   C     C_3   0.430990 0.091025 0.946467 -0.872985
C87   C     C_3   0.466078 0.411310 0.020763 -0.367637
C88   C     C_3   0.577140 0.450692 0.030218 -0.254544
C89   C     C_R   0.092072 0.023745 0.281783 -0.117906
C90   C     C_3   0.656137 0.441822 0.119555 -0.959468
H1    H     H_    0.827222 0.864413 0.688535 0.083899
H2    H     H_    0.332279 0.633073 0.189837 0.112892
H3    H     H_    0.405529 0.829081 0.299872 0.108489
H4    H     H_    0.170635 0.352643 0.523294 0.090507
H5    H     H_    0.574145 0.818120 0.591575 0.092318
H6    H     H_    0.505704 0.623080 0.479820 0.098484
H7    H     H_    0.385267 0.901364 0.525225 0.143073
H8    H     H_    0.698481 0.207840 0.584003 0.138738
H9    H     H_    0.440300 0.192433 0.419829 0.105997
H10   H     H_    0.468607 0.367209 0.429796 0.118326
H11   H     H_    0.610078 0.538350 0.602860 0.097674
H12   H     H_    0.324462 0.153467 0.478548 0.105739
H13   H     H_    0.721373 0.532556 0.764885 0.138919
H14   H     H_    0.682790 0.357852 0.761613 0.115117
H15   H     H_    0.536433 0.146944 0.337701 0.134835
H16   H     H_    0.274591 0.194735 0.875494 0.105326
H17   H     H_    0.711578 0.194107 0.170087 0.143150
H18   H     H_    0.846245 0.431337 0.503059 0.123877
H19   H     H_    0.684165 0.323537 0.500892 0.165270
H20   H     H_    0.831850 0.482535 0.304362 0.140910
H21   H     H_    0.160909 0.455968 0.456238 0.120937
H22   H     H_    0.298922 0.606696 0.476420 0.127146
H23   H     H_    0.173672 0.805956 0.537256 0.125547
H24   H     H_    0.478581 0.718926 0.646015 0.114439
H25   H     H_    0.503294 0.848332 0.812885 0.102663
H26   H     H_    0.719522 0.098971 0.420830 0.106614
H27   H     H_    0.156061 0.714088 0.659275 0.126184
H28   H     H_    0.325019 0.510057 0.871183 0.125844
H29   H     H_    0.518780 0.669090 0.002546 0.142238
H30   H     H_    0.467809 0.595979 0.155469 0.138888
H31   H     H_    0.439603 0.402551 0.214328 0.093777
H32   H     H_    0.474600 0.254353 0.216778 0.135990
H33   H     H_    0.321927 0.066938 0.116157 0.134691
H34   H     H_    0.824945 0.885919 0.124479 0.118119
H35   H     H_    0.097408 0.176706 0.997234 0.113100
H36   H     H_    0.251851 0.362757 0.097052 0.108423
H37   H     H_    0.289779 0.377419 0.704345 0.095407
H38   H     H_    0.180112 0.018925 0.164536 0.120438
H39   H     H_    0.843876 0.803690 0.805367 0.120460
H40   H     H_    0.893304 0.691602 0.032360 0.115346
H41   H     H_    0.725211 0.533957 0.973851 0.119640
H42   H     H_    0.543719 0.511162 0.860180 0.115181
H43   H     H_    0.533800 0.648432 0.806100 0.114498
H44   H     H_    0.702542 0.804802 0.859290 0.108439
H45   H     H_    0.176676 0.053556 0.307176 0.091106
H46   H     H_    0.728843 0.929037 0.604671 0.091548
H47   H     H_    0.823655 0.166097 0.338473 0.102828
H48   H     H_    0.174916 0.028279 0.856117 0.106276
H49   H     H_    0.663359 0.658096 0.326917 0.092814
H50   H     H_    0.528257 0.985606 0.257171 0.092024
H51   H     H_    0.627691 0.983443 0.216909 0.085872
H52   H     H_    0.480884 0.843849 0.030578 0.247102
H53   H     H_    0.459747 0.803874 0.125846 0.233106
H54   H     H_    0.378664 0.854902 0.063270 0.256266
H55   H     H_    0.361827 0.091770 0.887904 0.236970
H56   H     H_    0.825548 0.623711 0.390648 0.092897
H57   H     H_    0.416086 0.082466 0.010830 0.297259
H58   H     H_    0.506395 0.168745 0.984616 0.240236
H59   H     H_    0.518769 0.003481 0.944999 0.211613
H60   H     H_    0.455877 0.007690 0.821207 0.182953
H61   H     H_    0.269360 0.893447 0.812969 0.193112
H62   H     H_    0.353079 0.863590 0.903265 0.205334
H63   H     H_    0.665842 0.489279 0.199196 0.258589
H64   H     H_    0.626139 0.356226 0.100354 0.265117
H65   H     H_    0.736949 0.474262 0.126258 0.254530
H66   H     H_    0.567120 0.401066 0.950968 0.192781
H67   H     H_    0.671113 0.833768 0.154063 0.096267
H68   H     H_    0.612574 0.536573 0.051041 0.227169
H69   H     H_    0.474655 0.453074 0.100171 0.177890
H70   H     H_    0.436657 0.326605 0.003817 0.188893
H71   H     H_    0.332868 0.980224 0.655523 0.109980
H72   H     H_    0.382796 0.530156 0.279474 0.099292
N1    N     N_R   0.941940 0.944580 0.650780 -0.038406
N2    N     N_R   0.204460 0.150250 0.707090 -0.037948
N3    N     N_R   0.794270 0.003240 0.446420 -0.041277
N4    N     N_R   0.204920 0.207570 0.650770 -0.035162
N5    N     N_R   0.793810 0.945920 0.502740 -0.039264
N6    N     N_R   0.943620 0.152590 0.446420 -0.043481
N7    N     N_R   0.055110 0.000900 0.707100 -0.040219
N8    N     N_R   0.795080 0.792430 0.349230 -0.040576
N9    N     N_R   0.206190 0.054080 0.497260 -0.039390
N10   N     N_R   0.056380 0.847410 0.553580 -0.042891
N11   N     N_R   0.944890 0.999100 0.292900 -0.045750
N12   N     N_R   0.058060 0.055420 0.349220 -0.042015
N13   N     N_R   0.943200 0.791100 0.497260 -0.040620
N14   N     N_R   0.795540 0.849750 0.292910 -0.043957
N15   N     N_R   0.205730 0.996760 0.553580 -0.039018
N16   N     N_R   0.056800 0.208900 0.502740 -0.039679
Ni1   Ni    Ni4+2 0.869690 0.869690 0.500000 0.212179
Ni2   Ni    Ni4+2 0.130310 0.130310 0.500000 0.214948
Ni3   Ni    Ni4+2 0.129250 0.998840 0.629170 0.209404
Ni4   Ni    Ni4+2 0.870750 0.001160 0.370830 0.201903
O1    O     O_3   0.539730 0.053112 0.156110 -0.650892

loop_
_geom_bond_atom_site_label_1
_geom_bond_atom_site_label_2
_ccdc_geom_bond_type
C25   C31   A    
C66   C68   A    
C87   C88   S    
C63   C65   A    
C89   H45   S    
C6    C45   A    
C36   H18   S    
C41   C42   A    
C6    C58   S    
C32   O1    S    
N5    Ni1   S    
C35   C36   A    
C33   H17   S    
C3    C6    A    
C45   N8    A    
C57   C58   D    
C50   C84   S    
C39   C41   A    
N8    N14   A    
N11   N12   A    
C16   N2    A    
N14   Ni4   S    
C26   C27   A    
C37   C38   A    
C43   H21   S    
C65   H31   S    
C18   C24   A    
N3    Ni4   S    
C88   H66   S    
C21   C22   A    
C36   C37   A    
C42   C53   S    
C83   H54   S    
C12   C64   A    
N15   Ni3   S    
C27   C29   A    
C10   C17   A    
C1    C81   A    
C23   C40   A    
C45   H49   S    
C87   H70   S    
C29   H13   S    
C18   C19   A    
C73   C74   A    
C85   H60   S    
C82   H50   S    
N2    Ni3   S    
C28   H26   S    
C33   C35   A    
C73   H40   S    
N10   Ni3   S    
C25   H9    S    
C39   H20   S    
C66   C72   A    
C19   C20   A    
C87   H69   S    
C68   C69   A    
C78   N11   A    
C70   C71   A    
C18   H7    S    
C32   C38   A    
C4    C12   A    
C29   C30   A    
C78   H34   S    
C40   N4    A    
C61   C62   A    
N10   N13   A    
C16   H16   S    
C57   H29   S    
C11   H3    S    
C59   H32   S    
C28   C34   A    
C59   C60   A    
C1    H1    S    
C74   H41   S    
C86   H57   S    
C69   C70   A    
C77   H43   S    
C7    C56   A    
C82   H51   S    
C10   H2    S    
C44   C46   A    
C64   H47   S    
C77   C79   A    
C22   C34   S    
C74   C75   A    
C8    C41   S    
C17   H72   S    
C9    C89   A    
C15   H6    S    
C5    C7    A    
N13   Ni1   S    
C25   C26   A    
C85   C86   S    
C40   H37   S    
C82   O1    S    
C27   H11   S    
C70   H39   S    
C13   C24   S    
C60   C61   A    
C51   C53   A    
C5    H71   S    
N9    N15   A    
C60   H33   S    
C43   C44   A    
C62   C63   A    
C2    N13   A    
C83   H52   S    
C47   C48   A    
C5    N15   A    
C58   H30   S    
C50   C51   A    
C64   N6    A    
C84   C85   S    
C90   H63   S    
C75   C77   A    
N7    Ni3   S    
C28   N3    A    
C39   C46   A    
C4    H4    S    
C84   H62   S    
C61   C72   S    
C48   C49   A    
C49   H25   S    
C88   C90   S    
N11   Ni4   S    
C82   C83   S    
C16   C23   A    
C7    C19   S    
C54   H28   S    
C56   N9    A    
N1    Ni1   S    
C52   H46   S    
C22   C24   A    
N9    Ni2   S    
N4    Ni2   S    
C42   C43   A    
C86   H55   S    
N12   Ni2   S    
C14   H5    S    
C75   H42   S    
C48   H24   S    
C15   C17   A    
C79   H44   S    
C54   C55   D    
C37   H19   S    
C2    C8    A    
C4    N16   A    
C86   H58   S    
C76   C81   A    
C62   H35   S    
N16   Ni2   S    
C23   C55   S    
C76   H48   S    
C67   N10   A    
C2    H56   S    
C34   C52   A    
C89   N12   A    
C47   C53   A    
N8    Ni1   S    
C32   C33   A    
C38   H15   S    
N2    N4    A    
C67   H23   S    
C9    C68   S    
C56   H12   S    
C71   C72   A    
C52   N5    A    
C59   C65   A    
C83   H53   S    
C21   H8    S    
C11   C13   A    
C90   H64   S    
C30   C31   A    
N6    N16   A    
C51   H27   S    
C73   C80   A    
C66   H38   S    
C9    C78   A    
C55   C87   S    
C76   N7    A    
N1    N7    A    
N6    Ni4   S    
C85   H59   S    
C63   H36   S    
C10   C11   A    
C88   H68   S    
C79   C80   A    
C84   H61   S    
C3    N14   A    
C20   C21   A    
C1    N1    A    
C8    C67   A    
N3    N5    A    
C49   C50   A    
C30   H14   S    
C3    H67   S    
C14   C15   A    
C12   C44   S    
C69   C80   S    
C90   H65   S    
C13   C14   A    
C35   C46   S    
C54   C57   S    
C47   H22   S    
C26   H10   S    
C71   C81   S    
C20   C31   S    
