data_str_m2_o10_o29_f0_pcu.sym.83
_audit_creation_date              2012-10-26T20:17:42-0400
_audit_creation_method            fapswitch 2.2
_symmetry_space_group_name_H-M    P1
_symmetry_Int_Tables_number       1
_space_group_crystal_system       triclinic
_cell_length_a                    27.647101
_cell_length_b                    8.710313
_cell_length_c                    7.458117
_cell_angle_alpha                 103.514768
_cell_angle_beta                  93.097463
_cell_angle_gamma                 91.666072
_cell_volume                      1742.13277705

loop_
_atom_site_label
_atom_site_type_symbol
_atom_type_description
_atom_site_fract_x
_atom_site_fract_y
_atom_site_fract_z
_atom_type_partial_charge
C1    C     C_R   0.499288 0.200283 0.453949 0.560104
C2    C     C_R   0.872260 0.335081 0.454358 -0.009846
C3    C     C_R   0.354915 0.516973 0.525617 -0.071058
C4    C     C_R   0.644633 0.484229 0.484459 -0.064605
C5    C     C_R   0.974312 0.335655 0.514328 0.035762
C6    C     C_R   0.026159 0.630490 0.675284 0.036845
C7    C     C_R   0.974437 0.619341 0.678772 0.030095
C8    C     C_R   0.026213 0.344098 0.516970 0.029396
C9    C     C_R   0.949207 0.476376 0.581117 -0.083621
C10   C     C_R   0.051622 0.490348 0.605178 -0.080057
C11   C     C_R   0.946208 0.189860 0.458271 0.294488
C12   C     C_R   0.500930 0.799392 0.546447 0.597229
C13   C     C_R   0.053031 0.779204 0.723052 0.285181
C14   C     C_R   0.896357 0.194690 0.408174 -0.138515
C15   C     C_R   0.104056 0.780423 0.742079 -0.145703
C16   C     C_R   0.407514 0.503754 0.505558 0.543741
C17   C     C_R   0.592264 0.497065 0.495362 0.541406
C18   C     C_R   0.053724 0.216049 0.420850 0.289470
C19   C     C_R   0.946605 0.743277 0.781488 0.293351
C20   C     C_2   0.505802 0.034853 0.432457 0.106834
C21   C     C_2   0.495446 0.964599 0.571207 0.123077
C22   C     C_R   0.180044 0.375148 0.548692 0.427089
C23   C     C_R   0.103187 0.498996 0.612995 -0.068547
C24   C     C_R   0.821249 0.600386 0.601965 0.384760
C25   C     C_R   0.179963 0.651327 0.679434 0.407632
C26   C     C_R   0.821766 0.337133 0.419586 0.430171
C27   C     C_R   0.288716 0.572669 0.732266 0.294465
C28   C     C_R   0.719610 0.384341 0.586086 0.296358
C29   C     C_R   0.338246 0.561042 0.704085 -0.162191
C30   C     C_R   0.669380 0.394607 0.589701 -0.145803
C31   C     C_R   0.321386 0.486325 0.372516 -0.156864
C32   C     C_R   0.669942 0.560166 0.369849 -0.133423
C33   C     C_R   0.271382 0.493622 0.397144 0.140735
C34   C     C_R   0.897894 0.472504 0.555014 -0.063646
C35   C     C_R   0.720651 0.555398 0.368296 0.138842
C36   C     C_R   0.255112 0.530676 0.579133 0.277769
C37   C     C_R   0.745436 0.464906 0.476074 0.255169
C38   C     C_3   0.200770 0.564318 0.221059 -0.259995
C39   C     C_3   0.739628 0.805539 0.287109 -0.249310
C40   C     C_3   0.748974 0.370140 0.871607 -0.095263
C41   C     C_3   0.296095 0.745496 0.020394 -0.098185
C42   C     C_3   0.939224 0.910714 0.411641 -0.085889
C43   C     C_3   0.054208 0.059560 0.799025 -0.074194
C44   C     C_3   0.052555 0.947154 0.267927 -0.061896
C45   C     C_R   0.129191 0.364815 0.540837 -0.028342
C46   C     C_3   0.947120 0.008271 0.945162 -0.067096
C47   C     C_3   0.580218 0.949215 0.292167 -0.307447
C48   C     C_3   0.422725 0.065272 0.722294 -0.297016
C49   C     C_R   0.871789 0.604311 0.633666 -0.023010
C50   C     C_R   0.104556 0.227501 0.442914 -0.138186
C51   C     C_R   0.895757 0.732716 0.754126 -0.140008
C52   C     C_R   0.129117 0.643314 0.685404 -0.028331
Cu1   Cu    Cu3+1 0.505380 0.517380 0.684380 0.947151
Cu2   Cu    Cu3+1 0.494620 0.482620 0.315620 0.947558
H1    H     H_    0.333954 0.453777 0.234146 0.141809
H2    H     H_    0.125121 0.890254 0.787116 0.151976
H3    H     H_    0.252036 0.398822 0.116431 0.286512
H4    H     H_    0.197168 0.578766 0.077163 0.189624
H5    H     H_    0.209379 0.682487 0.314743 0.160945
H6    H     H_    0.165147 0.518060 0.251703 0.143826
H7    H     H_    0.781935 0.608303 0.237616 0.254794
H8    H     H_    0.761778 0.855603 0.192844 0.181263
H9    H     H_    0.751398 0.865496 0.431912 0.218778
H10   H     H_    0.701183 0.829878 0.258329 0.140844
H11   H     H_    0.713218 0.386031 0.933618 0.134851
H12   H     H_    0.650182 0.625382 0.284798 0.125465
H13   H     H_    0.768893 0.486241 0.890170 0.150971
H14   H     H_    0.770643 0.297995 0.947985 0.175451
H15   H     H_    0.303346 0.838116 0.943164 0.142345
H16   H     H_    0.330235 0.714394 0.086316 0.107339
H17   H     H_    0.272688 0.797645 0.133110 0.161535
H18   H     H_    0.929690 0.893654 0.262159 0.135834
H19   H     H_    0.906376 0.906576 0.489872 0.103972
H20   H     H_    0.961171 0.809514 0.425961 0.161209
H21   H     H_    0.066877 0.061968 0.943058 0.141260
H22   H     H_    0.084813 0.083367 0.718224 0.102765
H23   H     H_    0.460744 0.385014 0.950574 0.235648
H24   H     H_    0.029366 0.157870 0.804212 0.154168
H25   H     H_    0.065225 0.926971 0.403924 0.148115
H26   H     H_    0.082865 0.934354 0.174721 0.087146
H27   H     H_    0.025216 0.851530 0.205858 0.188456
H28   H     H_    0.914889 0.015163 0.028238 0.085415
H29   H     H_    0.937403 0.035776 0.809964 0.156771
H30   H     H_    0.973065 0.103122 0.021036 0.186748
H31   H     H_    0.516521 0.984518 0.150948 0.275461
H32   H     H_    0.594244 0.877434 0.163745 0.138245
H33   H     H_    0.591180 0.894820 0.408050 0.145336
H34   H     H_    0.538853 0.616545 0.049860 0.252874
H35   H     H_    0.596643 0.071112 0.319062 0.147355
H36   H     H_    0.495195 0.127185 0.830327 0.272973
H37   H     H_    0.409543 0.108771 0.862417 0.140719
H38   H     H_    0.402833 0.951709 0.656080 0.151714
H39   H     H_    0.414989 0.153625 0.639869 0.151149
H40   H     H_    0.125565 0.132438 0.370572 0.154288
H41   H     H_    0.874162 0.823657 0.831023 0.154991
H42   H     H_    0.649648 0.331299 0.673682 0.134840
H43   H     H_    0.363806 0.583601 0.823198 0.140947
H44   H     H_    0.874893 0.087759 0.347418 0.139803
N1    N     N_R   0.204227 0.518432 0.608431 -0.357772
N2    N     N_R   0.797439 0.469148 0.493195 -0.378582
N3    N     N_2   0.486510 0.456430 0.038510 -0.264910
N4    N     N_2   0.513490 0.543570 0.961490 -0.251989
N5    N     N_2   0.237744 0.452830 0.239185 -0.476547
N6    N     N_2   0.746328 0.637220 0.255119 -0.541064
N7    N     N_2   0.527934 0.952341 0.270456 -0.515917
N8    N     N_2   0.474233 0.041763 0.737356 -0.531774
O1    O     O_R   0.503500 0.286120 0.619780 -0.517038
O2    O     O_2   0.795912 0.725861 0.681506 -0.522840
O3    O     O_2   0.797067 0.207685 0.316565 -0.514870
O4    O     O_2   0.204704 0.791740 0.736959 -0.497951
O5    O     O_3   0.743710 0.289900 0.683882 -0.548501
O6    O     O_3   0.271788 0.608565 0.908410 -0.570780
O7    O     O_3   0.967364 0.051894 0.483739 -0.512475
O8    O     O_3   0.028777 0.915792 0.712282 -0.518144
O9    O     O_3   0.031116 0.095378 0.282289 -0.546183
O10   O     O_3   0.968850 0.859851 0.925862 -0.545094
O11   O     O_R   0.496500 0.713880 0.380220 -0.481663
O12   O     O_R   0.494410 0.256780 0.308360 -0.507111
O13   O     O_R   0.505590 0.743220 0.691640 -0.484637
O14   O     O_R   0.434810 0.514700 0.655690 -0.511852
O15   O     O_R   0.565190 0.485300 0.344310 -0.505748
O16   O     O_R   0.425720 0.485350 0.344280 -0.503245
O17   O     O_R   0.574280 0.514650 0.655720 -0.501692
O18   O     O_2   0.205156 0.243848 0.490816 -0.484784

loop_
_geom_bond_atom_site_label_1
_geom_bond_atom_site_label_2
_ccdc_geom_bond_type
N3    N4    D    
C23   C45   A    
C27   C29   A    
Cu2   N3    S    
H23   N3    S    
Cu1   O14   S    
C39   N6    S    
Cu1   Cu2   S    
C43   H24   S    
C39   H10   S    
C19   O10   S    
C32   H12   S    
C35   C37   A    
C5    C11   A    
C16   O14   A    
C43   O8    S    
C11   C14   A    
C24   N2    A    
C24   C49   A    
C33   C36   A    
C3    C29   A    
C16   O16   A    
C30   H42   S    
C38   H4    S    
C25   N1    A    
C48   N8    S    
C44   O9    S    
C49   C51   A    
C41   O6    S    
C11   O7    S    
C31   C33   A    
C24   O2    S    
C13   O8    S    
C41   H17   S    
C2    C34   A    
Cu2   O16   S    
C46   H28   S    
C47   H35   S    
H31   N7    S    
C17   O17   A    
C14   H44   S    
C40   O5    S    
C28   O5    S    
C43   H21   S    
H3    N5    S    
C42   H20   S    
C48   H39   S    
C47   H32   S    
C44   H26   S    
H7    N6    S    
H36   N8    S    
C44   H27   S    
Cu1   O17   S    
C50   H40   S    
C47   N7    S    
C12   C21   S    
C40   H13   S    
C8    C18   A    
C38   H5    S    
C47   H33   S    
C32   C35   A    
C5    C9    A    
C38   N5    S    
C48   H37   S    
C12   O13   A    
Cu1   O1    S    
C42   O7    S    
Cu1   N4    S    
C42   H18   S    
C2    C26   A    
C15   C52   A    
C3    C31   A    
C26   O3    S    
C4    C32   A    
C25   O4    S    
C1    O1    A    
C38   H6    S    
C4    C17   S    
C17   O15   A    
Cu2   O15   S    
C27   O6    S    
C35   N6    S    
C7    C19   A    
C40   H11   S    
Cu2   O12   S    
C40   H14   S    
C9    C34   A    
C10   C23   A    
C46   H30   S    
C18   C50   A    
C41   H15   S    
C20   N7    S    
C43   H22   S    
C7    C9    A    
C39   H8    S    
C1    C20   S    
C22   N1    A    
C33   N5    S    
C44   H25   S    
C21   N8    S    
C18   O9    S    
C6    C10   A    
C5    C8    A    
H34   N4    S    
Cu1   O13   S    
C22   O18   S    
C6    C7    A    
C46   O10   S    
C27   C36   A    
C39   H9    S    
C29   H43   S    
C15   H2    S    
C13   C15   A    
C25   C52   A    
C6    C13   A    
C45   C50   A    
C23   C52   A    
C28   C37   A    
C28   C30   A    
C42   H19   S    
C36   N1    S    
C1    O12   A    
C2    C14   A    
C46   H29   S    
C19   C51   A    
C22   C45   A    
C20   C21   D    
C34   C49   A    
C8    C10   A    
C48   H38   S    
Cu2   O11   S    
C51   H41   S    
C12   O11   A    
C31   H1    S    
C37   N2    S    
C4    C30   A    
C3    C16   S    
C26   N2    A    
C41   H16   S    
