data_str_m12_o9_o11_f0_bcu.sym.28
_audit_creation_date              2012-12-11T17:39:32-0500
_audit_creation_method            fapswitch 2.2
_symmetry_space_group_name_H-M    P1
_symmetry_Int_Tables_number       1
_space_group_crystal_system       triclinic
_cell_length_a                    14.85204
_cell_length_b                    15.106011
_cell_length_c                    14.877658
_cell_angle_alpha                 109.186007
_cell_angle_beta                  108.747338
_cell_angle_gamma                 110.45912
_cell_volume                      2569.70605104

loop_
_atom_site_label
_atom_site_type_symbol
_atom_type_description
_atom_site_fract_x
_atom_site_fract_y
_atom_site_fract_z
_atom_type_partial_charge
C1    C     C_R   0.908021 0.911417 0.713789 -0.143996
C2    C     C_R   0.908616 0.685175 0.444312 -0.143175
C3    C     C_R   0.701936 0.787900 0.196955 -0.110965
C4    C     C_R   0.093565 0.298213 0.495907 -0.150350
C5    C     C_R   0.307170 0.013541 0.602449 -0.133281
C6    C     C_R   0.643069 0.690310 0.190863 0.135819
C7    C     C_R   0.375113 0.082912 0.580196 0.069784
C8    C     C_R   0.002946 0.677846 0.464623 0.045083
C9    C     C_R   0.006272 0.944613 0.180221 0.051294
C10   C     C_R   0.510608 0.747167 0.578127 -0.121313
C11   C     C_R   0.525321 0.837870 0.565273 -0.141108
C12   C     C_R   0.003562 0.301804 0.438337 0.056472
C13   C     C_R   0.597155 0.943322 0.656279 0.096872
C14   C     C_R   0.652431 0.956951 0.760237 -0.171095
C15   C     C_R   0.636794 0.866071 0.772873 -0.136476
C16   C     C_R   0.246732 0.220759 0.812705 -0.139860
C17   C     C_R   0.565804 0.761165 0.681885 -0.116681
C18   C     C_R   0.536099 0.072503 0.672311 -0.220265
C19   C     C_R   0.494444 0.123276 0.621931 0.040697
C20   C     C_R   0.555915 0.181492 0.584573 0.035073
C21   C     C_R   0.636699 0.160427 0.571250 -0.228152
C22   C     C_R   0.651248 0.079034 0.588337 0.065444
C23   C     C_R   0.271768 0.322123 0.822637 0.105608
C24   C     C_R   0.602832 0.037890 0.644434 0.028374
C25   C     C_R   0.527901 0.259060 0.459099 -0.177115
C26   C     C_R   0.508485 0.333749 0.432811 -0.104677
C27   C     C_R   0.498172 0.411913 0.504067 -0.096229
C28   C     C_R   0.741583 0.056413 0.467794 -0.121970
C29   C     C_R   0.507777 0.415872 0.602009 -0.116487
C30   C     C_R   0.528341 0.342102 0.629435 -0.138256
C31   C     C_R   0.537516 0.262159 0.557546 0.109936
C32   C     C_R   0.804039 0.117111 0.088275 -0.122685
C33   C     C_R   0.882622 0.216734 0.184281 -0.117159
C34   C     C_R   0.711264 0.036615 0.542231 0.053545
C35   C     C_R   0.849835 0.285698 0.235910 0.115344
C36   C     C_R   0.737349 0.254054 0.188299 -0.175844
C37   C     C_R   0.659134 0.154507 0.092078 -0.106327
C38   C     C_R   0.692398 0.085930 0.042496 -0.108734
C39   C     C_R   0.933090 0.485044 0.352829 -0.238035
C40   C     C_R   0.247319 0.312160 0.720662 -0.117061
C41   C     C_R   0.009452 0.582584 0.451782 0.072037
C42   C     C_R   0.089566 0.587593 0.539421 0.017948
C43   C     C_R   0.091108 0.494344 0.525482 -0.231919
C44   C     C_R   0.010830 0.395474 0.430057 0.063297
C45   C     C_R   0.702666 0.694921 0.286540 -0.155902
C46   C     C_R   0.932408 0.389407 0.340590 0.025084
C47   C     C_R   0.281108 0.734065 0.690569 -0.180492
C48   C     C_R   0.353999 0.825988 0.794478 -0.113524
C49   C     C_R   0.313267 0.868167 0.859678 -0.109146
C50   C     C_R   0.199485 0.818201 0.821170 -0.115966
C51   C     C_R   0.126121 0.726570 0.716950 -0.112837
C52   C     C_R   0.746700 0.968009 0.562509 -0.125852
C53   C     C_R   0.166519 0.684580 0.650469 0.104355
C54   C     C_2   0.366548 0.519392 0.932627 -0.127046
C55   C     C_2   0.322093 0.421492 0.924797 -0.139855
C56   C     C_R   0.307694 0.102687 0.510613 -0.155926
C57   C     C_2   0.463598 0.614292 0.034023 -0.090851
C58   C     C_2   0.533107 0.601729 0.105707 -0.186595
C59   C     C_R   0.393590 0.223883 0.113096 -0.210650
C60   C     C_R   0.305502 0.119601 0.069228 -0.179387
C61   C     C_R   0.197844 0.101397 0.037020 0.039347
C62   C     C_R   0.179908 0.189127 0.051332 -0.298407
C63   C     C_R   0.268600 0.293773 0.097713 0.796759
C64   C     C_R   0.910049 0.210377 0.408417 -0.127538
C65   C     C_R   0.375322 0.311069 0.128147 -0.317079
C66   C     C_R   0.111926 0.972927 0.087261 -0.225301
C67   C     C_R   0.093577 0.780909 0.527892 -0.109326
C68   C     C_R   0.014902 0.905462 0.080666 0.044892
C69   C     C_R   0.921185 0.826823 0.977253 0.026862
C70   C     C_R   0.918481 0.838907 0.886714 -0.245804
C71   C     C_R   0.008009 0.927628 0.901089 0.050265
C72   C     C_R   0.106676 0.994557 0.003491 0.052012
C73   C     C_R   0.853047 0.680600 0.024536 -0.128437
C74   C     C_R   0.767509 0.594803 0.016416 -0.102530
C75   C     C_R   0.657680 0.560363 0.949089 -0.080191
C76   C     C_R   0.090721 0.000253 0.800278 -0.130738
C77   C     C_R   0.633322 0.611767 0.889979 -0.114333
C78   C     C_R   0.912169 0.933733 0.188015 -0.125693
C79   C     C_R   0.718660 0.696162 0.896292 -0.182789
C80   C     C_R   0.829489 0.732603 0.964628 0.120538
C81   C     C_R   0.001003 0.948982 0.810480 0.061957
C82   C     C_R   0.095683 0.022279 0.283149 -0.120603
F1    F     F_    0.251298 0.378816 0.115167 -0.718560
H1    H     H_    0.823842 0.853362 0.686362 0.104708
H2    H     H_    0.455117 0.665995 0.507972 0.121156
H3    H     H_    0.480012 0.826219 0.484973 0.124982
H4    H     H_    0.178763 0.350863 0.520889 0.095498
H5    H     H_    0.705978 0.037722 0.831342 0.129242
H6    H     H_    0.678491 0.877603 0.853683 0.104097
H7    H     H_    0.499851 0.039271 0.714367 0.124618
H8    H     H_    0.682948 0.203034 0.540966 0.125281
H9    H     H_    0.533583 0.197778 0.401801 0.111039
H10   H     H_    0.500798 0.330620 0.356857 0.124157
H11   H     H_    0.482427 0.469257 0.483272 0.106647
H12   H     H_    0.332369 0.160720 0.484031 0.120539
H13   H     H_    0.498521 0.475811 0.656141 0.100910
H14   H     H_    0.535505 0.346223 0.705682 0.117216
H15   H     H_    0.631608 0.008628 0.968647 0.098030
H16   H     H_    0.256528 0.200823 0.877231 0.114020
H17   H     H_    0.829690 0.063962 0.049561 0.111995
H18   H     H_    0.968836 0.239716 0.218780 0.120324
H19   H     H_    0.709894 0.305342 0.226745 0.103954
H20   H     H_    0.572583 0.130147 0.056366 0.099208
H21   H     H_    0.873761 0.483727 0.286019 0.128052
H22   H     H_    0.149310 0.497835 0.595083 0.130009
H23   H     H_    0.179555 0.804903 0.557843 0.115675
H24   H     H_    0.313656 0.702338 0.640657 0.127848
H25   H     H_    0.442006 0.864420 0.824310 0.114270
H26   H     H_    0.369950 0.939271 0.940160 0.095270
H27   H     H_    0.168147 0.850440 0.872078 0.116415
H28   H     H_    0.727211 0.105736 0.432923 0.091296
H29   H     H_    0.038122 0.688765 0.687756 0.115012
H30   H     H_    0.345088 0.528315 0.860535 0.114785
H31   H     H_    0.338439 0.414081 0.997405 0.173764
H32   H     H_    0.486248 0.693653 0.040842 0.118246
H33   H     H_    0.513959 0.522762 0.098393 0.120109
H34   H     H_    0.827718 0.883310 0.122534 0.110270
H35   H     H_    0.444073 0.392139 0.164420 0.136372
H36   H     H_    0.476366 0.237571 0.137645 0.137474
H37   H     H_    0.321045 0.053323 0.061501 0.119399
H38   H     H_    0.097916 0.176903 0.030026 0.153388
H39   H     H_    0.256260 0.374821 0.698752 0.088230
H40   H     H_    0.188042 0.026805 0.164326 0.130360
H41   H     H_    0.846473 0.781280 0.806512 0.130308
H42   H     H_    0.937706 0.706478 0.077641 0.115896
H43   H     H_    0.786431 0.555450 0.062852 0.111834
H44   H     H_    0.591467 0.494318 0.943212 0.108365
H45   H     H_    0.181729 0.050879 0.309224 0.099931
H46   H     H_    0.548219 0.586499 0.839635 0.097301
H47   H     H_    0.698524 0.734653 0.850026 0.104748
H48   H     H_    0.744270 0.939988 0.619473 0.126219
H49   H     H_    0.825223 0.183235 0.355024 0.105110
H50   H     H_    0.173945 0.018977 0.846760 0.110291
H51   H     H_    0.673112 0.638450 0.313998 0.096383
H52   H     H_    0.823992 0.619322 0.400531 0.098608
H53   H     H_    0.673168 0.816503 0.142253 0.085613
H54   H     H_    0.332129 0.991222 0.664091 0.095443
H55   H     H_    0.552194 0.690432 0.691395 0.096523
N1    N     N_R   0.941940 0.944580 0.650780 -0.039958
N2    N     N_R   0.204460 0.150250 0.707090 -0.042454
N3    N     N_R   0.794270 0.003240 0.446420 -0.041564
N4    N     N_R   0.204920 0.207570 0.650770 -0.043282
N5    N     N_R   0.793810 0.945920 0.502740 -0.042733
N6    N     N_R   0.943620 0.152590 0.446420 -0.039172
N7    N     N_R   0.055110 0.000900 0.707100 -0.038940
N8    N     N_R   0.795080 0.792430 0.349230 -0.040134
N9    N     N_R   0.206190 0.054080 0.497260 -0.041935
N10   N     N_R   0.056380 0.847410 0.553580 -0.043112
N11   N     N_R   0.944890 0.999100 0.292900 -0.042600
N12   N     N_R   0.058060 0.055420 0.349220 -0.042097
N13   N     N_R   0.943200 0.791100 0.497260 -0.039822
N14   N     N_R   0.795540 0.849750 0.292910 -0.045205
N15   N     N_R   0.205730 0.996760 0.553580 -0.041285
N16   N     N_R   0.056800 0.208900 0.502740 -0.036692
Ni1   Ni    Ni4+2 0.869690 0.869690 0.500000 0.215805
Ni2   Ni    Ni4+2 0.130310 0.130310 0.500000 0.212928
Ni3   Ni    Ni4+2 0.129250 0.998840 0.629170 0.215950
Ni4   Ni    Ni4+2 0.870750 0.001160 0.370830 0.215739

loop_
_geom_bond_atom_site_label_1
_geom_bond_atom_site_label_2
_ccdc_geom_bond_type
C25   C31   A    
C56   H12   S    
C4    N16   A    
C63   C65   A    
C10   H2    S    
C51   H29   S    
C6    C45   A    
C40   N4    A    
C27   C29   A    
C41   C42   A    
C6    C58   S    
C66   C68   A    
C35   C36   A    
N10   N13   A    
C38   H15   S    
C3    C6    A    
C54   C57   S    
C39   H21   S    
C57   H32   S    
C4    H4    S    
C48   H25   S    
C1    H1    S    
C9    C78   A    
C30   H14   S    
C45   H51   S    
C37   C38   A    
C18   C24   A    
C49   H26   S    
C36   C37   A    
N2    N4    A    
C18   C19   A    
N3    N5    A    
C42   C53   S    
C30   C31   A    
C12   C64   A    
C73   H42   S    
C11   H3    S    
C1    C81   A    
C23   C40   A    
C54   H30   S    
C50   H27   S    
C36   H19   S    
C3    H53   S    
C43   H22   S    
C7    C19   S    
C66   C72   A    
N8    Ni1   S    
C64   H49   S    
C68   C69   A    
C65   H35   S    
N15   Ni3   S    
C17   H55   S    
C32   C38   A    
C4    C12   A    
C29   C30   A    
N11   Ni4   S    
N16   Ni2   S    
C61   C62   A    
C1    N1    A    
C9    C82   A    
C47   C53   A    
C26   H10   S    
C28   C34   A    
C59   C60   A    
N12   Ni2   S    
C13   C14   A    
C58   H33   S    
C16   N2    A    
C7    C56   A    
C44   C46   A    
C77   C79   A    
C28   H28   S    
C22   C34   S    
N14   Ni4   S    
C52   N5    A    
C74   C75   A    
C45   N8    A    
C18   H7    S    
C78   H34   S    
C8    C41   S    
C39   C41   A    
C5    C7    A    
C64   N6    A    
C25   C26   A    
C79   H47   S    
C32   H17   S    
C13   C24   S    
C63   F1    S    
C60   C61   A    
C51   C53   A    
C43   C44   A    
C62   C63   A    
N2    Ni3   S    
C15   H6    S    
N7    Ni3   S    
N5    Ni1   S    
C47   C48   A    
N1    Ni1   S    
C50   C51   A    
C3    N14   A    
C16   H16   S    
C77   H46   S    
C5    H54   S    
N9    Ni2   S    
C75   C77   A    
C82   H45   S    
C82   N12   A    
C39   C46   A    
N8    N14   A    
C61   C72   S    
C48   C49   A    
C76   N7    A    
C16   C23   A    
N13   Ni1   S    
C26   C27   A    
C33   H18   S    
C42   C43   A    
N6    Ni4   S    
C73   C74   A    
C70   C71   A    
C37   H20   S    
C21   H8    S    
C2    N13   A    
C15   C17   A    
C54   C55   D    
N1    N7    A    
C25   H9    S    
C59   H36   S    
C14   C15   A    
C52   H48   S    
C34   C52   A    
C2    C8    A    
C69   C80   S    
C76   C81   A    
C29   H13   S    
C76   H50   S    
C67   H23   S    
C23   C55   S    
C55   H31   S    
C40   H39   S    
C47   H24   S    
C2    H52   S    
C32   C33   A    
C19   C20   A    
C9    C68   S    
C14   H5    S    
C71   C72   A    
C12   C44   S    
N11   N12   A    
C59   C65   A    
C11   C13   A    
C57   C58   D    
C74   H43   S    
C56   N9    A    
C5    N15   A    
C33   C35   A    
C73   C80   A    
C60   H37   S    
C22   C24   A    
N10   Ni3   S    
N6    N16   A    
C69   C70   A    
N9    N15   A    
C10   C11   A    
C79   C80   A    
C70   H41   S    
N3    Ni4   S    
C20   C21   A    
C8    C67   A    
C49   C50   A    
C67   N10   A    
C66   H40   S    
C27   H11   S    
C28   N3    A    
C10   C17   A    
N4    Ni2   S    
C21   C22   A    
C35   C46   S    
C20   C31   S    
C62   H38   S    
C78   N11   A    
C71   C81   S    
C75   H44   S    
