data_str_m3_o11_o16_f0_pcu.sym.183
_audit_creation_date              2012-12-10T17:03:40-0500
_audit_creation_method            fapswitch 2.2
_symmetry_space_group_name_H-M    P1
_symmetry_Int_Tables_number       1
_space_group_crystal_system       triclinic
_cell_length_a                    10.11401
_cell_length_b                    10.696431
_cell_length_c                    13.008676
_cell_angle_alpha                 89.70984
_cell_angle_beta                  71.218279
_cell_angle_gamma                 89.001205
_cell_volume                      1332.18809517

loop_
_atom_site_label
_atom_site_type_symbol
_atom_type_description
_atom_site_fract_x
_atom_site_fract_y
_atom_site_fract_z
_atom_type_partial_charge
C1    C     C_R   0.497080 0.737048 0.504806 0.945343
C2    C     C_R   0.440737 0.400827 0.979107 0.144293
C3    C     C_R   0.479734 0.400271 0.865176 0.089336
C4    C     C_R   0.546970 0.410466 0.026892 -0.003457
C5    C     C_R   0.688452 0.395942 0.962474 -0.025460
C6    C     C_R   0.721121 0.359952 0.853985 -0.145592
C7    C     C_R   0.617186 0.361265 0.805647 -0.180430
C8    C     C_R   0.516059 0.448092 0.134161 -0.316394
C9    C     C_R   0.761803 0.470514 0.111743 0.384114
C10   C     C_R   0.380871 0.443303 0.816118 -0.144375
C11   C     C_2   0.589490 0.065382 0.539695 0.633319
C12   C     C_R   0.424358 0.484754 0.702576 0.831858
C13   C     C_2   0.506409 0.130554 0.496321 -0.451572
C14   C     C_2   0.595215 0.930899 0.532282 -0.219681
C15   C     C_2   0.487080 0.868325 0.522099 -0.438760
C16   C     C_2   0.093136 0.408997 0.459927 0.667584
C17   C     C_2   0.933194 0.400930 0.490438 -0.043156
C18   C     C_R   0.501198 0.262833 0.500180 0.955446
C19   C     C_R   0.576964 0.497863 0.295556 0.892783
C20   C     C_R   0.794548 0.423707 0.005760 0.509621
C21   C     C_R   0.620965 0.474952 0.178334 -0.262492
C22   C     C_R   0.239693 0.452044 0.878846 -0.152090
C23   C     C_R   0.198487 0.422715 0.988817 -0.099786
C24   C     C_R   0.297463 0.400798 0.039739 -0.240080
H1    H     H_    0.442430 0.087530 0.454080 0.111159
H2    H     H_    0.690505 0.883758 0.534103 0.205738
H3    H     H_    0.387245 0.912714 0.529701 0.153740
H4    H     H_    0.884318 0.310398 0.503928 0.109049
H5    H     H_    0.827757 0.338955 0.804444 0.208232
H6    H     H_    0.408984 0.462363 0.183669 0.214326
H7    H     H_    0.162020 0.481895 0.842628 0.225078
H8    H     H_    0.259422 0.383297 0.126056 0.153327
H9    H     H_    0.090358 0.423040 0.037107 0.256023
H10   H     H_    0.646604 0.333516 0.721449 0.215524
N1    N     N_2   0.148270 0.498670 0.498870 0.050261
N2    N     N_2   0.852610 0.498640 0.498840 0.148326
O1    O     O_R   0.386950 0.680940 0.500020 -0.648516
O2    O     O_R   0.613110 0.680900 0.499980 -0.566814
O3    O     O_R   0.330780 0.500000 0.653640 -0.606448
O4    O     O_R   0.556930 0.499960 0.653610 -0.618213
O5    O     O_R   0.386890 0.319100 0.500020 -0.583247
O6    O     O_R   0.613050 0.319060 0.499980 -0.591010
O7    O     O_R   0.443070 0.500040 0.346390 -0.605300
O8    O     O_R   0.669220 0.500000 0.346360 -0.565913
Zn1   Zn    Zn3+2 0.349000 0.500030 0.500020 1.008088
Zn2   Zn    Zn3+2 0.651000 0.499970 0.499980 1.042349
O9    O     O_3   0.868248 0.506937 0.149808 -0.634380
C25   C     C_3   0.869382 0.639236 0.156829 0.136788
H11   H     H_    0.916538 0.662946 0.220353 0.206923
H12   H     H_    0.762826 0.683077 0.183166 0.108793
C26   C     C_3   0.958602 0.696568 0.049044 -0.391749
H13   H     H_    0.067040 0.658869 0.027200 0.238895
H14   H     H_    0.915301 0.672099 0.983492 0.236593
C27   C     C_3   0.962243 0.838661 0.057073 -0.931482
H15   H     H_    0.855273 0.879417 0.075918 0.267982
H16   H     H_    0.028846 0.877263 0.978427 0.271978
H17   H     H_    0.006487 0.865889 0.121460 0.265276
O10   O     O_3   0.186319 0.323468 0.391424 -0.660719
C28   C     C_3   0.123011 0.222750 0.356116 -0.001143
H18   H     H_    0.198896 0.187554 0.279037 0.180596
H19   H     H_    0.029154 0.251386 0.334345 0.142817
C29   C     C_3   0.094602 0.115161 0.438620 -0.352238
H20   H     H_    0.195510 0.078486 0.444263 0.219098
H21   H     H_    0.031275 0.148817 0.520543 0.228975
C30   C     C_3   0.017945 0.009043 0.405343 -0.885130
H22   H     H_    0.915500 0.043127 0.400998 0.281192
H23   H     H_    0.999361 0.932776 0.466341 0.262735
H24   H     H_    0.081372 0.970913 0.324988 0.253697
O11   O     O_3   0.060374 0.547137 0.592474 -0.592195
C31   C     C_3   0.067484 0.679103 0.588212 0.268830
H25   H     H_    0.964221 0.716123 0.588344 0.179817
H26   H     H_    0.145787 0.716406 0.513685 0.142827
C32   C     C_3   0.091808 0.729497 0.690535 -0.385564
H27   H     H_    0.017376 0.685694 0.763587 0.236235
H28   H     H_    0.199243 0.705923 0.689561 0.248276
C33   C     C_3   0.070954 0.871282 0.699139 -0.973535
H29   H     H_    0.140197 0.917535 0.625317 0.261146
H30   H     H_    0.096270 0.905826 0.770816 0.277610
H31   H     H_    0.960678 0.896991 0.708917 0.280973
F1    F     F_    0.918490 0.599938 0.448079 -0.624992
F2    F     F_    0.929110 0.412733 0.942063 -0.721893
F3    F     F_    0.673509 0.122029 0.588208 -0.689163

loop_
_geom_bond_atom_site_label_1
_geom_bond_atom_site_label_2
_ccdc_geom_bond_type
C32   H27   S    
C33   H31   S    
C4    C8    A    
C5    C20   A    
C10   C22   A    
O4    Zn2   S    
C13   C18   S    
C19   C21   S    
C33   H30   S    
C3    C7    A    
C18   O6    A    
C16   N1    D    
C5    C6    A    
C11   C14   S    
O6    Zn2   S    
C29   H21   S    
C25   C26   S    
O8    Zn2   S    
C16   C17   S    
C30   H23   S    
C23   C24   A    
N2    Zn2   S    
C31   H25   S    
C1    C15   S    
C17   N2    D    
C1    O1    A    
O3    Zn1   S    
C25   H12   S    
C28   H18   S    
C20   F2    S    
C32   H28   S    
C13   H1    S    
C19   O7    A    
C11   F3    S    
C27   H16   S    
C28   H19   S    
C22   H7    S    
C26   H13   S    
C33   H29   S    
N2    F1    S    
C18   O5    A    
C23   H9    S    
O10   C28   S    
C26   H14   S    
C12   O4    A    
C2    C4    A    
C24   H8    S    
C29   H20   S    
C9    C20   A    
C15   H3    S    
O9    C25   S    
C30   H24   S    
C31   C32   S    
C8    C21   A    
C16   O10   S    
C14   H2    S    
O7    Zn1   S    
C10   C12   S    
C1    O2    A    
C25   H11   S    
C9    O9    S    
C2    C24   A    
C32   C33   S    
O1    Zn1   S    
N1    Zn1   S    
C19   O8    A    
C27   H15   S    
C28   C29   S    
C29   C30   S    
C14   C15   D    
C17   H4    S    
C4    C5    A    
C6    C7    A    
C26   C27   S    
C8    H6    S    
C12   O3    A    
C2    C3    A    
C3    C10   A    
C11   C13   D    
C9    C21   A    
C7    H10   S    
O11   C31   S    
O2    Zn2   S    
C6    H5    S    
N1    O11   S    
C30   H22   S    
O5    Zn1   S    
C22   C23   A    
C31   H26   S    
C27   H17   S    
