data_str_m2_o14_o18_f0_pcu.sym.177
_audit_creation_date              2013-03-05T15:50:50-0500
_audit_creation_method            fapswitch 2.2
_symmetry_space_group_name_H-M    P1
_symmetry_Int_Tables_number       1
_space_group_crystal_system       triclinic
_cell_length_a                    9.689766
_cell_length_b                    10.9662
_cell_length_c                    15.790588
_cell_angle_alpha                 84.00421
_cell_angle_beta                  73.100964
_cell_angle_gamma                 89.331064
_cell_volume                      1596.36145908

loop_
_atom_site_label
_atom_site_type_symbol
_atom_site_description
_atom_site_fract_x
_atom_site_fract_y
_atom_site_fract_z
_atom_type_partial_charge
O1    O     O_R   0.118810 0.319640 0.500010 -0.613574
O2    O     O_R   0.881240 0.319660 0.500000 -0.550607
C1    C     C_R   0.002968 0.263554 0.496905 0.837523
O3    O     O_R   0.055570 0.499980 0.629840 -0.635071
O4    O     O_R   0.818000 0.500010 0.629830 -0.579730
C2    C     C_R   0.917178 0.497640 0.671794 0.799612
Cu1   Cu    Cu3+1 0.140660 0.499990 0.500010 0.918696
Cu2   Cu    Cu3+1 0.859340 0.500010 0.499990 0.968280
O5    O     O_R   0.118760 0.680340 0.500000 -0.629146
O6    O     O_R   0.881190 0.680360 0.499990 -0.548357
O7    O     O_R   0.182000 0.499990 0.370170 -0.550099
O8    O     O_R   0.944430 0.500020 0.370160 -0.578327
C3    C     C_R   0.999464 0.737603 0.502588 0.803814
C4    C     C_R   0.083334 0.502482 0.327767 0.802693
C5    C     C_R   0.868596 0.495317 0.770050 -0.131777
C6    C     C_R   0.131391 0.518824 0.228186 -0.277239
C7    C     C_R   0.904199 0.465460 0.916685 -0.114315
C8    C     C_R   0.960416 0.466093 0.824776 0.023297
C9    C     C_R   0.722130 0.519810 0.810340 -0.197007
C10   C     C_R   0.666372 0.522789 0.902740 0.093589
C11   C     C_R   0.761981 0.498007 0.954919 0.022384
C12   C     C_R   0.519700 0.551033 0.946062 -0.004150
C13   C     C_R   0.476515 0.553259 0.039486 -0.049012
C14   C     C_R   0.584678 0.564015 0.081128 0.586205
C15   C     C_R   0.719762 0.519885 0.043575 -0.325612
C16   C     C_R   0.417683 0.586169 0.900598 -0.226476
C17   C     C_R   0.276249 0.615260 0.946945 0.048609
C18   C     C_R   0.227556 0.587319 0.040970 0.003279
C19   C     C_R   0.328673 0.554373 0.087892 -0.042761
C20   C     C_R   0.080495 0.583456 0.088255 -0.251173
C21   C     C_R   0.031688 0.543390 0.179176 0.394259
C22   C     C_R   0.279450 0.515465 0.181027 0.421998
H1    H     H_    0.796225 0.518369 0.080548 0.193023
H2    H     H_    0.974643 0.446245 0.958579 0.153026
H3    H     H_    0.653493 0.538815 0.768122 0.143342
H4    H     H_    0.447658 0.599765 0.828916 0.118296
H5    H     H_    0.001180 0.605925 0.054268 0.203896
H6    H     H_    0.779935 0.113931 0.515248 0.213829
C23   C     C_R   0.275835 0.121832 0.439308 -0.226869
H7    H     H_    0.286086 0.211258 0.402267 0.160173
C24   C     C_R   0.402280 0.058725 0.439072 0.547686
C25   C     C_R   0.391068 0.941191 0.483813 -0.188035
H8    H     H_    0.486620 0.893293 0.489461 0.192597
C26   C     C_R   0.256977 0.881844 0.518027 -0.212724
H9    H     H_    0.255117 0.793245 0.555042 0.191703
C27   C     C_R   0.131471 0.937509 0.504295 0.041223
C28   C     C_R   0.138951 0.065456 0.480289 0.034284
C29   C     C_R   0.008709 0.130543 0.494546 -0.182497
C30   C     C_R   0.879766 0.066101 0.510026 -0.237535
C31   C     C_R   0.881254 0.941599 0.501146 0.490346
C32   C     C_R   0.002407 0.872291 0.506923 -0.206815
C33   C     C_R   0.699940 0.655824 0.372376 -0.024335
H10   H     H_    0.810256 0.665733 0.369883 0.198003
C34   C     C_R   0.655739 0.730566 0.308904 -0.132660
H11   H     H_    0.733904 0.787731 0.257597 0.142752
C35   C     C_R   0.510637 0.740868 0.316234 -0.138165
H12   H     H_    0.473622 0.808240 0.273219 0.147288
C36   C     C_R   0.411170 0.664048 0.378626 -0.073659
H13   H     H_    0.303050 0.674220 0.376302 0.192869
C37   C     C_R   0.452779 0.579528 0.439555 0.173087
C38   C     C_R   0.602280 0.577063 0.437819 0.157107
N1    N     N_R   0.648320 0.501210 0.499140 -0.240539
C39   C     C_R   0.545708 0.427151 0.561279 0.006562
C40   C     C_R   0.399830 0.420396 0.557272 -0.058272
N2    N     N_R   0.352470 0.501290 0.499110 -0.247903
O9    O     O_3   0.536298 0.104969 0.388217 -0.633158
C41   C     C_3   0.569990 0.211195 0.421566 -0.310452
H14   H     H_    0.556546 0.194756 0.494111 0.230260
H15   H     H_    0.505483 0.290011 0.405846 0.174356
H16   H     H_    0.685088 0.235813 0.388766 0.173842
O10   O     O_3   0.772180 0.893693 0.474233 -0.570193
C42   C     C_3   0.797603 0.935784 0.382955 -0.321967
H17   H     H_    0.882664 0.880828 0.341070 0.136705
H18   H     H_    0.828320 0.034789 0.365414 0.167192
H19   H     H_    0.696628 0.927079 0.365541 0.225167
C43   C     C_2   0.580098 0.362422 0.639146 0.563101
H20   H     H_    0.530746 0.391946 0.704460 0.031537
O11   O     O_2   0.653473 0.271003 0.632691 -0.528053
O12   O     O_3   0.374866 0.466265 0.225233 -0.525891
C44   C     C_3   0.382193 0.338915 0.218509 -0.308441
H21   H     H_    0.422205 0.318856 0.147934 0.154617
H22   H     H_    0.275650 0.292568 0.251332 0.137899
H23   H     H_    0.459978 0.299703 0.252878 0.197298
C45   C     C_2   0.301954 0.319521 0.612581 0.388177
H24   H     H_    0.187067 0.326691 0.630975 0.152025
O13   O     O_2   0.349138 0.222764 0.637101 -0.537285
O14   O     O_3   0.884912 0.528843 0.218802 -0.556766
C46   C     C_3   0.847864 0.403095 0.225454 -0.271063
H25   H     H_    0.892255 0.347400 0.274025 0.154287
H26   H     H_    0.885537 0.365202 0.160019 0.135600
H27   H     H_    0.728593 0.392983 0.249188 0.202183
C47   C     C_2   0.186609 0.676060 0.893324 0.354096
H28   H     H_    0.214532 0.667613 0.822531 0.057462
O15   O     O_2   0.088011 0.743148 0.925276 -0.540649
C48   C     C_2   0.116109 0.440591 0.790462 0.293387
H29   H     H_    0.184957 0.495458 0.733203 0.074922
O16   O     O_2   0.171237 0.360858 0.829225 -0.527535
O17   O     O_3   0.571250 0.645026 0.144072 -0.529008
C49   C     C_3   0.580543 0.765972 0.100315 -0.304214
H30   H     H_    0.649963 0.775359 0.029647 0.169486
H31   H     H_    0.630616 0.828138 0.134342 0.174314
H32   H     H_    0.470586 0.798896 0.103052 0.165881

loop_
_geom_bond_atom_site_label_1
_geom_bond_atom_site_label_2
_geom_bond_distance
_ccdc_geom_bond_type
C5    C8    1.422511 A    
O14   C46   1.414524 S    
C42   H18   1.113941 S    
C24   C25   1.393061 A    
C48   H29   1.081485 S    
Cu1   Cu2   2.726014 S    
C23   C24   1.399359 A    
H6    C30   1.080952 S    
C26   H9    1.077776 S    
C6    C21   1.410625 A    
C5    C9    1.411715 A    
C16   C17   1.403924 A    
C14   O17   1.378628 S    
C13   C19   1.414763 A    
C18   C19   1.413291 A    
C45   O13   1.220872 D    
C19   C22   1.427664 A    
C33   C38   1.404809 A    
C42   H19   1.098236 S    
C20   C21   1.398664 A    
O7    C4    1.315610 A    
C39   C43   1.475502 S    
C36   C37   1.406336 A    
C1    C29   1.462978 S    
C35   H12   1.080022 S    
O5    C3    1.301215 A    
C40   C45   1.492334 S    
C2    C5    1.482179 S    
C27   C28   1.411708 A    
C45   H24   1.069843 S    
C28   C29   1.414268 A    
C26   C27   1.416664 A    
C13   C14   1.401606 A    
O9    C41   1.406372 S    
C3    C32   1.486718 S    
C8    C48   1.481329 S    
C25   C26   1.393491 A    
C44   H23   1.108610 S    
C33   C34   1.389066 A    
C7    C8    1.393341 A    
C34   C35   1.381096 A    
C21   O14   1.380866 S    
C43   O11   1.217992 D    
C41   H14   1.110107 S    
C14   C15   1.375879 A    
O3    C2    1.310936 A    
C23   H7    1.078111 S    
C42   H17   1.111179 S    
O3    Cu1   1.974826 S    
C36   H13   1.063081 S    
C27   C32   1.435864 A    
C7    C11   1.393117 A    
O12   C44   1.411008 S    
C20   H5    1.071048 S    
C37   C38   1.440896 A    
O1    C1    1.301944 A    
Cu1   O7    1.971425 S    
C31   O10   1.376361 S    
N1    C39   1.377010 A    
Cu1   N2    2.048509 S    
C49   H30   1.117822 S    
C46   H27   1.109463 S    
Cu2   O8    1.974826 S    
C10   C11   1.414959 A    
C47   O15   1.220439 D    
C31   C32   1.411053 A    
C17   C47   1.487292 S    
C43   H20   1.084706 S    
C16   H4    1.078160 S    
C29   C30   1.388239 A    
C49   H31   1.106646 S    
C46   H26   1.113742 S    
C37   N2    1.372852 A    
C30   C31   1.386485 A    
C4    C6    1.496290 S    
C25   H8    1.080717 S    
C33   H10   1.064582 S    
C23   C28   1.413084 A    
Cu1   O5    1.986630 S    
C11   C15   1.385513 A    
C34   H11   1.082249 S    
O1    Cu1   1.991511 S    
O2    Cu2   1.986629 S    
C10   C12   1.432664 A    
C44   H21   1.112953 S    
O6    C3    1.326153 A    
O4    Cu2   1.971425 S    
C48   O16   1.221431 D    
C24   O9    1.382905 S    
C6    C22   1.413338 A    
C41   H16   1.107686 S    
C40   N2    1.380699 A    
C9    C10   1.404659 A    
C18   C20   1.402184 A    
O2    C1    1.314550 A    
O8    C4    1.316696 A    
O10   C42   1.417185 S    
C9    H3    1.075031 S    
C22   O12   1.384938 S    
C7    H2    1.085356 S    
O4    C2    1.315054 A    
C47   H28   1.084712 S    
C44   H22   1.113048 S    
C35   C36   1.379409 A    
C38   N1    1.379390 A    
C39   C40   1.436298 A    
C49   H32   1.111284 S    
C46   H25   1.110896 S    
Cu2   O6    1.991511 S    
O17   C49   1.421189 S    
C12   C16   1.409581 A    
Cu2   N1    2.048556 S    
C17   C18   1.421942 A    
C12   C13   1.414340 A    
C41   H15   1.110010 S    
C15   H1    1.067354 S    
