data_str_m2_o4_o16_f0_pcu.sym.140
_audit_creation_date              2012-12-10T19:00:12-0500
_audit_creation_method            fapswitch 2.2
_symmetry_space_group_name_H-M    P1
_symmetry_Int_Tables_number       1
_space_group_crystal_system       triclinic
_cell_length_a                    9.54882
_cell_length_b                    10.829581
_cell_length_c                    13.401763
_cell_angle_alpha                 89.837078
_cell_angle_beta                  73.380222
_cell_angle_gamma                 89.600936
_cell_volume                      1327.9434697

loop_
_atom_site_label
_atom_site_type_symbol
_atom_type_description
_atom_site_fract_x
_atom_site_fract_y
_atom_site_fract_z
_atom_type_partial_charge
C1    C     C_R   0.498469 0.737624 0.503306 0.820254
C2    C     C_R   0.445277 0.437847 0.974277 0.050262
C3    C     C_R   0.490610 0.428417 0.864364 0.077236
C4    C     C_R   0.551980 0.461412 0.026923 0.072433
C5    C     C_R   0.701276 0.468276 0.969394 0.167851
C6    C     C_R   0.744859 0.434475 0.864767 -0.349937
C7    C     C_R   0.640628 0.401968 0.815173 -0.007430
C8    C     C_R   0.514735 0.481785 0.134493 -0.242221
C9    C     C_R   0.767998 0.512818 0.126871 -0.203747
C10   C     C_R   0.383682 0.445307 0.809558 -0.070197
C11   C     C_R   0.371571 0.938961 0.559391 0.133505
C12   C     C_R   0.423953 0.482619 0.698456 0.832464
C13   C     C_R   0.498268 0.870873 0.511931 -0.155269
C14   C     C_R   0.632092 0.934408 0.478787 -0.230009
C15   C     C_R   0.633736 0.063207 0.477279 -0.200916
C16   C     C_R   0.501481 0.129584 0.507426 -0.055474
C17   C     C_R   0.373770 0.065387 0.553697 0.085685
C18   C     C_3   0.221986 0.075504 0.546092 -0.530018
C19   C     C_3   0.215190 0.934755 0.557679 0.266264
C20   C     C_R   0.942480 0.401525 0.461079 0.250475
C21   C     C_R   0.905257 0.590151 0.548918 -0.101773
C22   C     C_R   0.054199 0.589969 0.549006 -0.105163
C23   C     C_R   0.500719 0.262471 0.499883 0.843203
C24   C     C_R   0.089923 0.401621 0.460883 0.260323
C25   C     C_3   0.138178 0.354441 0.351960 -0.509540
C26   C     C_3   0.979057 0.352762 0.352914 -0.503532
C27   C     C_R   0.577696 0.502345 0.299850 0.791711
C28   C     C_R   0.806548 0.500182 0.018943 -0.186762
C29   C     C_R   0.621770 0.499952 0.185499 -0.048805
C30   C     C_R   0.235524 0.430961 0.863977 -0.188203
C31   C     C_R   0.193943 0.410585 0.970908 -0.151502
C32   C     C_R   0.295709 0.420431 0.026501 -0.169041
Cu1   Cu    Cu3+1 0.359330 0.500020 0.500010 0.946100
Cu2   Cu    Cu3+1 0.640670 0.499980 0.499990 0.950708
H1    H     H_    0.852172 0.532060 0.164176 0.146681
H2    H     H_    0.737147 0.109984 0.447125 0.150501
H3    H     H_    0.150520 0.127574 0.612769 0.210877
H4    H     H_    0.218049 0.107014 0.468036 0.155148
H5    H     H_    0.199939 0.882581 0.490020 0.076733
H6    H     H_    0.833343 0.664126 0.586790 0.138547
H7    H     H_    0.094994 0.663200 0.587060 0.169310
H8    H     H_    0.201952 0.423903 0.297393 0.205036
H9    H     H_    0.188659 0.261102 0.346149 0.188762
H10   H     H_    0.953851 0.419338 0.297118 0.212581
H11   H     H_    0.860231 0.423036 0.824587 0.133934
H12   H     H_    0.936434 0.258032 0.350099 0.185514
H13   H     H_    0.918685 0.513551 0.973746 0.134874
H14   H     H_    0.402744 0.483750 0.180196 0.141087
H15   H     H_    0.151902 0.434286 0.823862 0.145399
H16   H     H_    0.254624 0.409822 0.109646 0.124883
H17   H     H_    0.081668 0.391003 0.012273 0.139511
H18   H     H_    0.734659 0.885200 0.448719 0.162747
N1    N     N_R   0.852320 0.499070 0.499340 -0.188446
N2    N     N_R   0.148230 0.499110 0.499340 -0.185499
O1    O     O_R   0.381190 0.680360 0.500000 -0.583931
O2    O     O_R   0.618780 0.680320 0.499990 -0.587161
O3    O     O_R   0.323230 0.500000 0.650990 -0.584832
O4    O     O_R   0.560820 0.499960 0.650980 -0.581716
O5    O     O_R   0.381220 0.319680 0.500010 -0.591780
O6    O     O_R   0.618810 0.319640 0.500000 -0.565880
O7    O     O_R   0.439180 0.500040 0.349020 -0.585724
O8    O     O_R   0.676770 0.500000 0.349010 -0.587619
O9    O     O_3   0.124004 0.898100 0.656173 -0.582881
C33   C     C_3   0.974657 0.901892 0.658401 0.056674
H19   H     H_    0.930167 0.807771 0.676829 0.142500
H20   H     H_    0.954702 0.930828 0.583507 0.118718
C34   C     C_3   0.889234 0.987352 0.745736 -0.343791
H21   H     H_    0.912906 0.961799 0.819693 0.234721
H22   H     H_    0.923094 0.084499 0.726863 0.201841
C35   C     C_3   0.724962 0.977717 0.761090 -0.844928
H23   H     H_    0.698474 0.002603 0.688068 0.286316
H24   H     H_    0.665900 0.041899 0.823728 0.271166
H25   H     H_    0.687049 0.882235 0.783980 0.244483
C36   C     C_2   0.689013 0.316247 0.725750 0.434516
H26   H     H_    0.803285 0.311721 0.680900 0.035690
O10   O     O_2   0.602701 0.245449 0.704737 -0.573493

loop_
_geom_bond_atom_site_label_1
_geom_bond_atom_site_label_2
_ccdc_geom_bond_type
Cu1   O1    S    
C28   H13   S    
Cu2   O2    S    
C6    H11   S    
C27   C29   S    
C4    C8    A    
C25   H9    S    
C26   H10   S    
C22   N2    A    
C23   O5    A    
C11   C19   S    
C36   O10   D    
C8    C29   A    
C19   H5    S    
C18   H3    S    
C3    C7    A    
C5    C6    A    
C22   H7    S    
C24   N2    A    
C15   C16   A    
Cu2   O8    S    
C2    C32   A    
C18   C19   S    
C27   O7    A    
C14   H18   S    
C20   C24   A    
C19   O9    S    
C16   C17   A    
C35   H23   S    
C9    C29   A    
C12   O4    A    
Cu1   O5    S    
C21   C22   A    
Cu2   O6    S    
Cu1   Cu2   S    
C7    C36   S    
C23   O6    A    
C36   H26   S    
C34   H21   S    
C33   C34   S    
C24   C25   S    
C20   N1    A    
C25   C26   S    
C34   H22   S    
C33   H20   S    
C2    C4    A    
C8    H14   S    
C27   O8    A    
C5    C28   A    
C10   C30   A    
C31   C32   A    
C35   H25   S    
C17   C18   S    
C32   H16   S    
C10   C12   S    
C12   O3    A    
C30   H15   S    
C16   C23   S    
C1    C13   S    
C15   H2    S    
C9    H1    S    
Cu1   N2    S    
C11   C17   A    
Cu1   O3    S    
C1    O2    A    
C31   H17   S    
C4    C5    A    
C25   H8    S    
C6    C7    A    
C34   C35   S    
C33   H19   S    
C2    C3    A    
C1    O1    A    
C3    C10   A    
C21   N1    A    
C11   C13   A    
C30   C31   A    
C21   H6    S    
C20   C26   S    
C18   H4    S    
C26   H12   S    
O9    C33   S    
Cu2   N1    S    
Cu1   O7    S    
Cu2   O4    S    
C14   C15   A    
C35   H24   S    
C13   C14   A    
C9    C28   A    
