data_str_m2_o1_o17_f0_pcu.sym.64
_audit_creation_date              2013-03-05T16:04:29-0500
_audit_creation_method            fapswitch 2.2
_symmetry_space_group_name_H-M    P1
_symmetry_Int_Tables_number       1
_space_group_crystal_system       triclinic
_cell_length_a                    10.805161
_cell_length_b                    9.524136
_cell_length_c                    15.085938
_cell_angle_alpha                 89.953816
_cell_angle_beta                  90.32406
_cell_angle_gamma                 90.590413
_cell_volume                      1552.38351749

loop_
_atom_site_label
_atom_site_type_symbol
_atom_site_description
_atom_site_fract_x
_atom_site_fract_y
_atom_site_fract_z
_atom_type_partial_charge
O1    O     O_R   0.319640 0.618740 0.499990 -0.583530
O2    O     O_R   0.680360 0.381260 0.500010 -0.583521
O3    O     O_R   0.680360 0.618740 0.500010 -0.576972
O4    O     O_R   0.319640 0.381260 0.499990 -0.576978
C1    C     C_R   0.262509 0.499008 0.499651 0.828742
C2    C     C_R   0.737491 0.500992 0.500352 0.828737
O5    O     O_R   0.499970 0.618800 0.370260 -0.573242
O6    O     O_R   0.500030 0.381200 0.629740 -0.573243
O7    O     O_R   0.500030 0.618800 0.629740 -0.591660
O8    O     O_R   0.499970 0.381200 0.370260 -0.591656
C3    C     C_R   0.493929 0.500100 0.328988 0.797943
C4    C     C_R   0.506067 0.499899 0.671012 0.797931
Cu1   Cu    Cu3+1 0.500000 0.640660 0.500000 0.940699
Cu2   Cu    Cu3+1 0.500000 0.359340 0.500000 0.940704
C5    C     C_R   0.590580 0.408179 0.815428 0.146110
C6    C     C_R   0.409441 0.591851 0.184571 0.146109
C7    C     C_R   0.512715 0.499969 0.767605 -0.069802
C8    C     C_R   0.487278 0.500030 0.232394 -0.069828
C9    C     C_R   0.436629 0.593800 0.811749 -0.296828
C10   C     C_R   0.563341 0.406165 0.188249 -0.296821
C11   C     C_R   0.430612 0.596177 0.904075 0.106144
C12   C     C_R   0.569377 0.403808 0.095923 0.106109
C13   C     C_R   0.503211 0.500390 0.953263 -0.018754
C14   C     C_R   0.496793 0.499615 0.046736 -0.018750
C15   C     C_R   0.582603 0.405676 0.909094 0.068487
C16   C     C_R   0.417414 0.594346 0.090905 0.068489
C17   C     C_R   0.352521 0.691346 0.948114 0.177495
C18   C     C_R   0.647480 0.308643 0.051885 0.177507
C19   C     C_R   0.347393 0.689543 0.040432 -0.205315
C20   C     C_R   0.652633 0.310482 0.959567 -0.205335
H1    H     H_    0.380171 0.663815 0.772527 0.173476
H2    H     H_    0.619771 0.336114 0.227471 0.173498
H3    H     H_    0.288071 0.764766 0.072315 0.160379
H4    H     H_    0.711975 0.235281 0.927684 0.160385
C21   C     C_R   0.063647 0.436292 0.428516 0.120492
C22   C     C_R   0.936351 0.563717 0.571488 0.120479
C23   C     C_R   0.933718 0.443558 0.426150 0.150898
C24   C     C_R   0.066281 0.556456 0.573852 0.150877
C25   C     C_R   0.871566 0.503770 0.498829 -0.116189
C26   C     C_R   0.128433 0.496232 0.501176 -0.116182
C27   C     C_R   0.427496 0.073613 0.441760 -0.017460
C28   C     C_R   0.572503 0.926387 0.558240 -0.017461
C29   C     C_R   0.572675 0.075131 0.558130 -0.009651
C30   C     C_R   0.427324 0.924869 0.441870 -0.009654
H5    H     H_    0.369703 0.128910 0.394906 0.116714
H6    H     H_    0.630297 0.871090 0.605094 0.116721
H7    H     H_    0.631158 0.131627 0.604552 0.123689
H8    H     H_    0.368840 0.868374 0.395449 0.123687
N1    N     N_R   0.500000 0.852070 0.500000 -0.159130
N2    N     N_R   0.500000 0.147930 0.500000 -0.159132
C31   C     C_3   0.685703 0.318610 0.768471 -0.898124
H9    H     H_    0.660264 0.205796 0.774911 0.230794
H10   H     H_    0.696549 0.342962 0.697323 0.236529
H11   H     H_    0.778710 0.337592 0.798125 0.227628
C32   C     C_3   0.314348 0.681465 0.231528 -0.898086
H12   H     H_    0.221334 0.662553 0.201865 0.227606
H13   H     H_    0.303476 0.657091 0.302672 0.236530
H14   H     H_    0.339848 0.794268 0.225103 0.230794
C33   C     C_3   0.273502 0.795776 0.898456 -0.886384
H15   H     H_    0.333312 0.866650 0.858369 0.238245
H16   H     H_    0.207140 0.739202 0.854371 0.232790
H17   H     H_    0.218759 0.862366 0.943870 0.231221
C34   C     C_3   0.726496 0.204181 0.101543 -0.886284
H18   H     H_    0.666667 0.133275 0.141606 0.238223
H19   H     H_    0.781267 0.137609 0.056130 0.231200
H20   H     H_    0.792848 0.260744 0.145652 0.232773
C35   C     C_3   0.135300 0.364988 0.354728 -0.832167
H21   H     H_    0.182416 0.271247 0.381712 0.234380
H22   H     H_    0.078336 0.327594 0.298299 0.233844
H23   H     H_    0.205443 0.438217 0.327145 0.215351
C36   C     C_3   0.864697 0.635053 0.645264 -0.832103
H24   H     H_    0.817631 0.728820 0.618265 0.234371
H25   H     H_    0.794509 0.561859 0.672831 0.215345
H26   H     H_    0.921649 0.672417 0.701713 0.233822
C37   C     C_3   0.862938 0.392479 0.344673 -0.844090
H27   H     H_    0.762998 0.415746 0.345651 0.224726
H28   H     H_    0.898928 0.446202 0.284615 0.226177
H29   H     H_    0.872783 0.277094 0.337706 0.236317
C38   C     C_3   0.137062 0.607586 0.655315 -0.844050
H30   H     H_    0.237015 0.584359 0.654331 0.224733
H31   H     H_    0.127183 0.722977 0.662261 0.236325
H32   H     H_    0.101094 0.553874 0.715387 0.226157

loop_
_geom_bond_atom_site_label_1
_geom_bond_atom_site_label_2
_geom_bond_distance
_ccdc_geom_bond_type
C30   N1    1.367070 A    
C32   H12   1.110904 S    
C34   H19   1.111137 S    
C3    C8    1.458566 S    
C17   C19   1.394208 A    
O3    C2    1.285680 A    
C9    H1    1.081937 S    
O5    C3    1.291952 A    
O1    C1    1.291102 A    
C21   C23   1.406567 A    
C14   C16   1.420234 A    
C5    C15   1.416319 A    
C24   C38   1.521527 S    
C19   H3    1.081190 S    
C28   H6    1.080805 S    
O7    Cu1   1.968123 S    
C4    C7    1.458554 S    
C13   C14   1.412226 A    
C5    C31   1.520931 S    
O3    Cu1   1.962105 S    
C22   C36   1.523682 S    
C11   C17   1.413507 A    
C34   H20   1.110968 S    
C33   H15   1.110758 S    
C12   C18   1.413556 A    
Cu1   Cu2   2.679330 S    
O4    Cu2   1.962106 S    
O2    C2    1.291102 A    
O7    C4    1.293923 A    
C11   C13   1.416090 A    
C6    C16   1.416315 A    
C33   H16   1.110865 S    
C20   H4    1.081186 S    
C35   H21   1.108346 S    
O8    Cu2   1.968123 S    
C38   H31   1.110356 S    
C34   H18   1.110861 S    
C31   H9    1.110630 S    
C35   H22   1.104729 S    
C37   H27   1.104785 S    
C36   H26   1.104796 S    
C21   C35   1.523656 S    
O6    C4    1.291945 A    
C37   H28   1.110425 S    
Cu1   N1    2.013498 S    
C10   C12   1.394930 A    
C32   H13   1.104567 S    
C27   C30   1.416633 A    
C12   C14   1.416129 A    
C1    C26   1.448987 S    
O1    Cu1   1.957828 S    
C28   C29   1.416634 A    
C27   N2    1.366914 A    
C36   H25   1.107370 S    
C10   H2    1.081974 S    
C15   C20   1.407431 A    
C5    C7    1.414172 A    
C33   H17   1.111074 S    
O6    Cu2   1.968456 S    
C9    C11   1.394928 A    
C22   C25   1.414767 A    
O4    C1    1.285684 A    
C38   H32   1.110483 S    
C29   N2    1.367069 A    
C31   H11   1.110874 S    
C35   H23   1.107341 S    
C18   C20   1.394216 A    
C21   C26   1.414766 A    
C6    C32   1.520941 S    
C36   H24   1.108373 S    
C23   C25   1.413969 A    
C17   C33   1.512779 S    
C24   C26   1.413974 A    
Cu2   N2    2.013499 S    
C22   C24   1.406576 A    
C7    C9    1.392949 A    
C8    C10   1.393010 A    
C13   C15   1.420218 A    
C23   C37   1.521539 S    
O2    Cu2   1.957827 S    
C37   H29   1.110294 S    
O8    C3    1.293926 A    
C28   N1    1.366914 A    
C38   H30   1.104841 S    
C18   C34   1.512959 S    
O5    Cu1   1.968456 S    
C16   C19   1.407399 A    
C6    C8    1.414188 A    
C32   H14   1.110668 S    
C27   H5    1.080804 S    
C2    C25   1.448986 S    
C31   H10   1.104554 S    
C29   H7    1.080687 S    
C30   H8    1.080684 S    
