data_str_m12_o9_o24_f0_bcu.sym.34
_audit_creation_date              2013-03-05T15:58:18-0500
_audit_creation_method            fapswitch 2.2
_symmetry_space_group_name_H-M    P1
_symmetry_Int_Tables_number       1
_space_group_crystal_system       triclinic
_cell_length_a                    14.830408
_cell_length_b                    14.896203
_cell_length_c                    14.961539
_cell_angle_alpha                 110.08796
_cell_angle_beta                  108.887386
_cell_angle_gamma                 108.753788
_cell_volume                      2565.33776648

loop_
_atom_site_label
_atom_site_type_symbol
_atom_site_description
_atom_site_fract_x
_atom_site_fract_y
_atom_site_fract_z
_atom_type_partial_charge
C1    C     C_R   0.982015 0.261869 0.073393 -0.034681
C2    C     C_R   0.081389 0.799379 0.993628 -0.073702
H1    H     H_    0.950803 0.257773 0.128387 0.088408
H2    H     H_    0.138107 0.827194 0.966197 0.103002
N1    N     N_R   0.947560 0.293820 0.002910 -0.041394
N2    N     N_R   0.052440 0.706180 0.997090 -0.047839
C3    C     C_R   0.315320 0.757906 0.223629 -0.040175
C4    C     C_R   0.704823 0.196925 0.798470 -0.108075
H3    H     H_    0.380944 0.777371 0.204524 0.102043
H4    H     H_    0.653106 0.172264 0.832090 0.104587
N3    N     N_R   0.208960 0.706170 0.152110 -0.045919
N4    N     N_R   0.791040 0.293830 0.847890 -0.050955
C5    C     C_R   0.210424 0.408764 0.902455 -0.130345
C6    C     C_R   0.774763 0.592319 0.026917 -0.098777
H5    H     H_    0.182757 0.324656 0.845882 0.114288
H6    H     H_    0.793505 0.676821 0.062125 0.126931
N5    N     N_R   0.154330 0.443160 0.946140 -0.048263
N6    N     N_R   0.845670 0.556840 0.053860 -0.032319
C7    C     C_R   0.983586 0.588220 0.293797 0.344573
C8    C     C_R   0.959977 0.409304 0.685533 0.366007
N7    N     N_R   0.002190 0.556820 0.208880 -0.091406
N8    N     N_R   0.997810 0.443180 0.791120 -0.093516
C9    C     C_R   0.299867 0.590869 0.993747 -0.147748
C10   C     C_R   0.684633 0.408738 0.935048 -0.128798
H7    H     H_    0.354282 0.675066 0.021692 0.098248
H8    H     H_    0.621188 0.324256 0.884509 0.092848
N9    N     N_R   0.210550 0.556810 0.002910 -0.046353
N10   N     N_R   0.789450 0.443190 0.997090 -0.046455
C11   C     C_R   0.891848 0.407948 0.198510 -0.232762
C12   C     C_R   0.051881 0.592079 0.777005 -0.200127
H9    H     H_    0.824768 0.326290 0.153940 0.149458
H10   H     H_    0.094410 0.677249 0.803260 0.147521
N11   N     N_R   0.945970 0.443180 0.152110 -0.072167
N12   N     N_R   0.054030 0.556820 0.847890 -0.063649
C13   C     C_R   0.220038 0.749416 0.313196 -0.127266
C14   C     C_R   0.793840 0.191909 0.705398 -0.003659
H11   H     H_    0.198150 0.757729 0.376269 0.170603
H12   H     H_    0.824436 0.158158 0.654071 0.169926
N13   N     N_R   0.151530 0.706170 0.208880 -0.033871
N14   N     N_R   0.848470 0.293830 0.791120 -0.057544
C15   C     C_R   0.074510 0.258324 0.981719 -0.111926
C16   C     C_R   0.993867 0.800329 0.089371 -0.117078
H13   H     H_    0.129022 0.247822 0.951095 0.107578
H14   H     H_    0.975705 0.829580 0.154356 0.152473
N15   N     N_R   0.004980 0.293810 0.946140 -0.048497
N16   N     N_R   0.995020 0.706190 0.053860 -0.042266
C17   C     C_R   0.063267 0.239365 0.063977 0.058369
C18   C     C_R   0.043857 0.860207 0.049942 0.049789
C19   C     C_R   0.323395 0.786769 0.325578 0.000312
C20   C     C_R   0.703492 0.131397 0.708069 0.015614
C21   C     C_R   0.299287 0.499784 0.928767 0.035258
C22   C     C_R   0.673558 0.500817 0.951652 0.010896
C23   C     C_R   0.910882 0.495485 0.287682 -0.058446
C24   C     C_R   0.990557 0.500896 0.671352 -0.078847
H15   H     H_    0.550168 0.357014 0.105848 0.117485
H16   H     H_    0.652060 0.821081 0.135448 0.111947
C25   C     C_R   0.154378 0.038691 0.069403 -0.143584
C26   C     C_R   0.046220 0.131351 0.154445 -0.188814
C27   C     C_R   0.382759 0.229620 0.000673 -0.110064
C28   C     C_R   0.821400 0.943034 0.231105 -0.062483
H17   H     H_    0.392462 0.198769 0.929665 0.101832
H18   H     H_    0.820164 0.968625 0.307483 0.125278
Ni1   Ni    Ni4+2 0.869690 0.369690 0.000000 0.211875
Ni2   Ni    Ni4+2 0.130310 0.630310 0.000000 0.221366
Ni3   Ni    Ni4+2 0.001390 0.369680 0.869810 0.247126
Ni4   Ni    Ni4+2 0.998610 0.630320 0.130190 0.290604
C29   C     C_R   0.281453 0.178973 0.993140 -0.206974
C30   C     C_R   0.916858 0.996053 0.229217 -0.186242
H19   H     H_    0.526794 0.425565 0.268591 0.118616
H20   H     H_    0.653949 0.766473 0.958557 0.135022
H21   H     H_    0.562966 0.993197 0.014638 0.114591
H22   H     H_    0.275477 0.985647 0.894293 0.117663
C31   C     C_R   0.583698 0.145103 0.126601 -0.101406
C32   C     C_R   0.235278 0.838379 0.759939 -0.135599
H23   H     H_    0.498482 0.122163 0.084189 0.129451
H24   H     H_    0.319551 0.861592 0.781231 0.116837
C33   C     C_R   0.657907 0.248232 0.219288 -0.098275
C34   C     C_R   0.151938 0.736454 0.671187 -0.053268
H25   H     H_    0.629860 0.304875 0.248656 0.122018
H26   H     H_    0.172455 0.680786 0.624254 0.113551
C35   C     C_R   0.768235 0.278056 0.274961 0.134067
C36   C     C_R   0.042636 0.704881 0.645351 0.145671
C37   C     C_R   0.803150 0.202175 0.238666 -0.176648
C38   C     C_R   0.016899 0.778110 0.705426 -0.155944
H27   H     H_    0.888147 0.223851 0.280321 0.113103
H28   H     H_    0.932954 0.754866 0.685881 0.128917
C39   C     C_R   0.729582 0.101093 0.143317 -0.083408
C40   C     C_R   0.100874 0.879695 0.794975 -0.160270
H29   H     H_    0.757988 0.046100 0.111294 0.156022
H30   H     H_    0.081172 0.934072 0.844064 0.114880
C41   C     C_R   0.619834 0.072058 0.087829 -0.096228
C42   C     C_R   0.209941 0.909057 0.823031 -0.131409
C43   C     C_R   0.901869 0.400330 0.469395 -0.148146
C44   C     C_R   0.903456 0.581309 0.455566 -0.183423
H31   H     H_    0.905304 0.329290 0.467868 0.187706
H32   H     H_    0.905904 0.652223 0.449850 0.180520
C45   C     C_R   0.954344 0.500268 0.566059 0.051489
C46   C     C_R   0.867915 0.485215 0.362285 0.028997
C47   C     C_R   0.957975 0.593383 0.557845 0.011062
C48   C     C_R   0.846435 0.389579 0.369449 0.009069
H33   H     H_    0.212946 0.112247 0.915474 0.111240
H34   H     H_    0.988674 0.063768 0.304205 0.117118
H35   H     H_    0.443478 0.461838 0.054796 0.139506
H36   H     H_    0.519248 0.544807 0.789318 0.123989
H37   H     H_    0.349878 0.329996 0.258064 0.112924
H38   H     H_    0.822066 0.856567 0.955240 0.153685
C49   C     C_R   0.269355 0.212328 0.086120 0.124334
C50   C     C_R   0.918655 0.963529 0.130150 0.073750
C51   C     C_R   0.458252 0.356523 0.191771 -0.129515
C52   C     C_R   0.727248 0.828893 0.034584 -0.152421
H39   H     H_    0.082276 0.036541 0.440065 0.121597
H40   H     H_    0.999704 0.955617 0.638756 0.140226
C53   C     C_R   0.198436 0.023893 0.386298 -0.235735
C54   C     C_R   0.884629 0.957296 0.696492 -0.247124
H41   H     H_    0.168950 0.045687 0.325158 0.155112
H42   H     H_    0.936616 0.968039 0.773595 0.155233
C55   C     C_R   0.287647 0.004508 0.402769 0.392470
C56   C     C_R   0.781534 0.948735 0.673227 0.367715
C57   C     C_R   0.323850 0.975331 0.482976 -0.090872
C58   C     C_R   0.715644 0.937132 0.572297 -0.081204
C59   C     C_R   0.274842 0.973277 0.549001 -0.160874
C60   C     C_R   0.752656 0.928490 0.495739 -0.165860
H43   H     H_    0.303305 0.953451 0.612247 0.140965
H44   H     H_    0.704032 0.920200 0.418581 0.138796
C61   C     C_R   0.188583 0.995890 0.533596 0.035130
C62   C     C_R   0.854239 0.934394 0.519500 -0.045721
H45   H     H_    0.151226 0.993793 0.584678 0.109655
H46   H     H_    0.882360 0.928440 0.460434 0.123413
C63   C     C_R   0.149580 0.019783 0.451604 -0.111087
C64   C     C_R   0.920536 0.949919 0.620102 -0.144497
C65   C     C_R   0.510399 0.030371 0.600565 -0.192326
C66   C     C_R   0.516551 0.860794 0.451522 -0.219217
H47   H     H_    0.507918 0.098963 0.654876 0.118680
H48   H     H_    0.516936 0.793233 0.393336 0.121841
C67   C     C_R   0.608517 0.029713 0.620504 0.131392
C68   C     C_R   0.420011 0.867086 0.428801 0.106579
C69   C     C_R   0.612664 0.942536 0.548520 0.119144
C70   C     C_R   0.417085 0.953020 0.504438 0.095200
C71   C     C_R   0.471548 0.317715 0.100186 -0.138152
C72   C     C_R   0.726472 0.859686 0.133788 -0.131299
C73   C     C_R   0.017259 0.023698 0.126818 0.021543
C74   C     C_R   0.172195 0.142254 0.084976 -0.013577
H49   H     H_    0.205862 0.008749 0.047519 0.142819
H50   H     H_    0.004582 0.166625 0.189685 0.110912
C75   C     C_R   0.357608 0.303378 0.185159 -0.083003
C76   C     C_R   0.822915 0.880262 0.032667 -0.099778
C77   C     C_R   0.070472 0.974482 0.080920 0.076846
C78   C     C_R   0.105507 0.181194 0.113176 0.046589
C79   C     C_3   0.469016 0.401291 0.899214 -0.147379
C80   C     C_3   0.491095 0.599898 0.942938 -0.175291
C81   C     C_3   0.397042 0.424830 0.819811 -0.148792
C82   C     C_3   0.562654 0.576165 0.022120 -0.165348
H51   H     H_    0.326409 0.363164 0.737187 0.122579
H52   H     H_    0.631263 0.637176 0.106043 0.125724
H53   H     H_    0.460033 0.319094 0.878764 0.099775
H54   H     H_    0.493205 0.679088 0.958543 0.107969
C83   C     C_3   0.391181 0.500244 0.914950 0.178989
C84   C     C_3   0.570342 0.500905 0.928041 0.185714
C85   C     C_3   0.461949 0.476836 0.993678 -0.139453
C86   C     C_3   0.500391 0.524802 0.848272 -0.140205
N17   N     N_R   0.342333 0.018165 0.340758 0.227206
O1    O     O_R   0.288164 0.998447 0.242247 -0.438563
O2    O     O_R   0.447962 0.061150 0.385844 -0.386255
N18   N     N_R   0.744807 0.950195 0.751553 0.221106
O3    O     O_R   0.815234 0.001205 0.854830 -0.440988
O4    O     O_R   0.642482 0.890121 0.719373 -0.428413
N19   N     N_R   0.005892 0.697680 0.354975 0.200727
O5    O     O_R   0.980995 0.748809 0.304175 -0.455037
O6    O     O_R   0.074165 0.753967 0.459055 -0.478707
N20   N     N_R   0.898901 0.296615 0.604235 0.188845
O7    O     O_R   0.794900 0.252597 0.539060 -0.414045
O8    O     O_R   0.948395 0.239075 0.591388 -0.474789

loop_
_geom_bond_atom_site_label_1
_geom_bond_atom_site_label_2
_geom_bond_distance
_ccdc_geom_bond_type
C10   C22   1.381035 A    
C8    N20   1.422754 S    
C49   C75   1.403807 A    
C60   C62   1.396541 A    
C80   C83   1.526927 S    
C39   C41   1.396891 A    
N7    Ni4   1.862797 S    
C15   H13   1.076977 S    
C36   C47   1.466373 S    
C6    N6    1.332995 A    
C37   C39   1.397554 A    
H35   C85   1.106469 S    
N17   O1    1.299337 A    
N18   O4    1.301267 A    
N19   O6    1.299812 A    
C25   C77   1.407007 A    
C3    N3    1.336459 A    
C12   C24   1.403861 A    
C56   N18   1.440075 S    
C7    N19   1.427509 S    
C25   C74   1.398274 A    
C1    N1    1.323610 A    
C81   C83   1.529758 S    
N18   O3    1.301600 A    
C13   H11   1.074770 S    
C10   H8    1.079417 S    
N16   Ni4   1.862862 S    
C65   C67   1.391634 A    
C20   C67   1.436995 S    
C79   C81   1.542559 S    
H16   C72   1.081052 S    
C34   H26   1.083449 S    
N7    N11   1.388699 A    
N20   O7    1.302497 A    
C62   C64   1.393648 A    
N2    Ni2   1.858316 S    
C18   C77   1.475093 S    
C11   N11   1.319764 A    
H15   C71   1.082796 S    
N1    Ni1   1.858317 S    
C28   H18   1.081807 S    
C16   N16   1.326107 A    
C32   C42   1.393567 A    
H20   C52   1.078478 S    
C27   C29   1.393652 A    
C5    C21   1.370621 A    
H19   C51   1.082318 S    
H39   C63   1.080130 S    
C6    C22   1.383694 A    
C40   C42   1.401169 A    
C13   C19   1.374914 A    
C26   C78   1.397217 A    
C62   H46   1.082275 S    
C82   H52   1.110061 S    
C24   C45   1.486313 S    
C30   H34   1.081093 S    
C9    N9    1.328163 A    
C4    N4    1.316544 A    
C79   C84   1.533946 S    
C53   C63   1.397960 A    
C66   C68   1.402594 A    
C52   C72   1.400099 A    
C7    C23   1.403859 A    
C57   C59   1.405808 A    
C82   C85   1.528399 S    
C83   C85   1.525653 S    
C80   H54   1.108761 S    
C81   H51   1.110011 S    
C84   C86   1.534612 S    
C31   H23   1.082007 S    
C2    N2    1.339760 A    
C16   H14   1.077837 S    
H36   C86   1.109803 S    
C50   C73   1.476264 S    
N17   O2    1.301236 A    
C58   C60   1.407504 A    
C50   C76   1.402102 A    
C33   H25   1.080435 S    
C22   C84   1.455838 S    
N8    N12   1.388698 A    
C82   C84   1.534011 S    
C27   H17   1.080138 S    
N3    N13   1.383901 A    
C25   H49   1.081500 S    
N5    N9    1.388822 A    
C74   C78   1.401255 A    
C14   N14   1.343547 A    
N6    N10   1.388821 A    
C31   C41   1.396536 A    
C8    C24   1.405520 A    
N3    Ni2   1.866562 S    
C45   C47   1.419614 A    
N19   O5    1.300336 A    
N4    Ni1   1.866563 S    
C12   N12   1.331590 A    
C1    C17   1.386176 A    
C2    C18   1.394353 A    
C66   C69   1.396925 A    
N1    N15   1.383778 A    
C21   C83   1.441335 S    
C1    H1    1.076040 S    
C38   C40   1.396849 A    
N4    N14   1.383902 A    
C13   N13   1.320986 A    
N8    Ni3   1.862799 S    
C59   C61   1.393782 A    
C26   H50   1.079136 S    
C34   C36   1.406238 A    
C9    C21   1.366437 A    
C33   C35   1.401565 A    
N11   Ni1   1.866266 S    
H37   C75   1.083169 S    
C3    H3    1.080985 S    
N12   Ni2   1.866267 S    
C15   C17   1.401269 A    
C16   C18   1.382970 A    
C49   C74   1.473349 S    
C44   H32   1.078858 S    
C79   C85   1.534302 S    
C43   C48   1.375692 A    
C3    C19   1.387060 A    
C54   C56   1.405225 A    
C32   H24   1.082461 S    
C28   C72   1.396655 A    
C53   C55   1.406405 A    
C68   C70   1.411939 A    
C37   H27   1.083079 S    
C19   C68   1.437146 S    
C40   H30   1.078597 S    
C36   C38   1.399916 A    
N14   Ni3   1.875074 S    
C5    H5    1.081979 S    
N15   Ni3   1.862862 S    
N13   Ni4   1.875076 S    
C80   C82   1.539390 S    
C60   H44   1.083399 S    
C43   C45   1.400314 A    
C14   C20   1.375591 A    
C29   H33   1.078603 S    
C80   C86   1.553596 S    
C67   C69   1.408391 A    
C17   C78   1.474359 S    
C31   C33   1.398450 A    
N2    N16   1.383780 A    
C7    N7    1.345648 A    
C57   C70   1.485521 S    
N5    Ni3   1.874787 S    
C4    H4    1.082477 S    
C51   C75   1.398262 A    
C10   N10   1.329301 A    
C8    N8    1.327234 A    
C65   H47   1.085743 S    
C35   C37   1.406225 A    
C54   H42   1.081133 S    
C35   C48   1.479784 S    
C23   C46   1.479981 S    
N6    Ni4   1.874785 S    
C30   C50   1.404617 A    
C54   C64   1.395440 A    
C27   C71   1.396501 A    
C46   C48   1.406297 A    
H38   C76   1.083299 S    
C5    N5    1.333340 A    
C51   C71   1.398134 A    
C55   N17   1.438958 S    
C81   C86   1.556420 S    
C55   C57   1.417185 A    
C79   H53   1.105425 S    
C11   H9    1.071999 S    
C65   C70   1.363457 A    
C15   N15   1.347020 A    
C12   H10   1.069795 S    
C26   C73   1.383389 A    
C29   C49   1.399432 A    
C43   H31   1.068529 S    
C11   C23   1.372756 A    
C44   C47   1.394324 A    
H22   C42   1.078687 S    
C2    H2    1.078821 S    
C14   H12   1.074916 S    
C4    C20   1.358671 A    
C6    H6    1.078880 S    
C9    H7    1.081501 S    
C56   C58   1.421904 A    
C59   H43   1.083658 S    
N9    Ni2   1.858410 S    
C73   C77   1.417355 A    
N10   Ni1   1.858408 S    
C61   C63   1.392483 A    
H21   C41   1.082488 S    
C28   C30   1.396784 A    
C66   H48   1.084347 S    
C32   C34   1.393549 A    
C61   H45   1.082314 S    
C39   H29   1.077519 S    
C44   C46   1.393170 A    
C38   H28   1.082991 S    
C58   C69   1.487434 S    
N20   O8    1.301193 A    
H40   C64   1.082176 S    
C52   C76   1.393783 A    
C53   H41   1.081533 S    
