data_str_m3_o40_o40_f0_fof.sym.28
_audit_creation_date              2012-12-10T16:37:23-0500
_audit_creation_method            fapswitch 2.2
_symmetry_space_group_name_H-M    P1
_symmetry_Int_Tables_number       1
_space_group_crystal_system       triclinic
_cell_length_a                    16.77473
_cell_length_b                    16.661251
_cell_length_c                    16.792711
_cell_angle_alpha                 65.555997
_cell_angle_beta                  65.754455
_cell_angle_gamma                 65.761119
_cell_volume                      3728.53467542

loop_
_atom_site_label
_atom_site_type_symbol
_atom_type_description
_atom_site_fract_x
_atom_site_fract_y
_atom_site_fract_z
_atom_type_partial_charge
C1    C     C_R   0.405041 0.044680 0.656602 -0.240903
C2    C     C_R   0.400615 0.663644 0.050495 -0.244322
C3    C     C_3   0.375457 0.761296 0.141823 -0.852221
C4    C     C_3   0.149042 0.464392 0.177507 -0.826349
C5    C     C_3   0.849903 0.536620 0.822976 -0.829818
C6    C     C_R   0.088356 0.520390 0.312179 -0.231651
C7    C     C_R   0.909398 0.481369 0.687951 -0.231519
C8    C     C_R   0.957907 0.179589 0.439641 0.936011
C9    C     C_R   0.042248 0.820446 0.560305 0.883938
C10   C     C_R   0.179788 0.438531 0.960935 0.915116
C11   C     C_R   0.820234 0.561339 0.039377 0.913978
C12   C     C_R   0.438650 0.959770 0.179860 0.904855
C13   C     C_R   0.561777 0.038267 0.820099 0.904084
C14   C     C_R   0.561502 0.820126 0.039251 0.906799
C15   C     C_R   0.607913 0.908927 0.352114 -0.235604
C16   C     C_R   0.438536 0.179869 0.960752 0.910903
C17   C     C_R   0.017345 0.571161 0.824260 0.929687
C18   C     C_R   0.982333 0.428967 0.175824 0.928283
C19   C     C_R   0.824627 0.017115 0.570576 0.919318
C20   C     C_R   0.179360 0.961516 0.438042 0.910823
C21   C     C_R   0.446418 0.073093 0.694205 0.209291
C22   C     C_R   0.562829 0.896971 0.305053 0.201106
C23   C     C_R   0.104913 0.684687 0.445695 0.201442
C24   C     C_R   0.893624 0.316256 0.554416 0.202309
C25   C     C_R   0.703452 0.438924 0.076212 0.202407
C26   C     C_R   0.093957 0.636511 0.401249 -0.241610
C27   C     C_R   0.296199 0.560504 0.925910 0.205723
C28   C     C_R   0.294397 0.918886 0.560259 0.218001
C29   C     C_R   0.741493 0.917888 0.521454 0.179301
C30   C     C_R   0.559622 0.298520 0.920874 0.218047
C31   C     C_R   0.440239 0.701201 0.080583 0.216541
C32   C     C_R   0.078293 0.472032 0.267660 0.180883
C33   C     C_R   0.920143 0.529212 0.732562 0.179587
C34   C     C_R   0.552072 0.983336 0.557586 0.020278
C35   C     C_R   0.465864 0.945956 0.468382 0.018398
C36   C     C_R   0.008475 0.550765 0.544769 0.013425
C37   C     C_R   0.903598 0.365265 0.598769 -0.234200
C38   C     C_R   0.989152 0.450978 0.455292 0.015576
C39   C     C_R   0.539827 0.539074 0.029941 0.017751
C40   C     C_R   0.459733 0.460193 0.972263 0.017801
C41   C     C_R   0.604872 0.944561 0.484109 0.031630
C42   C     C_R   0.416216 0.968529 0.551483 0.027437
C43   C     C_R   0.956935 0.486482 0.595344 0.030167
C44   C     C_R   0.040509 0.515436 0.404699 0.030569
C45   C     C_R   0.451199 0.585510 0.019291 0.027523
C46   C     C_R   0.548329 0.413710 0.983019 0.027103
C47   C     C_R   0.560500 0.934935 0.433327 0.026754
C48   C     C_R   0.665985 0.400266 0.044896 -0.251514
C49   C     C_R   0.456908 0.998195 0.589609 0.025333
C50   C     C_R   0.412798 0.547875 0.986255 0.028078
C51   C     C_R   0.586686 0.451297 0.016173 0.027678
C52   C     C_R   0.949346 0.434279 0.550819 0.025957
C53   C     C_R   0.048049 0.567643 0.449211 0.026056
C54   C     C_R   0.543308 0.044614 0.673502 0.081332
C55   C     C_R   0.465696 0.920586 0.333579 0.073072
C56   C     C_R   0.064389 0.668900 0.540990 0.084071
C57   C     C_R   0.934549 0.331751 0.459161 0.082759
C58   C     C_R   0.670756 0.535399 0.064595 0.067625
C59   C     C_R   0.333473 0.598928 0.957640 -0.253280
C60   C     C_R   0.329030 0.464160 0.936981 0.067553
C61   C     C_R   0.329349 0.928578 0.464833 0.062612
C62   C     C_R   0.691358 0.978328 0.576853 0.059923
C63   C     C_R   0.463518 0.330508 0.934625 0.069014
C64   C     C_R   0.536360 0.669211 0.066583 0.069700
C65   C     C_R   0.012980 0.422154 0.313826 0.060899
C66   C     C_R   0.985730 0.578770 0.686346 0.059582
C67   C     C_R   0.591980 0.053826 0.721306 -0.133744
C68   C     C_R   0.411227 0.930925 0.280448 -0.134876
C69   C     C_R   0.065031 0.720356 0.590643 -0.130296
C70   C     C_R   0.331522 0.950397 0.598726 -0.241029
C71   C     C_R   0.934694 0.279812 0.409437 -0.142985
C72   C     C_R   0.720412 0.588240 0.064633 -0.127669
C73   C     C_R   0.279577 0.411574 0.936143 -0.128341
C74   C     C_R   0.278854 0.933973 0.410825 -0.135019
C75   C     C_R   0.731741 0.013865 0.610392 -0.112150
C76   C     C_R   0.411266 0.280332 0.934896 -0.136808
C77   C     C_R   0.588764 0.719619 0.065571 -0.136656
C78   C     C_R   0.981016 0.388984 0.270047 -0.118563
C79   C     C_R   0.018366 0.611376 0.730072 -0.119115
C80   C     C_R   0.681399 0.051952 0.680907 -0.315731
C81   C     C_R   0.699687 0.909050 0.469824 -0.234652
C82   C     C_R   0.321418 0.930878 0.321994 -0.306037
C83   C     C_R   0.058617 0.681142 0.681255 -0.311159
C84   C     C_R   0.941155 0.318954 0.318799 -0.307595
C85   C     C_R   0.677071 0.676692 0.070197 -0.311870
C86   C     C_R   0.323029 0.323322 0.930114 -0.310831
C87   C     C_R   0.595292 0.003350 0.601715 -0.015550
C88   C     C_R   0.420245 0.932374 0.421822 -0.010963
C89   C     C_R   0.020122 0.598849 0.590410 -0.019121
C90   C     C_R   0.978205 0.402322 0.409720 -0.013281
C91   C     C_R   0.582372 0.581251 0.053558 -0.014619
C92   C     C_R   0.599020 0.335735 0.951586 -0.243800
C93   C     C_R   0.417351 0.418233 0.948169 -0.015091
C94   C     C_3   0.384695 0.143092 0.745501 -0.854433
C95   C     C_3   0.622380 0.842778 0.237313 -0.844076
C96   C     C_3   0.169537 0.743304 0.389786 -0.867665
C97   C     C_3   0.829723 0.256885 0.610395 -0.870671
C98   C     C_3   0.763635 0.372190 0.137030 -0.833465
C99   C     C_3   0.236580 0.627542 0.864713 -0.839236
C100  C     C_3   0.233588 0.858195 0.626213 -0.843772
C101  C     C_3   0.832454 0.848294 0.527953 -0.808739
C102  C     C_3   0.624667 0.238889 0.859245 -0.854491
H1    H     H_    0.331140 0.065585 0.675179 0.152421
H2    H     H_    0.327825 0.691521 0.059395 0.144463
H3    H     H_    0.139071 0.556973 0.273682 0.146661
H4    H     H_    0.858581 0.444909 0.726495 0.146635
H5    H     H_    0.714254 0.071813 0.710808 0.192844
H6    H     H_    0.281366 0.937275 0.281664 0.199465
H7    H     H_    0.074879 0.712466 0.715756 0.194499
H8    H     H_    0.925400 0.287344 0.284177 0.193479
H9    H     H_    0.715761 0.715955 0.069044 0.197069
H10   H     H_    0.284469 0.284233 0.930736 0.196204
H11   H     H_    0.340127 0.200110 0.704483 0.225544
H12   H     H_    0.681063 0.895991 0.324172 0.146214
H13   H     H_    0.340504 0.110482 0.811615 0.244411
H14   H     H_    0.423384 0.175081 0.757675 0.223951
H15   H     H_    0.672180 0.780754 0.267947 0.220444
H16   H     H_    0.582483 0.816919 0.219539 0.223591
H17   H     H_    0.661322 0.885272 0.174724 0.247174
H18   H     H_    0.234289 0.702768 0.351633 0.223517
H19   H     H_    0.138687 0.805270 0.340112 0.244133
H20   H     H_    0.188701 0.764655 0.432154 0.223570
H21   H     H_    0.764544 0.297105 0.648397 0.222129
H22   H     H_    0.811297 0.234736 0.568098 0.229086
H23   H     H_    0.123038 0.654719 0.328086 0.145509
H24   H     H_    0.860831 0.195380 0.660232 0.246411
H25   H     H_    0.776463 0.406917 0.172606 0.236376
H26   H     H_    0.829355 0.334885 0.096675 0.241241
H27   H     H_    0.728965 0.320608 0.191293 0.219238
H28   H     H_    0.170658 0.664900 0.904776 0.241844
H29   H     H_    0.224269 0.593274 0.828301 0.238216
H30   H     H_    0.271748 0.678895 0.811270 0.212578
H31   H     H_    0.268561 0.803033 0.676718 0.213919
H32   H     H_    0.168301 0.898758 0.663876 0.245704
H33   H     H_    0.220050 0.823176 0.591448 0.225610
H34   H     H_    0.874089 0.347426 0.671880 0.145068
H35   H     H_    0.827999 0.778028 0.544948 0.219469
H36   H     H_    0.884472 0.862391 0.460798 0.260452
H37   H     H_    0.853126 0.846573 0.583497 0.231118
H38   H     H_    0.675006 0.274567 0.804785 0.213138
H39   H     H_    0.662752 0.172393 0.898670 0.246904
H40   H     H_    0.589157 0.226373 0.824332 0.226712
H41   H     H_    0.325107 0.725841 0.196600 0.213209
H42   H     H_    0.411173 0.774084 0.176324 0.228298
H43   H     H_    0.337365 0.827643 0.102226 0.246215
H44   H     H_    0.218365 0.445562 0.183746 0.222648
H45   H     H_    0.694665 0.327383 0.051541 0.150451
H46   H     H_    0.150043 0.409364 0.156051 0.225923
H47   H     H_    0.137371 0.531954 0.124528 0.259983
H48   H     H_    0.780362 0.555794 0.817101 0.222427
H49   H     H_    0.861673 0.468882 0.875695 0.261269
H50   H     H_    0.849399 0.591344 0.844516 0.225447
H51   H     H_    0.304743 0.671778 0.951149 0.149406
H52   H     H_    0.299909 0.948951 0.669809 0.148001
H53   H     H_    0.741280 0.865075 0.426111 0.147435
H54   H     H_    0.671779 0.307829 0.942882 0.144903
O1    O     O_R   0.982940 0.138950 0.510160 -0.607078
O2    O     O_R   0.982940 0.510160 0.138950 -0.620030
O3    O     O_R   0.861050 0.017060 0.489840 -0.623375
O4    O     O_R   0.138950 0.982940 0.510160 -0.613378
O5    O     O_R   0.867700 0.025880 0.612340 -0.637031
O6    O     O_R   0.132300 0.974120 0.387660 -0.628044
O7    O     O_R   0.025880 0.612340 0.867700 -0.637621
O8    O     O_R   0.974120 0.387660 0.132300 -0.637124
O9    O     O_R   0.612340 0.867700 0.025880 -0.628524
O10   O     O_R   0.387660 0.132300 0.974120 -0.626535
O11   O     O_R   0.387660 0.974120 0.132300 -0.628316
O12   O     O_R   0.017060 0.861050 0.489840 -0.631224
O13   O     O_R   0.612340 0.025880 0.867700 -0.623444
O14   O     O_R   0.132300 0.387660 0.974120 -0.623545
O15   O     O_R   0.867700 0.612340 0.025880 -0.624485
O16   O     O_R   0.974120 0.132300 0.387660 -0.615948
O17   O     O_R   0.025880 0.867700 0.612340 -0.631039
O18   O     O_R   0.138950 0.510160 0.982940 -0.633168
O19   O     O_R   0.861050 0.489840 0.017060 -0.633346
O20   O     O_R   0.510160 0.982940 0.138950 -0.610837
O21   O     O_R   0.489840 0.017060 0.861050 -0.612454
O22   O     O_R   0.489840 0.861050 0.017060 -0.612123
O23   O     O_R   0.510160 0.138950 0.982940 -0.612158
O24   O     O_R   0.017060 0.489840 0.861050 -0.618400
Zn1   Zn    Zn3+2 0.004880 0.004880 0.583590 0.925546
Zn2   Zn    Zn3+2 0.995120 0.995120 0.416410 0.924469
Zn3   Zn    Zn3+2 0.004880 0.583590 0.004880 0.916472
Zn4   Zn    Zn3+2 0.995120 0.416410 0.995120 0.919419
Zn5   Zn    Zn3+2 0.583590 0.004880 0.004880 0.926257
Zn6   Zn    Zn3+2 0.416410 0.995120 0.995120 0.927435

loop_
_geom_bond_atom_site_label_1
_geom_bond_atom_site_label_2
_ccdc_geom_bond_type
C36   C89   A    
C10   O18   A    
C39   C51   A    
C1    C21   A    
C64   C77   A    
C6    C32   A    
C17   C79   S    
C40   C93   A    
C35   C47   A    
C12   O11   A    
C72   C85   A    
C101  H37   S    
O20   Zn5   S    
C95   H15   S    
C101  H36   S    
C11   O15   A    
C4    H47   S    
C12   C68   S    
C80   H5    S    
C27   C99   S    
C5    H50   S    
C99   H30   S    
C18   O2    A    
C50   C59   A    
O15   Zn3   S    
C9    C69   S    
O6    Zn2   S    
C97   H22   S    
C27   C60   A    
C13   C67   S    
C54   C87   A    
C10   C73   S    
C13   O21   A    
C43   C52   A    
C23   C26   A    
C46   C92   A    
C21   C94   S    
C4    H46   S    
C48   H45   S    
C60   C73   A    
C42   C70   A    
C23   C96   S    
C19   O5    A    
C14   C77   S    
C55   C88   A    
C35   C42   A    
C36   C53   A    
C17   O7    A    
C18   O8    A    
C44   C53   A    
C15   C22   A    
C16   O10   A    
C24   C57   A    
C8    C71   S    
C5    C33   S    
C83   H7    S    
C69   C83   A    
C9    O17   A    
C102  H39   S    
C82   H6    S    
C58   C91   A    
C1    H1    S    
C100  H33   S    
C39   C45   A    
C60   C93   A    
C28   C100  S    
C13   O13   A    
C41   C81   A    
C2    C45   A    
C6    C44   A    
C30   C63   A    
C7    C33   A    
C66   C79   A    
C34   C41   A    
O1    Zn1   S    
C74   C82   A    
C8    O1    A    
C39   C91   A    
C94   H11   S    
C100  H32   S    
C33   C66   A    
C55   C68   A    
C66   C89   A    
C48   C51   A    
C95   H16   S    
C59   H51   S    
C65   C90   A    
C7    H4    S    
C57   C90   A    
C67   C80   A    
O7    Zn3   S    
C24   C97   S    
C23   C56   A    
C3    H41   S    
C30   C92   A    
C37   C52   A    
C94   H14   S    
C11   C72   S    
C54   C67   A    
C95   H17   S    
O11   Zn6   S    
C46   C51   A    
O9    Zn5   S    
C5    H48   S    
C2    C31   A    
C26   H23   S    
C70   H52   S    
C40   C46   A    
C38   C44   A    
O8    Zn4   S    
C61   C88   A    
O16   Zn2   S    
O10   Zn6   S    
C35   C88   A    
C25   C98   S    
C2    H2    S    
C18   C78   S    
C4    H44   S    
C30   C102  S    
C24   C37   A    
C41   C47   A    
C37   H34   S    
C20   C74   S    
C92   H54   S    
C102  H38   S    
C57   C71   A    
C14   O9    A    
C3    C31   S    
C25   C48   A    
C4    C32   S    
C8    O16   A    
C29   C101  S    
C96   H19   S    
C17   O24   A    
C56   C89   A    
C29   C81   A    
C3    H43   S    
O12   Zn2   S    
C20   O6    A    
C62   C75   A    
C25   C58   A    
C12   O20   A    
C26   C53   A    
C76   C86   A    
O4    Zn1   S    
C100  H31   S    
C14   O22   A    
C71   C84   A    
C75   C80   A    
C7    C43   A    
C63   C93   A    
C29   C62   A    
C98   H25   S    
C34   C49   A    
C101  H35   S    
C65   C78   A    
C99   H28   S    
O14   Zn4   S    
C16   C76   S    
C31   C64   A    
C96   H18   S    
C9    O12   A    
C28   C70   A    
C3    H42   S    
C97   H24   S    
C85   H9    S    
C81   H53   S    
O18   Zn3   S    
C94   H13   S    
C16   O23   A    
C22   C55   A    
O23   Zn5   S    
C96   H20   S    
C61   C74   A    
C10   O14   A    
C62   C87   A    
C38   C90   A    
C11   O19   A    
C5    H49   S    
C99   H29   S    
C19   O3    A    
C19   C75   S    
C68   C82   A    
C97   H21   S    
C27   C59   A    
C28   C61   A    
C79   C83   A    
C58   C72   A    
C21   C54   A    
C45   C50   A    
C77   C85   A    
C40   C50   A    
C98   H27   S    
C98   H26   S    
C6    H3    S    
C34   C87   A    
O17   Zn1   S    
O3    Zn2   S    
O5    Zn1   S    
C84   H8    S    
C73   C86   A    
C36   C43   A    
O21   Zn6   S    
C42   C49   A    
O13   Zn5   S    
O22   Zn6   S    
C22   C95   S    
C78   C84   A    
C86   H10   S    
C38   C52   A    
C56   C69   A    
C20   O4    A    
C63   C76   A    
C32   C65   A    
C15   C47   A    
C102  H40   S    
C64   C91   A    
C1    C49   A    
O24   Zn4   S    
O2    Zn3   S    
C15   H12   S    
O19   Zn4   S    
