data_str_m3_o5_o28_f0_pcu.sym.98
_audit_creation_date              2013-03-05T16:48:18-0500
_audit_creation_method            fapswitch 2.2
_symmetry_space_group_name_H-M    P1
_symmetry_Int_Tables_number       1
_space_group_crystal_system       triclinic
_cell_length_a                    23.49098
_cell_length_b                    8.91424
_cell_length_c                    8.120239
_cell_angle_alpha                 89.725052
_cell_angle_beta                  89.94577
_cell_angle_gamma                 89.607224
_cell_volume                      1700.35218175

loop_
_atom_site_label
_atom_site_type_symbol
_atom_site_description
_atom_site_fract_x
_atom_site_fract_y
_atom_site_fract_z
_atom_type_partial_charge
O1    O     O_R   0.500000 0.285350 0.636850 -0.618156
O2    O     O_R   0.500000 0.714650 0.363150 -0.614058
O3    O     O_R   0.500000 0.714650 0.636850 -0.618026
O4    O     O_R   0.500000 0.285350 0.363150 -0.612478
C1    C     C_R   0.500066 0.218087 0.500248 0.938187
C2    C     C_R   0.500015 0.781913 0.499750 0.932823
O5    O     O_R   0.416160 0.500000 0.636910 -0.604313
O6    O     O_R   0.583840 0.500000 0.363090 -0.594381
O7    O     O_R   0.583840 0.500000 0.636910 -0.640849
O8    O     O_R   0.416160 0.500000 0.363090 -0.596975
C3    C     C_R   0.206875 0.501121 0.473365 0.282512
C4    C     C_R   0.791183 0.453782 0.478537 0.280282
C5    C     C_R   0.388773 0.502870 0.499619 0.914167
C6    C     C_R   0.610905 0.496754 0.499847 0.902983
Zn1   Zn    Zn3+2 0.500000 0.500000 0.682780 0.987568
Zn2   Zn    Zn3+2 0.500000 0.500000 0.317220 1.005435
C7    C     C_R   0.298202 0.549873 0.347060 -0.006200
C8    C     C_R   0.698208 0.389220 0.374089 0.008058
C9    C     C_R   0.293203 0.470108 0.636019 0.004384
C10   C     C_R   0.707319 0.552201 0.615290 -0.023517
C11   C     C_R   0.325904 0.508622 0.495481 -0.112225
C12   C     C_R   0.672919 0.479344 0.497515 -0.120568
C13   C     C_R   0.876650 0.573640 0.389049 0.544981
C14   C     C_R   0.121399 0.354146 0.492127 0.547817
C15   C     C_R   0.881702 0.331796 0.516224 0.567678
C16   C     C_R   0.115109 0.611987 0.414373 0.570687
N1    N     N_R   0.851544 0.452330 0.460149 -0.325893
N2    N     N_R   0.146236 0.488988 0.459596 -0.325616
C17   C     C_R   0.941472 0.331062 0.507163 -0.062054
C18   C     C_R   0.056097 0.600630 0.391765 -0.063433
C19   C     C_R   0.936355 0.582526 0.379916 -0.063433
C20   C     C_R   0.061676 0.342507 0.498329 -0.063512
C21   C     C_R   0.968887 0.460013 0.442851 -0.078615
C22   C     C_R   0.028859 0.467308 0.443560 -0.079948
C23   C     C_R   0.974259 0.207632 0.564174 0.127278
C24   C     C_R   0.024020 0.718221 0.319779 0.125568
C25   C     C_R   0.964651 0.709012 0.311785 0.039660
C26   C     C_R   0.033821 0.212586 0.559240 0.034689
C27   C     C_1   0.500082 0.065245 0.500354 -0.189051
C28   C     C_1   0.500063 0.934756 0.499638 -0.188952
C29   C     C_R   0.239063 0.535870 0.334246 0.076901
C30   C     C_R   0.757706 0.378339 0.363989 0.065551
C31   C     C_R   0.233173 0.474760 0.625344 0.083065
C32   C     C_R   0.766543 0.538260 0.605204 0.115577
N3    N     N_1   0.500000 0.500000 0.073640 -0.029684
N4    N     N_1   0.500000 0.500000 0.926360 -0.032961
O9    O     O_2   0.843134 0.685013 0.330376 -0.585813
O10   O     O_2   0.155033 0.233196 0.518075 -0.574272
O11   O     O_2   0.853345 0.214782 0.582059 -0.537313
O12   O     O_2   0.141521 0.744799 0.393995 -0.535315
N5    N     N_3   0.947260 0.075943 0.629478 -0.374852
H1    H     H_    0.960933 0.982839 0.561970 0.193006
H2    H     H_    0.960122 0.061332 0.751799 0.204941
N6    N     N_3   0.051861 0.845532 0.247281 -0.379373
H3    H     H_    0.035629 0.943138 0.301145 0.197802
H4    H     H_    0.042238 0.848647 0.121597 0.199043
N7    N     N_3   0.934926 0.830878 0.232677 -0.467353
H5    H     H_    0.909181 0.886480 0.318142 0.251004
H6    H     H_    0.910949 0.789844 0.134531 0.238642
N8    N     N_3   0.064296 0.086223 0.626683 -0.463620
H7    H     H_    0.090389 0.121929 0.722859 0.234258
H8    H     H_    0.088231 0.034314 0.534438 0.268992
N9    N     N_3   0.211020 0.549897 0.178638 -0.440038
H9    H     H_    0.226938 0.464675 0.103636 0.162478
H10   H     H_    0.220420 0.654237 0.126549 0.207322
N10   N     N_3   0.785088 0.293536 0.236357 -0.437487
H11   H     H_    0.772584 0.337098 0.122169 0.188083
H12   H     H_    0.771966 0.181995 0.244840 0.208272
N11   N     N_3   0.197444 0.454081 0.766406 -0.449783
H13   H     H_    0.205914 0.540555 0.848604 0.183812
H14   H     H_    0.205668 0.349305 0.819907 0.206283
N12   N     N_3   0.802605 0.611900 0.721606 -0.440055
H15   H     H_    0.792044 0.573779 0.839653 0.204724
H16   H     H_    0.794275 0.727173 0.715748 0.229999
N13   N     N_3   0.330140 0.608252 0.210456 -0.415809
H17   H     H_    0.324732 0.538331 0.109246 0.195873
H18   H     H_    0.314801 0.715460 0.181303 0.193270
N14   N     N_3   0.663154 0.307500 0.261272 -0.427822
H19   H     H_    0.672668 0.341726 0.141136 0.191225
H20   H     H_    0.672302 0.193069 0.273239 0.185863
N15   N     N_3   0.321454 0.422274 0.784747 -0.424695
H21   H     H_    0.293445 0.410533 0.883113 0.159023
H22   H     H_    0.338399 0.315398 0.763061 0.199715
N16   N     N_3   0.683489 0.645083 0.742122 -0.456499
H23   H     H_    0.660250 0.577916 0.823340 0.217581
H24   H     H_    0.656536 0.725213 0.688330 0.197933

loop_
_geom_bond_atom_site_label_1
_geom_bond_atom_site_label_2
_geom_bond_distance
_ccdc_geom_bond_type
N10   H12   1.044944 S    
N9    H10   1.044816 S    
O7    C6    1.281606 A    
O3    C2    1.261949 A    
N15   H21   1.039706 S    
N3    N4    1.195948 T    
O1    C1    1.263449 A    
C24   C25   1.399198 A    
C9    C11   1.417214 A    
N16   H24   1.045578 S    
C16   O12   1.349811 S    
N14   H20   1.045099 S    
N7    H6    1.045318 S    
C17   C21   1.418658 A    
N8    H8    1.044165 S    
N11   H14   1.045082 S    
C4    C30   1.396613 A    
C10   C32   1.398291 A    
C32   N12   1.434244 S    
C19   C21   1.421905 A    
C3    C31   1.398766 A    
O1    Zn1   1.951207 S    
C20   C26   1.420700 A    
O2    Zn2   1.951206 S    
O5    Zn1   2.004745 S    
N10   H11   1.045156 S    
O6    Zn2   2.004743 S    
O2    C2    1.263442 A    
N15   H22   1.045660 S    
C9    C31   1.413215 A    
C15   O11   1.349463 S    
C15   C17   1.405873 A    
N6    H4    1.045728 S    
C13   O9    1.348320 S    
C18   C22   1.415567 A    
C4    N1    1.425618 S    
N5    H1    1.045399 S    
C14   O10   1.348175 S    
C23   C26   1.400679 A    
N16   H23   1.044729 S    
N12   H16   1.045579 S    
C27   C28   1.163253 T    
N14   H19   1.045169 S    
O4    C1    1.261931 A    
C10   N16   1.435391 S    
C7    C11   1.416041 A    
C19   C25   1.422252 A    
N8    H7    1.045424 S    
N5    H2    1.045772 S    
C13   C19   1.407186 A    
O4    Zn2   1.947694 S    
N13   H17   1.042242 S    
C14   C20   1.408332 A    
C8    N14   1.436676 S    
C21   C22   1.410777 A    
C5    C11   1.477789 S    
N13   H18   1.045208 S    
C26   N8    1.437025 S    
C10   C12   1.415657 A    
C16   C18   1.402932 A    
C13   N1    1.361113 A    
C1    C27   1.362463 S    
C23   N5    1.437052 S    
C2    C28   1.362486 S    
C29   N9    1.430090 S    
O3    Zn1   1.947693 S    
C30   N10   1.434896 S    
N6    H3    1.045242 S    
O6    C6    1.280253 A    
C8    C12   1.415236 A    
C14   N2    1.364297 A    
N12   H15   1.045684 S    
O8    C5    1.281543 A    
Zn2   N3    1.977928 S    
C15   N1    1.359853 A    
C17   C23   1.415041 A    
C16   N2    1.362859 A    
C18   C24   1.411520 A    
C6    C12   1.464058 S    
C8    C30   1.402730 A    
O7    Zn1   2.004050 S    
C4    C32   1.400146 A    
O8    Zn2   2.004052 S    
N7    H5    1.044726 S    
C3    N2    1.433820 S    
C3    C29   1.393585 A    
N11   H13   1.042402 S    
C7    C29   1.399694 A    
C24   N6    1.437116 S    
N9    H9    1.043065 S    
O5    C5    1.287744 A    
C31   N11   1.431353 S    
C7    N13   1.436104 S    
Zn1   N4    1.977928 S    
C9    N15   1.439965 S    
C25   N7    1.436700 S    
C20   C22   1.419108 A    
