data_str_m9_o6_o16_f0_sra.sym.42
_audit_creation_date              2012-12-11T17:23:11-0500
_audit_creation_method            fapswitch 2.2
_symmetry_space_group_name_H-M    P1
_symmetry_Int_Tables_number       1
_space_group_crystal_system       triclinic
_cell_length_a                    22.417354
_cell_length_b                    7.092629
_cell_length_c                    19.370628
_cell_angle_alpha                 89.839031
_cell_angle_beta                  99.626686
_cell_angle_gamma                 89.88896
_cell_volume                      3036.49935805

loop_
_atom_site_label
_atom_site_type_symbol
_atom_type_description
_atom_site_fract_x
_atom_site_fract_y
_atom_site_fract_z
_atom_type_partial_charge
O1    O     O_R   0.443980 0.494320 0.557430 -0.532727
O2    O     O_R   0.556020 0.994320 0.442570 -0.521936
O3    O     O_R   0.441210 0.822520 0.414610 -0.533277
O4    O     O_R   0.558790 0.322520 0.585390 -0.547648
C1    C     C_R   0.427202 0.655733 0.388145 0.808355
C2    C     C_R   0.573173 0.154657 0.611559 0.794844
O5    O     O_R   0.436920 0.823940 0.555180 -0.519287
O6    O     O_R   0.563080 0.323940 0.444820 -0.539246
O7    O     O_R   0.551700 0.995760 0.584140 -0.521546
O8    O     O_R   0.448300 0.495760 0.415860 -0.524710
C3    C     C_R   0.421671 0.655279 0.574928 0.726628
C4    C     C_R   0.578365 0.155286 0.425133 0.753867
O9    O     O_3   0.537660 0.661290 0.509340 -0.382978
O10   O     O_3   0.462340 0.161290 0.490660 -0.368401
V1    V     V_3+5 0.493010 0.935560 0.498270 1.601075
V2    V     V_3+5 0.506990 0.435560 0.501730 1.537798
C5    C     C_R   0.747634 0.940807 0.201702 0.375012
C6    C     C_R   0.252141 0.440254 0.798223 0.453167
C7    C     C_R   0.791092 0.085717 0.201986 -0.083907
C8    C     C_R   0.208814 0.586070 0.797964 -0.088626
C9    C     C_R   0.790339 0.239575 0.246985 -0.127772
C10   C     C_R   0.209728 0.740745 0.753063 -0.144386
H1    H     H_    0.823518 0.350785 0.248018 0.183647
H2    H     H_    0.176660 0.852686 0.752088 0.186434
C11   C     C_R   0.747204 0.252349 0.291243 -0.116210
C12   C     C_R   0.252901 0.753429 0.708845 -0.099150
H3    H     H_    0.747836 0.373725 0.325216 0.160865
H4    H     H_    0.252388 0.875406 0.674928 0.165971
C13   C     C_R   0.703840 0.110843 0.292191 -0.036225
C14   C     C_R   0.296168 0.611112 0.707892 -0.047991
C15   C     C_R   0.703836 0.952547 0.246964 0.319530
C16   C     C_R   0.296015 0.452042 0.753059 0.310185
C17   C     C_1   0.837194 0.078687 0.156856 0.134676
C18   C     C_1   0.162716 0.579141 0.843080 0.137948
C19   C     C_1   0.660141 0.131158 0.339924 0.012943
C20   C     C_1   0.339922 0.631361 0.660200 0.039561
C21   C     C_1   0.623304 0.144707 0.379212 -0.104729
C22   C     C_1   0.376774 0.644797 0.620915 -0.076453
C23   C     C_1   0.875623 0.071292 0.119408 -0.104390
C24   C     C_1   0.124319 0.571579 0.880553 -0.120589
C25   C     C_R   0.629645 0.065088 0.804697 0.318902
C26   C     C_R   0.369809 0.620294 0.192691 0.301098
H5    H     H_    0.714794 0.071672 0.921775 0.161444
H6    H     H_    0.283137 0.647228 0.077568 0.169720
C27   C     C_R   0.614616 0.141472 0.679916 -0.366972
C28   C     C_R   0.385126 0.647175 0.320105 -0.355887
C29   C     C_R   0.909941 0.062125 0.760067 -0.358990
C30   C     C_R   0.091389 0.527091 0.239261 -0.357192
C31   C     C_R   0.873186 0.037005 0.694736 0.412233
C32   C     C_R   0.129324 0.486105 0.302686 0.412292
C33   C     C_R   0.810201 0.027349 0.689981 0.437997
C34   C     C_R   0.192265 0.488976 0.306357 0.437792
C35   C     C_R   0.782507 0.070010 0.749462 -0.056002
C36   C     C_R   0.218303 0.561074 0.249137 -0.052936
C37   C     C_R   0.820841 0.075220 0.816352 -0.000651
C38   C     C_R   0.179088 0.583652 0.183314 0.005488
C39   C     C_R   0.718151 0.095375 0.745610 0.026374
C40   C     C_R   0.282045 0.599464 0.253660 0.025395
C41   C     C_R   0.693214 0.074615 0.807882 -0.107889
C42   C     C_R   0.306338 0.611189 0.190630 -0.105697
C43   C     C_R   0.732146 0.071518 0.872899 -0.095168
C44   C     C_R   0.266660 0.623390 0.126265 -0.108509
C45   C     C_R   0.794514 0.079006 0.877035 -0.107279
C46   C     C_R   0.204391 0.616659 0.123013 -0.129407
C47   C     C_R   0.678580 0.150868 0.683207 0.253645
C48   C     C_R   0.321302 0.638600 0.317997 0.246577
C49   C     C_R   0.590477 0.099054 0.741107 0.333208
C50   C     C_R   0.409067 0.639984 0.257097 0.398387
C51   C     C_R   0.884780 0.071521 0.821153 -0.118972
C52   C     C_R   0.115416 0.566085 0.178819 -0.120517
H7    H     H_    0.958749 0.061952 0.763865 0.135403
H8    H     H_    0.042765 0.515055 0.235762 0.135060
H9    H     H_    0.822075 0.082186 0.928577 0.107740
H10   H     H_    0.176171 0.632972 0.072208 0.105002
O11   O     O_R   0.051730 0.724670 0.084120 -0.536675
O12   O     O_R   0.948270 0.224670 0.915880 -0.534869
O13   O     O_R   0.063080 0.393540 0.944820 -0.527172
O14   O     O_R   0.936920 0.893540 0.055180 -0.523330
C53   C     C_R   0.078289 0.562191 0.925045 0.693913
C54   C     C_R   0.921702 0.062118 0.074948 0.697603
O15   O     O_R   0.058800 0.395030 0.085390 -0.538745
O16   O     O_R   0.941200 0.895030 0.914610 -0.537156
O17   O     O_R   0.943980 0.223310 0.057440 -0.534869
O18   O     O_R   0.056020 0.723310 0.942560 -0.536368
C55   C     C_R   0.073031 0.563008 0.111326 0.719989
C56   C     C_R   0.926933 0.063917 0.888745 0.722082
O19   O     O_3   0.962360 0.556290 0.990650 -0.365564
O20   O     O_3   0.037640 0.056290 0.009350 -0.371704
V3    V     V_3+5 0.006980 0.281990 0.001730 1.482350
V4    V     V_3+5 0.993020 0.781990 0.998270 1.491587
O21   O     O_3   0.662234 0.808160 0.245406 -0.571391
H11   H     H_    0.635160 0.830627 0.279906 0.337325
O22   O     O_3   0.337555 0.306978 0.754669 -0.556913
H12   H     H_    0.364758 0.329868 0.720348 0.340664
O23   O     O_3   0.778505 0.953719 0.628818 -0.583914
H13   H     H_    0.743383 0.883072 0.640483 0.295896
O24   O     O_3   0.225883 0.398604 0.363119 -0.581901
H14   H     H_    0.261842 0.341430 0.347753 0.297706
O25   O     O_3   0.897851 0.008275 0.634871 -0.597656
H15   H     H_    0.942539 0.017437 0.646659 0.295955
O26   O     O_3   0.106095 0.428416 0.360957 -0.597189
H16   H     H_    0.061270 0.431885 0.350110 0.295590
S1    S     S_3+6 0.748470 0.746404 0.143790 0.066203
O27   O     O_2   0.809807 0.654768 0.158028 -0.340977
O28   O     O_2   0.701429 0.600852 0.151742 -0.250291
O29   O     O_3   0.736506 0.826648 0.060840 -0.488348
H17   H     H_    0.697116 0.893293 0.055395 0.350742
S2    S     S_3+6 0.251066 0.244978 0.856049 0.054760
O30   O     O_2   0.189375 0.156321 0.842395 -0.375693
O31   O     O_2   0.297694 0.098231 0.847427 -0.241700
O32   O     O_3   0.264370 0.325381 0.938794 -0.495133
H18   H     H_    0.255667 0.217296 0.968021 0.364208
S3    S     S_3+6 0.510645 0.082615 0.738650 0.101576
O33   O     O_2   0.490991 0.886194 0.716912 -0.313779
O34   O     O_2   0.493772 0.121291 0.809200 -0.219496
O35   O     O_3   0.473058 0.235997 0.680771 -0.506772
H19   H     H_    0.485047 0.362089 0.700110 0.330736
S4    S     S_3+6 0.488777 0.659571 0.259088 0.083200
O36   O     O_2   0.505053 0.676421 0.187140 -0.218046
O37   O     O_2   0.511737 0.830879 0.300605 -0.355453
O38   O     O_3   0.522743 0.467045 0.298442 -0.500395
H20   H     H_    0.566639 0.492475 0.302658 0.360773
O39   O     O_3   0.604503 0.017707 0.862776 -0.560512
H21   H     H_    0.630382 0.920763 0.889976 0.315916
O40   O     O_3   0.394587 0.608756 0.132247 -0.556190
H22   H     H_    0.371610 0.513766 0.101171 0.326459
O41   O     O_3   0.703782 0.225702 0.628597 -0.612723
H23   H     H_    0.672068 0.275653 0.591432 0.288409
O42   O     O_3   0.295574 0.684176 0.376030 -0.608394
H24   H     H_    0.326681 0.726280 0.415201 0.283663

loop_
_geom_bond_atom_site_label_1
_geom_bond_atom_site_label_2
_ccdc_geom_bond_type
O26   H16   S    
C2    C27   S    
S2    O30   D    
C35   C37   A    
O23   H13   S    
O1    C3    A    
O2    C4    A    
C2    O7    A    
O24   H14   S    
O39   H21   S    
C29   C31   A    
C49   S3    S    
O14   V4    S    
O5    C3    A    
O13   V3    S    
C17   C23   T    
C18   C24   T    
C47   O41   S    
C19   C21   T    
O42   H24   S    
C53   O18   A    
O14   C54   A    
C39   C41   A    
O29   H17   S    
C40   C42   A    
C34   O24   S    
O35   H19   S    
C42   C44   A    
C4    C21   S    
C43   C45   A    
S4    O36   D    
C29   C51   A    
C44   C46   A    
O11   V4    S    
C50   S4    S    
C40   C48   A    
O32   H18   S    
C31   C33   A    
C37   C45   A    
C27   C49   A    
C32   C34   A    
C38   C46   A    
C26   O40   S    
O12   V3    S    
S3    O35   S    
C8    C18   S    
C30   C32   A    
C16   O22   S    
O6    V2    S    
C26   C50   A    
O18   V4    S    
C30   H8    S    
C54   O17   A    
C34   C36   A    
S4    O37   D    
O13   C53   A    
C11   C13   A    
O17   V3    S    
C36   C38   A    
C41   C43   A    
C25   C41   A    
C25   C49   A    
C7    C17   S    
C30   C52   A    
O21   H11   S    
C35   C39   A    
O5    V1    S    
C45   H9    S    
H6    C44   S    
O16   C56   A    
C33   C35   A    
S4    O38   S    
O4    V2    S    
C3    C22   S    
C28   C50   A    
C31   O25   S    
O25   H15   S    
O6    C4    A    
C24   C53   S    
S1    O28   D    
O1    V2    S    
O2    V1    S    
C29   H7    S    
O38   H20   S    
C37   C51   A    
C1    C28   S    
O4    C2    A    
O20   V4    S    
C12   C14   A    
C38   C52   A    
C9    H1    S    
C27   C47   A    
O40   H22   S    
C5    C15   A    
C10   H2    S    
O19   V4    S    
C6    C16   A    
C8    C10   A    
C26   C42   A    
O41   H23   S    
O12   C56   A    
O3    V1    S    
H5    C43   S    
O11   C55   A    
S3    O33   D    
C36   C40   A    
C9    C11   A    
C7    C9    A    
C15   O21   S    
C39   C47   A    
O3    C1    A    
C28   C48   A    
C11   H3    S    
O22   H12   S    
C13   C19   S    
C12   H4    S    
O16   V4    S    
S2    O32   S    
C14   C20   S    
C23   C54   S    
C48   O42   S    
O19   V3    S    
O7    V1    S    
O15   V3    S    
C1    O8    A    
C13   C15   A    
O8    V2    S    
C14   C16   A    
C25   O39   S    
C20   C22   T    
C5    C7    A    
S2    O31   D    
S1    O29   S    
C6    C8    A    
C5    S1    S    
C6    S2    S    
O20   V3    S    
C32   O26   S    
C10   C12   A    
O9    V2    S    
S1    O27   D    
C46   H10   S    
O10   V1    S    
C52   C55   S    
O15   C55   A    
C51   C56   S    
C33   O23   S    
S3    O34   D    
