data_str_m3_o7_o10_f0_pcu.sym.227
_audit_creation_date              2012-12-10T21:07:44-0500
_audit_creation_method            fapswitch 2.2
_symmetry_space_group_name_H-M    P1
_symmetry_Int_Tables_number       1
_space_group_crystal_system       triclinic
_cell_length_a                    8.546949
_cell_length_b                    17.721905
_cell_length_c                    16.889184
_cell_angle_alpha                 93.033533
_cell_angle_beta                  95.961151
_cell_angle_gamma                 90.331683
_cell_volume                      2540.61207237

loop_
_atom_site_label
_atom_site_type_symbol
_atom_type_description
_atom_site_fract_x
_atom_site_fract_y
_atom_site_fract_z
_atom_type_partial_charge
C1    C     C_R   0.499807 0.353080 0.497839 0.911007
C2    C     C_R   0.499948 0.646924 0.502228 0.935146
C3    C     C_1   0.508417 0.966867 0.502069 -0.070884
C4    C     C_1   0.492730 0.033225 0.499659 -0.070698
C5    C     C_R   0.387677 0.458184 0.824357 -0.115522
C6    C     C_R   0.621997 0.530375 0.173841 -0.140952
C7    C     C_R   0.382864 0.463249 0.740201 0.045697
C8    C     C_R   0.621969 0.531420 0.258344 0.060400
C9    C     C_R   0.621443 0.533264 0.755555 -0.029733
C10   C     C_R   0.375576 0.468236 0.245342 -0.046561
C11   C     C_R   0.629210 0.532627 0.839943 -0.042347
C12   C     C_R   0.368329 0.465523 0.160779 -0.043736
C13   C     C_R   0.508025 0.495923 0.875602 -0.008045
C14   C     C_R   0.495302 0.496034 0.123780 0.008343
C15   C     C_1   0.504101 0.495685 0.963420 -0.057378
C16   C     C_1   0.496903 0.495328 0.035740 -0.061338
C17   C     C_R   0.202547 0.496268 0.480637 0.959533
C18   C     C_R   0.797403 0.503979 0.519346 0.975345
C19   C     C_2   0.041996 0.480463 0.474780 -0.208677
C20   C     C_2   0.957870 0.520048 0.525025 -0.135196
C21   C     C_R   0.501827 0.854206 0.577906 -0.031912
C22   C     C_R   0.499652 0.145544 0.423395 -0.033573
C23   C     C_R   0.492956 0.774614 0.578681 -0.052498
C24   C     C_R   0.508183 0.225100 0.422244 -0.050406
C25   C     C_R   0.505340 0.730124 0.506918 -0.129688
C26   C     C_R   0.494163 0.269891 0.493550 -0.113646
C27   C     C_R   0.530077 0.765639 0.437027 -0.199278
C28   C     C_R   0.467861 0.234696 0.563451 -0.243697
C29   C     C_R   0.542227 0.843574 0.436123 0.027308
C30   C     C_R   0.456737 0.156738 0.564840 0.045452
C31   C     C_R   0.523417 0.887449 0.505996 -0.004180
C32   C     C_R   0.477306 0.112593 0.495362 -0.003653
H1    H     H_    0.543679 0.732556 0.382411 0.211892
H2    H     H_    0.452371 0.268044 0.617680 0.158666
H3    H     H_    0.713175 0.561420 0.728243 0.135776
H4    H     H_    0.281964 0.442770 0.273635 0.130233
N1    N     N_R   0.500040 0.500030 0.707230 -0.140418
N2    N     N_R   0.499960 0.499970 0.292770 -0.127095
O1    O     O_R   0.500000 0.389130 0.566570 -0.647968
O2    O     O_R   0.500000 0.610870 0.433430 -0.576141
O3    O     O_R   0.499990 0.389100 0.433480 -0.620739
O4    O     O_R   0.500010 0.610900 0.566520 -0.627121
O5    O     O_R   0.271750 0.500010 0.550980 -0.603068
O6    O     O_R   0.728250 0.499990 0.449020 -0.613484
O7    O     O_R   0.271740 0.499980 0.417890 -0.649959
O8    O     O_R   0.728260 0.500020 0.582110 -0.628455
Zn1   Zn    Zn3+2 0.500010 0.500020 0.588860 0.972456
Zn2   Zn    Zn3+2 0.499990 0.499980 0.411140 0.985859
C33   C     C_2   0.991587 0.407433 0.431793 0.313579
H5    H     H_    0.041157 0.389835 0.377202 0.049595
O9    O     O_2   0.903052 0.364421 0.460080 -0.587098
C34   C     C_2   0.008168 0.593138 0.567939 0.395314
H6    H     H_    0.957687 0.611010 0.622193 0.052610
O10   O     O_2   0.097681 0.635899 0.539970 -0.599819
C35   C     C_2   0.491539 0.904144 0.651523 0.380989
H7    H     H_    0.552204 0.958421 0.658215 0.090360
O11   O     O_2   0.412398 0.886779 0.704016 -0.577658
C36   C     C_2   0.510883 0.095357 0.350061 0.378108
H8    H     H_    0.450037 0.041132 0.343346 0.088206
O12   O     O_2   0.590887 0.112495 0.297829 -0.577840
C37   C     C_R   0.476615 0.740276 0.655346 0.198116
C38   C     C_R   0.607997 0.737139 0.712046 -0.146971
C39   C     C_R   0.589184 0.717469 0.789404 -0.135847
C40   C     C_R   0.440358 0.697706 0.809824 -0.095906
C41   C     C_R   0.309426 0.699455 0.753170 -0.135467
C42   C     C_R   0.326957 0.722364 0.676650 -0.008894
H9    H     H_    0.723461 0.753327 0.697304 0.115941
H10   H     H_    0.690238 0.718626 0.833435 0.144866
H11   H     H_    0.425870 0.682048 0.869688 0.118138
H12   H     H_    0.193773 0.685675 0.769363 0.125820
H13   H     H_    0.223740 0.730176 0.635550 0.165962
C43   C     C_R   0.525266 0.259121 0.345573 0.198752
C44   C     C_R   0.675173 0.276831 0.324501 -0.008614
C45   C     C_R   0.693369 0.299205 0.247873 -0.162456
C46   C     C_R   0.562872 0.300503 0.190901 -0.101342
C47   C     C_R   0.413891 0.280791 0.211150 -0.129317
C48   C     C_R   0.394347 0.261851 0.288604 -0.145551
H14   H     H_    0.778078 0.269116 0.365833 0.167656
H15   H     H_    0.809265 0.312703 0.231851 0.122712
H16   H     H_    0.577914 0.315476 0.130878 0.114336
H17   H     H_    0.313319 0.278637 0.166891 0.141769
H18   H     H_    0.278768 0.245628 0.303162 0.114211
C49   C     C_R   0.578292 0.877461 0.361555 0.113956
C50   C     C_R   0.480671 0.862507 0.290180 -0.163166
C51   C     C_R   0.518530 0.892151 0.219382 -0.137311
C52   C     C_R   0.654644 0.936199 0.219171 -0.064141
C53   C     C_R   0.752994 0.950827 0.289803 -0.077708
C54   C     C_R   0.714942 0.921805 0.360851 -0.143786
H19   H     H_    0.375379 0.828064 0.289464 0.144799
H20   H     H_    0.442661 0.880719 0.164607 0.134941
H21   H     H_    0.683956 0.958960 0.164288 0.128938
H22   H     H_    0.858508 0.984841 0.289551 0.138331
H23   H     H_    0.792736 0.933118 0.415064 0.135111
C55   C     C_R   0.420236 0.123088 0.639484 0.110493
C56   C     C_R   0.516036 0.139263 0.711210 -0.180470
C57   C     C_R   0.477983 0.109661 0.781992 -0.155994
C58   C     C_R   0.343506 0.064386 0.781834 -0.068751
C59   C     C_R   0.246933 0.048535 0.710861 -0.079833
C60   C     C_R   0.285137 0.077565 0.639845 -0.158499
H24   H     H_    0.620124 0.174600 0.712212 0.144629
H25   H     H_    0.552458 0.122051 0.837033 0.133093
H26   H     H_    0.314060 0.041639 0.836700 0.128834
H27   H     H_    0.142659 0.013583 0.710830 0.139257
H28   H     H_    0.208670 0.065293 0.585370 0.135472
C61   C     C_2   0.281696 0.405141 0.858782 0.384489
H29   H     H_    0.331458 0.368354 0.903538 0.054593
O13   O     O_2   0.140879 0.401501 0.837769 -0.554828
C62   C     C_2   0.753744 0.565550 0.137067 0.313310
H30   H     H_    0.786269 0.542627 0.080503 0.121002
O14   O     O_2   0.825116 0.621049 0.168408 -0.568935
C63   C     C_2   0.255131 0.425270 0.687264 0.545154
H31   H     H_    0.279891 0.378301 0.647157 0.046656
O15   O     O_2   0.120033 0.447211 0.687404 -0.562046
C64   C     C_2   0.759501 0.563310 0.309059 0.607409
H32   H     H_    0.873681 0.537332 0.306424 0.002622
O16   O     O_2   0.748752 0.621206 0.350332 -0.556523
C65   C     C_R   0.768833 0.568297 0.887650 0.086542
C66   C     C_R   0.920766 0.550695 0.867780 -0.115537
C67   C     C_R   0.053124 0.586796 0.908965 -0.116037
C68   C     C_R   0.035159 0.641757 0.969537 -0.124704
C69   C     C_R   0.884841 0.660608 0.988983 -0.106035
C70   C     C_R   0.752216 0.623573 0.948929 -0.194642
H33   H     H_    0.936425 0.509319 0.819896 0.206192
H34   H     H_    0.169487 0.572811 0.893305 0.153688
H35   H     H_    0.137604 0.670120 0.000986 0.136421
H36   H     H_    0.870952 0.703894 0.035287 0.173454
H37   H     H_    0.636867 0.639528 0.964506 0.138837
C71   C     C_R   0.228415 0.428253 0.114379 0.137259
C72   C     C_R   0.246667 0.372490 0.053857 -0.177094
C73   C     C_R   0.116295 0.332372 0.015650 -0.097665
C74   C     C_R   0.966193 0.347151 0.037634 -0.072656
C75   C     C_R   0.946360 0.401659 0.098264 -0.171728
C76   C     C_R   0.076174 0.442496 0.136133 -0.164758
H38   H     H_    0.362705 0.357179 0.038985 0.110676
H39   H     H_    0.132110 0.288802 0.969898 0.135740
H40   H     H_    0.865558 0.315586 0.008552 0.120592
H41   H     H_    0.830337 0.411394 0.116543 0.115203
H42   H     H_    0.058124 0.484303 0.183339 0.135819

loop_
_geom_bond_atom_site_label_1
_geom_bond_atom_site_label_2
_ccdc_geom_bond_type
O6    Zn2   S    
C53   C54   A    
C27   C29   A    
C65   C66   A    
C44   C45   A    
C56   C57   A    
C65   C70   A    
C71   C72   A    
C64   H32   S    
C21   C35   S    
C5    C61   S    
C67   H34   S    
C27   H1    S    
C61   O13   D    
C43   C48   A    
C22   C32   A    
C38   H9    S    
C55   C60   A    
C24   C26   A    
C29   C49   S    
C52   H21   S    
C36   O12   D    
C59   H27   S    
C59   C60   A    
C62   H30   S    
C18   C20   S    
C70   H37   S    
C66   C67   A    
C17   C19   S    
O8    Zn1   S    
C37   C42   A    
C49   C50   A    
C62   O14   D    
C75   C76   A    
C33   O9    D    
C44   H14   S    
N1    Zn1   S    
C46   H16   S    
N2    Zn2   S    
C58   H26   S    
C8    C64   S    
C66   H33   S    
C60   H28   S    
C28   H2    S    
C76   H42   S    
C57   H25   S    
C55   C56   A    
C8    N2    A    
C18   O8    A    
C34   O10   D    
C58   C59   A    
C21   C23   A    
C45   C46   A    
C47   C48   A    
C74   H40   S    
C5    C7    A    
C52   C53   A    
C30   C55   S    
C6    C8    A    
C36   H8    S    
C51   C52   A    
C72   H38   S    
C46   C47   A    
C17   O5    A    
C71   C76   A    
C38   C39   A    
C18   O6    A    
C6    C14   A    
C21   C31   A    
C19   C33   S    
C42   H13   S    
C67   C68   A    
C57   C58   A    
C35   H7    S    
C9    N1    A    
C7    N1    A    
C63   O15   D    
C40   H11   S    
C50   C51   A    
C3    C31   S    
C9    C11   A    
C69   C70   A    
C4    C32   S    
C10   C12   A    
C1    O3    A    
C73   H39   S    
C12   C14   A    
C33   H5    S    
C45   H15   S    
C35   O11   D    
C1    C26   S    
C14   C16   S    
C50   H19   S    
C3    C4    T    
C11   C65   S    
C68   C69   A    
C24   C43   S    
O1    Zn1   S    
C72   C73   A    
O7    Zn2   S    
O2    Zn2   S    
C54   H23   S    
C63   H31   S    
C56   H24   S    
C5    C13   A    
C17   O7    A    
C43   C44   A    
C47   H17   S    
C22   C36   S    
C64   O16   D    
C51   H20   S    
C12   C71   S    
C25   C27   A    
C61   H29   S    
C39   H10   S    
C26   C28   A    
C10   N2    A    
C40   C41   A    
C19   C20   D    
C13   C15   S    
C73   C74   A    
C75   H41   S    
C69   H36   S    
C20   C34   S    
C74   C75   A    
C30   C32   A    
C11   C13   A    
C48   H18   S    
C2    O4    A    
C28   C30   A    
C68   H35   S    
O3    Zn2   S    
C7    C63   S    
C49   C54   A    
C2    C25   S    
C22   C24   A    
O4    Zn1   S    
C23   C25   A    
C37   C38   A    
C1    O1    A    
C39   C40   A    
C2    O2    A    
C23   C37   S    
C29   C31   A    
C41   C42   A    
C9    H3    S    
C6    C62   S    
C10   H4    S    
C41   H12   S    
C53   H22   S    
O5    Zn1   S    
C15   C16   T    
C34   H6    S    
