data_str_m9_o4_o16_f0_sra.sym.85
_audit_creation_date              2012-12-11T17:00:25-0500
_audit_creation_method            fapswitch 2.2
_symmetry_space_group_name_H-M    P1
_symmetry_Int_Tables_number       1
_space_group_crystal_system       triclinic
_cell_length_a                    6.959539
_cell_length_b                    13.550517
_cell_length_c                    20.270512
_cell_angle_alpha                 103.112415
_cell_angle_beta                  90.335597
_cell_angle_gamma                 90.290412
_cell_volume                      1861.70372772

loop_
_atom_site_label
_atom_site_type_symbol
_atom_type_description
_atom_site_fract_x
_atom_site_fract_y
_atom_site_fract_z
_atom_type_partial_charge
O1    O     O_R   0.506770 0.599700 0.449550 -0.540199
O2    O     O_R   0.179980 0.595740 0.587960 -0.546616
O3    O     O_R   0.004580 0.400300 0.550450 -0.534530
C1    C     C_R   0.348593 0.617853 0.615009 0.704331
O4    O     O_R   0.177380 0.611700 0.452380 -0.542200
O5    O     O_R   0.001970 0.416370 0.413900 -0.542596
C2    C     C_R   0.345839 0.638418 0.435703 0.710873
O6    O     O_R   0.509390 0.583630 0.586100 -0.540041
O7    O     O_3   0.337530 0.435890 0.487530 -0.365013
V1    V     V_3+5 0.064660 0.511890 0.502310 1.436680
O8    O     O_R   0.671950 0.404260 0.412040 -0.539984
C3    C     C_R   0.840202 0.382510 0.384866 0.700852
O9    O     O_R   0.674540 0.388300 0.547620 -0.534577
C4    C     C_R   0.843541 0.361880 0.564444 0.712356
V2    V     V_3+5 0.564030 0.488110 0.497690 1.452367
O10   O     O_3   0.841030 0.564110 0.512470 -0.376056
C5    C     C_R   0.908258 0.111681 0.611096 -0.123423
H1    H     H_    0.903184 0.161591 0.517975 0.149983
H2    H     H_    0.942140 0.987327 0.694168 0.114983
H3    H     H_    0.935617 0.033758 0.585489 0.136077
C6    C     C_R   0.854122 0.284809 0.604286 -0.056530
C7    C     C_R   0.820651 0.315371 0.930655 -0.236426
C8    C     C_R   0.797191 0.391138 0.895277 0.469097
C9    C     C_R   0.810293 0.368622 0.824750 -0.192689
C10   C     C_R   0.846818 0.268501 0.787681 0.005917
C11   C     C_R   0.870529 0.191334 0.824554 0.071277
C12   C     C_R   0.858928 0.242116 0.715380 0.101403
C13   C     C_R   0.894063 0.139597 0.681960 0.128728
C14   C     C_R   0.915704 0.065578 0.719327 -0.203692
C15   C     C_R   0.904122 0.090861 0.789411 -0.178350
C16   C     C_R   0.838534 0.313795 0.674808 -0.207154
C17   C     C_R   0.889344 0.184028 0.572542 -0.108120
C18   C     C_R   0.857607 0.216001 0.896107 -0.136296
H4    H     H_    0.813469 0.392976 0.696173 0.103436
H5    H     H_    0.807954 0.333779 0.985357 0.136571
H6    H     H_    0.789592 0.431020 0.800763 0.167195
H7    H     H_    0.921579 0.030578 0.815929 0.103471
C19   C     C_R   0.713694 0.253541 0.202773 0.103176
C20   C     C_R   0.867742 0.187581 0.182920 -0.103530
C21   C     C_R   0.021321 0.192755 0.229225 -0.165098
H8    H     H_    0.142999 0.143154 0.216257 0.127180
C22   C     C_R   0.012956 0.256599 0.294593 -0.163659
H9    H     H_    0.129230 0.254997 0.329925 0.142881
C23   C     C_R   0.850214 0.316676 0.315719 -0.104833
C24   C     C_R   0.705041 0.316367 0.267522 0.100655
C25   C     C_3   0.494769 0.298662 0.272433 -0.410804
C26   C     C_3   0.504158 0.230600 0.201800 -0.400653
H10   H     H_    0.410216 0.368713 0.274630 0.165521
H11   H     H_    0.461109 0.256830 0.312230 0.185278
H12   H     H_    0.425496 0.261403 0.163087 0.173137
H13   H     H_    0.475435 0.149475 0.200594 0.166096
C27   C     C_R   0.500588 0.679358 0.730066 0.051127
C28   C     C_R   0.352485 0.684228 0.684022 -0.106363
C29   C     C_R   0.197297 0.749163 0.707532 -0.167891
H14   H     H_    0.078590 0.754874 0.673999 0.122241
C30   C     C_R   0.198908 0.812141 0.773157 -0.105602
H15   H     H_    0.082496 0.864716 0.788053 0.122853
C31   C     C_R   0.355358 0.811940 0.817331 -0.140323
C32   C     C_R   0.502440 0.742075 0.794974 0.143732
C33   C     C_3   0.713600 0.759779 0.792504 0.245989
C34   C     C_3   0.711550 0.690807 0.721961 -0.454880
H16   H     H_    0.750126 0.840024 0.793451 0.054619
H17   H     H_    0.788543 0.618020 0.718040 0.204890
H18   H     H_    0.745153 0.731179 0.681400 0.136462
C35   C     C_R   0.333983 0.892487 0.390991 0.398793
H19   H     H_    0.328928 0.840062 0.483400 0.138627
H20   H     H_    0.327182 0.018338 0.305091 0.177115
C36   C     C_R   0.352597 0.716308 0.396315 -0.097389
C37   C     C_R   0.370965 0.682630 0.069801 -0.080782
C38   C     C_R   0.373776 0.606465 0.105474 -0.079653
C39   C     C_R   0.367950 0.630378 0.176020 -0.173641
C40   C     C_R   0.358511 0.732477 0.213128 0.103328
C41   C     C_R   0.353059 0.810047 0.176011 0.070358
C42   C     C_R   0.354459 0.760063 0.285603 0.030828
C43   C     C_R   0.341823 0.864399 0.319388 0.057250
C44   C     C_R   0.336290 0.938556 0.281185 -0.145226
C45   C     C_R   0.342316 0.911985 0.211035 -0.214150
C46   C     C_R   0.361631 0.687357 0.325802 -0.216546
C47   C     C_R   0.338009 0.818258 0.428655 -0.206038
C48   C     C_R   0.360189 0.784083 0.104275 -0.103229
H21   H     H_    0.371428 0.607261 0.304171 0.103684
H22   H     H_    0.377977 0.662449 0.014983 0.166900
H23   H     H_    0.371036 0.566843 0.199643 0.108943
H24   H     H_    0.381739 0.528018 0.078226 0.144712
H25   H     H_    0.337700 0.972626 0.184340 0.102578
O11   O     O_R   0.203450 0.916320 0.913910 -0.526769
O12   O     O_R   0.535520 0.888300 0.047620 -0.529894
O13   O     O_R   0.710860 0.083650 0.086100 -0.545092
C49   C     C_R   0.367088 0.861723 0.064391 0.712134
O14   O     O_R   0.532860 0.904250 0.912040 -0.534523
O15   O     O_R   0.708190 0.099710 0.949550 -0.544234
C50   C     C_R   0.364185 0.882802 0.884740 0.728136
O16   O     O_R   0.206120 0.900260 0.050460 -0.533705
O17   O     O_3   0.375280 0.064080 0.012470 -0.386121
V3    V     V_3+5 0.648180 0.988110 0.997690 1.507210
O18   O     O_R   0.038220 0.111740 0.952370 -0.544930
C51   C     C_R   0.869103 0.138182 0.935643 0.699676
O19   O     O_R   0.040880 0.095790 0.087940 -0.551243
C52   C     C_R   0.872964 0.117006 0.115318 0.681055
V4    V     V_3+5 0.148800 0.011950 0.002300 1.466149
O20   O     O_3   0.871820 0.935920 0.987530 -0.339512
Cl1   Cl    Cl    0.839940 0.707542 0.853281 -0.561214
Cl2   Cl    Cl    0.315931 0.019766 0.436178 -0.704854
Cl3   Cl    Cl    0.747000 0.515058 0.939907 -0.602036

loop_
_geom_bond_atom_site_label_1
_geom_bond_atom_site_label_2
_ccdc_geom_bond_type
C35   C47   A    
C1    C28   S    
C1    O6    A    
O14   V3    S    
C28   C29   A    
C23   C24   A    
C7    H5    S    
C6    C16   A    
C25   H11   S    
C9    H6    S    
C4    C6    S    
C13   C14   A    
C27   C34   S    
O5    C3    A    
C19   C20   A    
V2    O10   S    
C5    H3    S    
C30   H15   S    
C33   H16   S    
C48   C49   S    
C34   H17   S    
C19   C24   A    
C37   H22   S    
C2    C36   S    
C29   H14   S    
O14   C50   A    
O12   V3    S    
C8    C9    A    
C38   C39   A    
O1    V2    S    
O11   V4    S    
O7    V1    S    
O8    V2    S    
C36   C47   A    
C21   C22   A    
O13   V3    S    
C45   H25   S    
C32   C33   S    
O9    C4    A    
C49   O16   A    
O17   V3    S    
C22   C23   A    
C33   Cl1   S    
C26   H12   S    
C39   H23   S    
C36   C46   A    
C6    C17   A    
C29   C30   A    
C42   C43   A    
C12   C16   A    
C9    C10   A    
C40   C42   A    
C20   C21   A    
O4    C2    A    
C26   H13   S    
C10   C11   A    
C24   C25   S    
O15   C51   A    
C15   H7    S    
C33   C34   S    
C34   H18   S    
O2    C1    A    
C43   C44   A    
C14   C15   A    
H19   C47   S    
C27   C32   A    
C11   C18   A    
C20   C52   S    
C8    Cl3   S    
O17   V4    S    
O18   C51   A    
C16   H4    S    
C44   C45   A    
O16   V4    S    
C19   C26   S    
O3    C4    A    
C21   H8    S    
C11   C15   A    
O6    V2    S    
O19   V4    S    
O9    V2    S    
H1    C17   S    
C22   H9    S    
C35   Cl2   S    
O2    V1    S    
C38   H24   S    
C27   C28   A    
C7    C18   A    
C25   C26   S    
O1    C2    A    
C5    C13   A    
C40   C41   A    
O5    V1    S    
O8    C3    A    
C10   C12   A    
C35   C43   A    
O12   C49   A    
C31   C32   A    
O4    V1    S    
C3    C23   S    
O3    V1    S    
O11   C50   A    
C46   H21   S    
O18   V4    S    
V4    O20   S    
C41   C48   A    
C30   C31   A    
C18   C51   S    
O7    V2    S    
C37   C38   A    
O13   C52   A    
O15   V3    S    
C25   H10   S    
C39   C40   A    
O19   C52   A    
C42   C46   A    
C12   C13   A    
C5    C17   A    
C41   C45   A    
C7    C8    A    
C37   C48   A    
V1    O10   S    
H20   C44   S    
C31   C50   S    
V3    O20   S    
H2    C14   S    
