data_str_m2_o12_o18_f0_pcu.sym.176
_audit_creation_date              2012-12-10T17:03:56-0500
_audit_creation_method            fapswitch 2.2
_symmetry_space_group_name_H-M    P1
_symmetry_Int_Tables_number       1
_space_group_crystal_system       triclinic
_cell_length_a                    9.767518
_cell_length_b                    11.035343
_cell_length_c                    15.789326
_cell_angle_alpha                 94.9231
_cell_angle_beta                  78.275142
_cell_angle_gamma                 111.519212
_cell_volume                      1550.11289435

loop_
_atom_site_label
_atom_site_type_symbol
_atom_type_description
_atom_site_fract_x
_atom_site_fract_y
_atom_site_fract_z
_atom_type_partial_charge
C1    C     C_R   0.556436 0.745603 0.506104 0.860036
C2    C     C_R   0.443691 0.254402 0.493677 0.867415
C3    C     C_R   0.329301 0.493750 0.083548 -0.253091
C4    C     C_R   0.683752 0.609070 0.924185 -0.251973
C5    C     C_R   0.220341 0.463900 0.032179 0.071625
C6    C     C_R   0.791952 0.642405 0.976626 0.071836
C7    C     C_2   0.588631 0.884998 0.509080 -0.370854
C8    C     C_2   0.411949 0.115039 0.489950 -0.367885
C9    C     C_2   0.484922 0.930532 0.497586 -0.154279
C10   C     C_2   0.516017 0.069556 0.500862 -0.152390
C11   C     C_2   0.924511 0.491778 0.491190 -0.099738
C12   C     C_2   0.078926 0.514026 0.504940 -0.075571
C13   C     C_R   0.408286 0.481603 0.663433 0.790002
C14   C     C_R   0.592102 0.519032 0.336776 0.786246
C15   C     C_R   0.350739 0.469173 0.758422 -0.092773
C16   C     C_R   0.654178 0.547002 0.243411 -0.088134
C17   C     C_R   0.156556 0.417362 0.887355 -0.244833
C18   C     C_R   0.851473 0.643078 0.120912 -0.248792
C19   C     C_R   0.197024 0.415372 0.797003 0.093348
C20   C     C_R   0.808016 0.614953 0.209433 0.088480
C21   C     C_R   0.457756 0.512424 0.812376 -0.267921
C22   C     C_R   0.551093 0.512287 0.187492 -0.269393
C23   C     C_R   0.418499 0.510273 0.903350 0.070474
C24   C     C_R   0.592308 0.551269 0.100538 0.068809
C25   C     C_R   0.264020 0.464343 0.941205 0.099246
C26   C     C_R   0.746532 0.612258 0.065647 0.103771
C27   C     C_R   0.529034 0.549160 0.957334 0.042345
C28   C     C_R   0.483022 0.528931 0.047656 0.040274
Cu1   Cu    Cu3+1 0.362980 0.479380 0.485080 0.923719
Cu2   Cu    Cu3+1 0.637020 0.520620 0.514920 0.917235
H1    H     H_    0.437327 0.452196 0.213235 0.157249
H2    H     H_    0.573130 0.544348 0.781147 0.158577
H3    H     H_    0.038739 0.375603 0.914932 0.146806
H4    H     H_    0.969095 0.693148 0.096373 0.141689
H5    H     H_    0.290899 0.494231 0.152603 0.142830
H6    H     H_    0.724629 0.637771 0.857690 0.136939
H7    H     H_    0.625120 0.135097 0.512536 0.179449
H8    H     H_    0.375837 0.865010 0.485865 0.180330
H9    H     H_    0.303033 0.049250 0.478278 0.149100
H10   H     H_    0.697569 0.950755 0.520730 0.148802
H11   H     H_    0.126540 0.586609 0.552040 0.156808
H12   H     H_    0.879229 0.423276 0.441468 0.157881
H13   H     H_    0.109036 0.379520 0.418573 0.187015
H14   H     H_    0.888537 0.616345 0.584066 0.188543
N1    N     N_2   0.842890 0.551600 0.537350 -0.288849
N2    N     N_2   0.157110 0.448400 0.462650 -0.286037
O1    O     O_R   0.426810 0.668300 0.492040 -0.574529
O2    O     O_R   0.573190 0.331700 0.507960 -0.573122
O3    O     O_R   0.658240 0.703130 0.517240 -0.572842
O4    O     O_R   0.341760 0.296870 0.482760 -0.578279
O5    O     O_R   0.319390 0.472820 0.610170 -0.577299
O6    O     O_R   0.680610 0.527180 0.389830 -0.578641
O7    O     O_R   0.550820 0.507640 0.635370 -0.576285
O8    O     O_R   0.449180 0.492360 0.364630 -0.570134
C29   C     C_3   0.059368 0.435458 0.077687 -0.415902
C30   C     C_3   0.976714 0.289833 0.095460 -0.343185
C31   C     C_3   0.814672 0.262909 0.140381 -0.838401
H15   H     H_    0.810911 0.316157 0.203323 0.250914
H16   H     H_    0.754372 0.294031 0.099003 0.260275
H17   H     H_    0.756961 0.156953 0.152540 0.238620
H18   H     H_    0.977525 0.232942 0.033912 0.215759
H19   H     H_    0.034046 0.256552 0.137636 0.217468
H20   H     H_    0.057303 0.489676 0.140309 0.192929
H21   H     H_    0.999157 0.472367 0.039822 0.193580
C32   C     C_3   0.954708 0.709948 0.934338 -0.418947
C33   C     C_3   0.006488 0.857270 0.952396 -0.336749
C34   C     C_3   0.171407 0.924699 0.913034 -0.848414
H22   H     H_    0.242056 0.886292 0.941660 0.255454
H23   H     H_    0.190283 0.908762 0.841840 0.253584
H24   H     H_    0.205320 0.031063 0.926557 0.242753
H25   H     H_    0.938496 0.899171 0.924064 0.218583
H26   H     H_    0.990347 0.877756 0.023089 0.217013
H27   H     H_    0.027654 0.666203 0.955709 0.189561
H28   H     H_    0.969351 0.694223 0.863028 0.188104
C35   C     C_3   0.929613 0.664084 0.263930 -0.400085
C36   C     C_3   0.925669 0.788515 0.314205 -0.293845
C37   C     C_3   0.042832 0.834998 0.372303 -0.840103
H29   H     H_    0.021321 0.759605 0.420514 0.264893
H30   H     H_    0.156954 0.856450 0.333012 0.245359
H31   H     H_    0.037510 0.925250 0.407388 0.231492
H32   H     H_    0.948406 0.866709 0.267634 0.201750
H33   H     H_    0.813517 0.771958 0.354596 0.228292
H34   H     H_    0.922548 0.586790 0.306818 0.213765
H35   H     H_    0.042091 0.688095 0.221932 0.174437
C38   C     C_3   0.071490 0.345278 0.747548 -0.384598
C39   C     C_3   0.979814 0.430144 0.741543 -0.351739
C40   C     C_3   0.842092 0.354102 0.701903 -0.821519
H36   H     H_    0.875737 0.317705 0.636184 0.258631
H37   H     H_    0.766921 0.270049 0.743176 0.247248
H38   H     H_    0.779258 0.418413 0.697264 0.251444
H39   H     H_    0.941387 0.464388 0.807150 0.212220
H40   H     H_    0.050760 0.516973 0.701749 0.217207
H41   H     H_    0.111537 0.311127 0.682674 0.215655
H42   H     H_    0.996615 0.254249 0.782390 0.183259

loop_
_geom_bond_atom_site_label_1
_geom_bond_atom_site_label_2
_ccdc_geom_bond_type
C40   H36   S    
C4    H6    S    
Cu2   N1    S    
C18   C26   A    
C29   C30   S    
C37   H29   S    
C15   C19   A    
Cu1   Cu2   S    
Cu1   O1    S    
C10   H7    S    
Cu2   O2    S    
C3    C28   A    
C24   C26   A    
C39   H39   S    
C35   H35   S    
C31   H16   S    
Cu1   O8    S    
C32   H27   S    
C30   C31   S    
C11   H12   S    
C2    O4    A    
C13   O5    A    
C38   H41   S    
C6    C32   S    
C14   O6    A    
C29   H20   S    
C7    H10   S    
C8    H9    S    
C23   C27   A    
C9    C10   S    
C30   H19   S    
C33   C34   S    
C17   H3    S    
C19   C38   S    
C21   H2    S    
C13   O7    A    
Cu1   O4    S    
C37   H30   S    
Cu2   O7    S    
C33   H26   S    
C22   H1    S    
C34   H22   S    
C36   C37   S    
C4    C6    A    
C36   H33   S    
C39   C40   S    
C1    O1    A    
C31   H17   S    
C2    O2    A    
C38   C39   S    
C32   H28   S    
C20   C35   S    
C34   H23   S    
C35   C36   S    
C12   H11   S    
C38   H42   S    
C33   H25   S    
C3    H5    S    
C16   C20   A    
C29   H21   S    
C18   H4    S    
C5    C25   A    
C12   N2    D    
C14   O8    A    
Cu2   O3    S    
C13   C15   S    
C22   C24   A    
C11   N1    D    
C4    C27   A    
H14   N1    S    
Cu1   O5    S    
C37   H31   S    
C7    C9    D    
Cu2   O6    S    
C16   C22   A    
C14   C16   S    
C1    C7    S    
C5    C29   S    
C2    C8    S    
C24   C28   A    
C3    C5    A    
C36   H32   S    
C11   C12   S    
Cu1   N2    S    
C34   H24   S    
C17   C25   A    
C21   C23   A    
C39   H40   S    
C35   H34   S    
C31   H15   S    
C6    C26   A    
C9    H8    S    
C17   C19   A    
C18   C20   A    
C23   C25   A    
H13   N2    S    
C15   C21   A    
C8    C10   D    
C32   C33   S    
C40   H38   S    
C27   C28   A    
C40   H37   S    
C30   H18   S    
C1    O3    A    
