data_str_m3_o10_o28_f0_pcu.sym.90
_audit_creation_date              2012-12-10T16:58:32-0500
_audit_creation_method            fapswitch 2.2
_symmetry_space_group_name_H-M    P1
_symmetry_Int_Tables_number       1
_space_group_crystal_system       triclinic
_cell_length_a                    7.745302
_cell_length_b                    8.564791
_cell_length_c                    23.417845
_cell_angle_alpha                 91.010027
_cell_angle_beta                  85.821647
_cell_angle_gamma                 93.726238
_cell_volume                      1545.9329947

loop_
_atom_site_label
_atom_site_type_symbol
_atom_type_description
_atom_site_fract_x
_atom_site_fract_y
_atom_site_fract_z
_atom_type_partial_charge
C1    C     C_R   0.545920 0.794846 0.498508 0.975631
C2    C     C_R   0.334786 0.510910 0.302287 -0.207855
C3    C     C_R   0.668512 0.486697 0.756884 -0.084334
C4    C     C_R   0.331542 0.513734 0.243110 -0.084333
C5    C     C_R   0.513604 0.491774 0.791175 0.299586
C6    C     C_R   0.486463 0.508665 0.208824 0.299565
C7    C     C_2   0.570162 0.958322 0.497646 -0.369963
C8    C     C_2   0.429837 0.041678 0.502354 -0.369969
C9    C     C_R   0.502157 0.499723 0.610638 0.876372
C10   C     C_R   0.497842 0.500292 0.389360 0.876340
C11   C     C_R   0.428003 0.375733 0.120885 0.560652
C12   C     C_R   0.454080 0.205154 0.501492 0.975649
C13   C     C_R   0.572188 0.624689 0.879112 0.560689
C14   C     C_R   0.543923 0.641389 0.119388 0.554654
C15   C     C_R   0.456210 0.359050 0.880610 0.554646
C16   C     C_R   0.553136 0.642327 0.059132 -0.106723
C17   C     C_R   0.447074 0.358094 0.940865 -0.106741
C18   C     C_R   0.496509 0.503331 0.030140 -0.066902
C19   C     C_R   0.503724 0.497082 0.969857 -0.066899
C20   C     C_R   0.432722 0.370055 0.061324 -0.060751
C21   C     C_R   0.567520 0.630355 0.938673 -0.060742
C22   C     C_R   0.617244 0.774833 0.026709 0.420773
C23   C     C_R   0.355440 0.499661 0.766641 -0.081035
C24   C     C_R   0.383010 0.225568 0.973287 0.420777
C25   C     C_R   0.623695 0.767063 0.967267 -0.127156
C26   C     C_R   0.376584 0.233332 0.032731 -0.127150
C27   C     C_R   0.644601 0.500665 0.233363 -0.081047
C28   C     C_R   0.351679 0.502528 0.707589 -0.201045
C29   C     C_R   0.648333 0.497632 0.292414 -0.201065
C30   C     C_R   0.506625 0.497422 0.672736 -0.041559
C31   C     C_R   0.493379 0.502709 0.327263 -0.041590
C32   C     C_R   0.665240 0.489364 0.697709 -0.207889
Cl1   Cl    Cl    0.693399 0.954996 0.056518 -0.504387
Cl2   Cl    Cl    0.306877 0.045396 0.943480 -0.504383
H1    H     H_    0.672984 0.869740 0.943369 0.234811
H2    H     H_    0.209271 0.519707 0.223820 0.142388
H3    H     H_    0.702629 0.009528 0.493152 0.181069
H4    H     H_    0.297371 0.990472 0.506848 0.181069
H5    H     H_    0.014088 0.382787 0.456844 0.191993
H6    H     H_    0.985912 0.617212 0.543156 0.191985
H7    H     H_    0.327323 0.130651 0.056627 0.234819
H8    H     H_    0.235834 0.504130 0.793469 0.146490
H9    H     H_    0.764187 0.496200 0.206531 0.146489
H10   H     H_    0.227744 0.508548 0.689357 0.162681
H11   H     H_    0.772228 0.491507 0.310653 0.162709
H12   H     H_    0.786382 0.485446 0.671669 0.160397
H13   H     H_    0.213660 0.514827 0.328326 0.160411
H14   H     H_    0.790819 0.480816 0.776166 0.142388
N1    N     N_R   0.483820 0.509314 0.148203 -0.372644
N2    N     N_R   0.516281 0.491136 0.851795 -0.372633
N3    N     N_2   0.950330 0.457950 0.484560 -0.175241
N4    N     N_2   0.049670 0.542050 0.515440 -0.175243
O1    O     O_R   0.389250 0.738570 0.503790 -0.610868
O2    O     O_2   0.630056 0.752099 0.848466 -0.509314
O3    O     O_2   0.593969 0.769862 0.149538 -0.460095
O4    O     O_2   0.406118 0.230590 0.850460 -0.460104
O5    O     O_R   0.610750 0.261430 0.496210 -0.610861
O6    O     O_R   0.678390 0.711620 0.493890 -0.628488
O7    O     O_R   0.321610 0.288380 0.506110 -0.628482
O8    O     O_R   0.355400 0.513520 0.588790 -0.620761
O9    O     O_R   0.644600 0.486480 0.411210 -0.620750
O10   O     O_R   0.644550 0.486570 0.578900 -0.629685
O11   O     O_R   0.355450 0.513430 0.421100 -0.629680
O12   O     O_2   0.370165 0.248306 0.151532 -0.509272
Zn1   Zn    Zn3+2 0.306930 0.518000 0.506610 0.951299
Zn2   Zn    Zn3+2 0.693070 0.482000 0.493390 0.951302

loop_
_geom_bond_atom_site_label_1
_geom_bond_atom_site_label_2
_ccdc_geom_bond_type
C2    C4    A    
C4    H2    S    
C1    O6    A    
C11   N1    A    
C2    H13   S    
C27   C29   A    
O1    Zn1   S    
H5    N3    S    
C6    C27   A    
C5    C23   A    
O5    Zn2   S    
C8    C12   S    
C9    O8    A    
C15   O4    S    
C11   C20   A    
C28   C30   A    
C14   O3    S    
C7    H3    S    
N3    Zn2   S    
C13   C21   A    
C7    C8    D    
C29   C31   A    
C1    C7    S    
C23   C28   A    
O7    Zn1   S    
C30   C32   A    
C23   H8    S    
C20   C26   A    
C9    C30   S    
C25   H1    S    
C12   O5    A    
C10   C31   S    
C4    C6    A    
C13   N2    A    
C17   C19   A    
C24   C26   A    
O8    Zn1   S    
C11   O12   S    
C18   C20   A    
C8    H4    S    
C6    N1    S    
C3    C32   A    
O11   Zn1   S    
C14   C16   A    
C5    N2    S    
C14   N1    A    
O10   Zn2   S    
C9    O10   A    
C10   O9    A    
C27   H9    S    
C3    H14   S    
N3    N4    D    
C28   H10   S    
C16   C18   A    
C13   O2    S    
C15   N2    A    
C29   H11   S    
C15   C17   A    
C22   Cl1   S    
C1    O1    A    
C18   C19   A    
C21   C25   A    
C19   C21   A    
H6    N4    S    
C12   O7    A    
C32   H12   S    
O9    Zn2   S    
O6    Zn2   S    
C17   C24   A    
C24   Cl2   S    
N4    Zn1   S    
C10   O11   A    
C26   H7    S    
C16   C22   A    
C2    C31   A    
C3    C5    A    
C22   C25   A    
