data_str_m2_o14_o17_f0_pcu.sym.31
_audit_creation_date              2012-10-26T20:40:14-0400
_audit_creation_method            fapswitch 2.2
_symmetry_space_group_name_H-M    P1
_symmetry_Int_Tables_number       1
_space_group_crystal_system       triclinic
_cell_length_a                    14.974636
_cell_length_b                    10.775969
_cell_length_c                    9.61616
_cell_angle_alpha                 90.02421
_cell_angle_beta                  89.993422
_cell_angle_gamma                 92.339273
_cell_volume                      1550.43005508

loop_
_atom_site_label
_atom_site_type_symbol
_atom_type_description
_atom_site_fract_x
_atom_site_fract_y
_atom_site_fract_z
_atom_type_partial_charge
C1    C     C_R   0.497073 0.262697 0.499947 0.536489
C2    C     C_R   0.183538 0.386944 0.480071 -0.138626
C3    C     C_R   0.232583 0.498655 0.499821 0.006709
C4    C     C_R   0.329064 0.499138 0.499984 0.531961
C5    C     C_R   0.189738 0.610073 0.518961 -0.129354
C6    C     C_R   0.356051 0.122035 0.648869 -0.113888
C7    C     C_R   0.291375 0.053868 0.723977 -0.128757
C8    C     C_R   0.293198 0.925065 0.728472 -0.128748
C9    C     C_R   0.359260 0.863632 0.656931 -0.109248
C10   C     C_R   0.425675 0.930663 0.579847 0.029758
C11   C     C_R   0.424707 0.061815 0.577463 0.026686
C12   C     C_R   0.909545 0.610854 0.520948 0.020235
C13   C     C_R   0.490816 0.128630 0.499636 0.003425
C14   C     C_R   0.552782 0.067068 0.419366 -0.147199
C15   C     C_R   0.552790 0.939068 0.419581 -0.153620
C16   C     C_R   0.497198 0.737117 0.500212 0.522358
C17   C     C_R   0.491325 0.870723 0.501005 0.006541
C18   C     C_R   0.618500 0.664871 0.143808 -0.080922
C19   C     C_R   0.676315 0.745582 0.071789 -0.169407
C20   C     C_R   0.676326 0.745715 0.928503 -0.162282
C21   C     C_R   0.618460 0.665101 0.856297 -0.076138
C22   C     C_R   0.558164 0.581157 0.925276 0.158125
C23   C     C_R   0.946519 0.273872 0.458270 0.256649
C24   C     C_R   0.558170 0.581072 0.074741 0.159346
C25   C     C_R   0.444669 0.422825 0.073796 0.001852
C26   C     C_R   0.444690 0.422854 0.926030 0.002145
C27   C     C_R   0.670825 0.500157 0.500000 0.533286
C28   C     C_R   0.816455 0.610432 0.521814 -0.142433
C29   C     C_R   0.767101 0.499521 0.500097 -0.009317
C30   C     C_R   0.809216 0.387863 0.478652 -0.112169
C31   C     C_R   0.902553 0.385680 0.478915 0.020412
C32   C     C_R   0.952887 0.498184 0.499602 0.016047
C33   C     C_3   0.895932 0.127468 0.304229 -0.014971
C34   C     C_R   0.040141 0.274595 0.460846 -0.121003
C35   C     C_3   0.836063 0.010973 0.287478 -0.375401
C36   C     C_R   0.090256 0.385898 0.479750 -0.029685
C37   C     C_R   0.046576 0.498246 0.499444 0.044829
C38   C     C_R   0.096688 0.610792 0.519507 0.025585
C39   C     C_R   0.053026 0.721912 0.539950 -0.131586
C40   C     C_R   0.959940 0.721881 0.541026 -0.132244
Cu1   Cu    Cu3+1 0.499990 0.499990 0.640660 0.918178
Cu2   Cu    Cu3+1 0.500010 0.500010 0.359340 0.926177
H1    H     H_    0.782188 0.696040 0.538257 0.088285
H2    H     H_    0.721619 0.808714 0.872536 0.122296
H3    H     H_    0.624196 0.672851 0.746702 0.182335
H4    H     H_    0.768789 0.303304 0.462318 0.149404
H5    H     H_    0.399298 0.359512 0.870972 0.113808
H6    H     H_    0.073477 0.187866 0.448305 0.116125
H7    H     H_    0.218144 0.301394 0.465345 0.095911
H8    H     H_    0.228807 0.695974 0.532196 0.095382
H9    H     H_    0.090893 0.808675 0.555597 0.113339
H10   H     H_    0.927344 0.808622 0.557572 0.119744
H11   H     H_    0.602653 0.118629 0.358471 0.124995
H12   H     H_    0.350261 0.221619 0.645188 0.124534
H13   H     H_    0.964064 0.106582 0.266707 0.129421
H14   H     H_    0.868228 0.201967 0.238476 0.132182
H15   H     H_    0.767185 0.029084 0.322797 0.147639
H16   H     H_    0.833909 0.982988 0.176365 0.096316
H17   H     H_    0.862491 0.933914 0.349847 0.154485
H18   H     H_    0.239165 0.101168 0.777881 0.112111
H19   H     H_    0.242478 0.872298 0.786091 0.115198
H20   H     H_    0.356312 0.763524 0.661182 0.145101
H21   H     H_    0.602564 0.893108 0.358548 0.106457
H22   H     H_    0.399263 0.359470 0.128770 0.118607
H23   H     H_    0.624295 0.672458 0.253372 0.178143
H24   H     H_    0.721533 0.808408 0.127985 0.111376
N1    N     N_R   0.500860 0.501210 0.147910 -0.243589
N2    N     N_R   0.500890 0.501290 0.852040 -0.244061
O1    O     O_R   0.499990 0.319640 0.618810 -0.498885
O2    O     O_R   0.500000 0.319660 0.381240 -0.501313
O3    O     O_R   0.370250 0.499960 0.618800 -0.513320
O4    O     O_R   0.370260 0.499980 0.381230 -0.492643
O5    O     O_R   0.500000 0.680340 0.618760 -0.530112
O6    O     O_R   0.500010 0.680360 0.381190 -0.515137
O7    O     O_R   0.629740 0.500020 0.618770 -0.508412
O8    O     O_R   0.629750 0.500040 0.381200 -0.517952
O9    O     O_3   0.898012 0.162415 0.445688 -0.567566

loop_
_geom_bond_atom_site_label_1
_geom_bond_atom_site_label_2
_ccdc_geom_bond_type
C33   H13   S    
C39   H9    S    
C27   C29   S    
Cu1   Cu2   S    
C19   C20   A    
C25   N1    A    
C7    C8    A    
C18   H23   S    
C29   C30   A    
C12   C28   A    
C35   H16   S    
C18   C24   A    
C21   C22   A    
C36   C37   A    
C38   C39   A    
C10   C17   A    
Cu2   O2    S    
C19   H24   S    
C35   H17   S    
C18   C19   A    
C24   N1    A    
C8    C9    A    
C9    C10   A    
C8    H19   S    
Cu1   O3    S    
C33   H14   S    
C13   C14   A    
C12   C32   A    
C6    H12   S    
C27   O7    A    
C20   H2    S    
Cu1   N2    S    
C21   H3    S    
Cu2   O6    S    
C16   O5    A    
C6    C11   A    
C16   C17   S    
C25   C26   A    
C40   H10   S    
C1    O1    A    
C9    H20   S    
C25   H22   S    
C23   C31   A    
C12   C40   A    
C37   C38   A    
C2    H7    S    
Cu1   O7    S    
C31   C32   A    
C23   C34   A    
Cu2   O4    S    
C32   C37   A    
C23   O9    S    
C22   N2    A    
C26   H5    S    
Cu2   N1    S    
C22   C24   A    
C5    H8    S    
C1    C13   S    
C27   O8    A    
C7    H18   S    
C4    O4    A    
Cu1   O1    S    
C2    C36   A    
C15   C17   A    
C28   C29   A    
C30   H4    S    
C3    C5    A    
C6    C7    A    
C16   O6    A    
C28   H1    S    
Cu2   O8    S    
C1    O2    A    
C35   H15   S    
C26   N2    A    
C2    C3    A    
C11   C13   A    
C33   O9    S    
C30   C31   A    
C33   C35   S    
C34   C36   A    
C10   C11   A    
Cu1   O5    S    
C39   C40   A    
C14   H11   S    
C34   H6    S    
C20   C21   A    
C15   H21   S    
C14   C15   A    
C5    C38   A    
C4    O3    A    
C3    C4    S    
