data_str_m4_o12_o15_f0_acs.sym.211
_audit_creation_date              2012-12-11T14:13:18-0500
_audit_creation_method            fapswitch 2.2
_symmetry_space_group_name_H-M    P1
_symmetry_Int_Tables_number       1
_space_group_crystal_system       triclinic
_cell_length_a                    11.601426
_cell_length_b                    18.671431
_cell_length_c                    9.995536
_cell_angle_alpha                 89.998191
_cell_angle_beta                  109.838369
_cell_angle_gamma                 90.003305
_cell_volume                      2036.68957818

loop_
_atom_site_label
_atom_site_type_symbol
_atom_type_description
_atom_site_fract_x
_atom_site_fract_y
_atom_site_fract_z
_atom_type_partial_charge
C1    C     C_R   0.070381 0.647363 0.139351 0.531301
C2    C     C_R   0.929624 0.352639 0.860650 0.531287
C3    C     C_R   0.929631 0.147372 0.860660 0.531258
C4    C     C_R   0.070360 0.852625 0.139337 0.531239
C5    C     C_R   0.420500 0.469045 0.563708 0.034043
C6    C     C_R   0.579515 0.530968 0.436317 0.034061
C7    C     C_R   0.579580 0.969021 0.436441 0.034068
C8    C     C_R   0.420388 0.030984 0.563495 0.034087
C9    C     C_2   0.380662 0.932348 0.941358 0.107881
C10   C     C_2   0.619434 0.067631 0.058491 0.107835
C11   C     C_2   0.619443 0.432400 0.058311 0.107796
C12   C     C_2   0.380559 0.567620 0.941603 0.107902
C13   C     C_2   0.490815 0.961785 0.984904 -0.123649
C14   C     C_2   0.509332 0.038154 0.015096 -0.123791
C15   C     C_2   0.509292 0.461821 0.014981 -0.123815
C16   C     C_2   0.490710 0.538189 0.984790 -0.123833
C17   C     C_2   0.006466 0.921349 0.110853 -0.126356
C18   C     C_2   0.993514 0.078645 0.889139 -0.126316
C19   C     C_2   0.993438 0.421394 0.889041 -0.126254
C20   C     C_2   0.006560 0.578611 0.110946 -0.126213
C21   C     C_2   0.017754 0.962505 0.006105 -0.140329
C22   C     C_2   0.982260 0.037496 0.993910 -0.140311
C23   C     C_2   0.982470 0.462465 0.994061 -0.139872
C24   C     C_2   0.017569 0.537529 0.005965 -0.139902
C25   C     C_R   0.437593 0.637652 0.373962 0.549943
C26   C     C_R   0.562405 0.362351 0.626035 0.549889
C27   C     C_R   0.562381 0.137650 0.626013 0.549918
C28   C     C_R   0.437613 0.862347 0.373973 0.549956
C29   C     C_R   0.372363 0.643503 0.967006 0.574879
C30   C     C_R   0.627655 0.356511 0.032956 0.574887
C31   C     C_R   0.627622 0.143511 0.033028 0.574861
C32   C     C_R   0.372403 0.856476 0.966926 0.574775
C33   C     C_R   0.538404 0.439039 0.586120 -0.034774
C34   C     C_R   0.461597 0.560963 0.413872 -0.034783
C35   C     C_R   0.461631 0.939037 0.413854 -0.034808
C36   C     C_R   0.538344 0.060966 0.586095 -0.034798
C37   C     C_R   0.339553 0.444699 0.633223 -0.066624
C38   C     C_R   0.660473 0.555338 0.366842 -0.066642
C39   C     C_R   0.660611 0.944663 0.367076 -0.066681
C40   C     C_R   0.339346 0.055341 0.632847 -0.066726
C41   C     C_R   0.215140 0.461672 0.580153 -0.134135
C42   C     C_R   0.784896 0.538413 0.419971 -0.134113
C43   C     C_R   0.785021 0.961627 0.420281 -0.134228
C44   C     C_R   0.214933 0.038385 0.579614 -0.134242
C45   C     C_R   0.170984 0.505360 0.461586 -0.105362
C46   C     C_R   0.829039 0.494709 0.538515 -0.105387
C47   C     C_R   0.829104 0.005298 0.538893 -0.105227
C48   C     C_R   0.170871 0.994703 0.461030 -0.105210
C49   C     C_R   0.253211 0.535670 0.403772 -0.065349
C50   C     C_R   0.746792 0.464345 0.596234 -0.065464
C51   C     C_R   0.746798 0.035629 0.596555 -0.065314
C52   C     C_R   0.253179 0.964375 0.403378 -0.065285
C53   C     C_R   0.378835 0.523333 0.462340 -0.001293
C54   C     C_R   0.621175 0.476675 0.537667 -0.001291
C55   C     C_R   0.621179 0.023310 0.537810 -0.001358
C56   C     C_R   0.378792 0.976696 0.462126 -0.001360
Cr1   Cr    Cr6+3 0.187610 0.750000 0.979860 1.023256
Cr2   Cr    Cr6+3 0.812390 0.250000 0.020140 1.023285
Cr3   Cr    Cr6+3 0.245810 0.750000 0.341640 1.037006
Cr4   Cr    Cr6+3 0.754190 0.250000 0.658360 1.037007
Cr5   Cr    Cr6+3 0.485760 0.750000 0.219910 0.996059
Cr6   Cr    Cr6+3 0.514240 0.250000 0.780090 0.996090
H1    H     H_    0.152739 0.439478 0.628803 0.097741
H2    H     H_    0.847300 0.560646 0.371365 0.097793
H3    H     H_    0.847476 0.939433 0.371721 0.097796
H4    H     H_    0.152462 0.060584 0.628148 0.097823
H5    H     H_    0.073861 0.515750 0.415479 0.102530
H6    H     H_    0.926157 0.484340 0.584673 0.102524
H7    H     H_    0.926227 0.015671 0.585130 0.102605
H8    H     H_    0.073757 0.984328 0.414797 0.102619
H9    H     H_    0.370929 0.411679 0.727394 0.140980
H10   H     H_    0.629086 0.588345 0.272639 0.140963
H11   H     H_    0.629296 0.911652 0.272900 0.140957
H12   H     H_    0.370663 0.088340 0.727043 0.140893
H13   H     H_    0.221213 0.563850 0.306105 0.139519
H14   H     H_    0.778778 0.436094 0.693774 0.139645
H15   H     H_    0.778698 0.063841 0.694191 0.139463
H16   H     H_    0.221285 0.936180 0.305732 0.139442
H17   H     H_    0.432378 0.074078 0.996915 0.119840
H18   H     H_    0.567769 0.925832 0.003214 0.119582
H19   H     H_    0.567659 0.574145 0.002827 0.119751
H20   H     H_    0.432377 0.425857 0.996939 0.119667
H21   H     H_    0.940946 0.058376 0.068250 0.184672
H22   H     H_    0.059089 0.941627 0.931779 0.184537
H23   H     H_    0.058412 0.558517 0.931235 0.184197
H24   H     H_    0.941666 0.441468 0.068822 0.184130
H25   H     H_    0.033305 0.057414 0.813609 0.090379
H26   H     H_    0.966646 0.942573 0.186367 0.090347
H27   H     H_    0.967175 0.557271 0.186777 0.090197
H28   H     H_    0.032781 0.442739 0.813190 0.090137
O1    O     O_R   0.267710 0.668200 0.902110 -0.506379
O2    O     O_R   0.732290 0.331800 0.097890 -0.506418
O3    O     O_R   0.732290 0.168200 0.097890 -0.506283
O4    O     O_R   0.267710 0.831800 0.902110 -0.506405
O5    O     O_R   0.099480 0.674460 0.038850 -0.494235
O6    O     O_R   0.900520 0.325540 0.961150 -0.494249
O7    O     O_R   0.900520 0.174460 0.961150 -0.494228
O8    O     O_R   0.099480 0.825540 0.038850 -0.494251
O9    O     O_R   0.116720 0.669210 0.267660 -0.532464
O10   O     O_R   0.883280 0.330790 0.732340 -0.532476
O11   O     O_R   0.883280 0.169210 0.732340 -0.532396
O12   O     O_R   0.116720 0.830790 0.267660 -0.532380
O13   O     O_R   0.366710 0.675440 0.427590 -0.474651
O14   O     O_R   0.633290 0.324560 0.572410 -0.474658
O15   O     O_R   0.633290 0.175440 0.572410 -0.474626
O16   O     O_R   0.366710 0.824560 0.427590 -0.474627
O17   O     O_R   0.534870 0.669390 0.371760 -0.510144
O18   O     O_R   0.465130 0.330610 0.628240 -0.510125
O19   O     O_R   0.465130 0.169390 0.628240 -0.510154
O20   O     O_R   0.534870 0.830610 0.371760 -0.510173
O21   O     O_R   0.453080 0.674480 0.075160 -0.541840
O22   O     O_R   0.546920 0.325520 0.924840 -0.541833
O23   O     O_R   0.546920 0.174480 0.924840 -0.541797
O24   O     O_R   0.453080 0.825520 0.075160 -0.541792
O25   O     O_3   0.306390 0.750000 0.180470 -0.296013
O26   O     O_3   0.693610 0.250000 0.819530 -0.296034
N1    N     N_3   0.732300 0.026774 0.100135 -0.640076
H29   H     H_    0.722502 0.975010 0.132037 0.205482
H30   H     H_    0.792798 0.049903 0.192556 0.238616
N2    N     N_3   0.267874 0.973269 0.899773 -0.640066
H31   H     H_    0.277657 0.024961 0.867433 0.205400
H32   H     H_    0.207221 0.950050 0.807610 0.238668
N3    N     N_3   0.267733 0.526716 0.900337 -0.639739
H33   H     H_    0.277478 0.474971 0.868271 0.205469
H34   H     H_    0.207020 0.549843 0.808062 0.238488
N4    N     N_3   0.732246 0.473334 0.099646 -0.639828
H35   H     H_    0.722388 0.524984 0.131933 0.205547
H36   H     H_    0.793019 0.450171 0.191818 0.238464

loop_
_geom_bond_atom_site_label_1
_geom_bond_atom_site_label_2
_ccdc_geom_bond_type
C32   O4    A    
N4    H35   S    
C4    O8    A    
C12   C29   S    
C17   H26   S    
Cr3   O9    S    
C44   H4    S    
C7    C55   A    
C1    O9    A    
N3    H33   S    
Cr1   O25   S    
Cr6   O26   S    
Cr6   O19   S    
C50   C54   A    
C7    C39   A    
C5    C53   A    
Cr2   O3    S    
C38   C42   A    
C5    C37   A    
N1    H30   S    
C42   C46   A    
N3    H34   S    
Cr6   O18   S    
C27   O15   A    
C15   C16   S    
C3    C18   S    
C8    C36   A    
C9    C13   D    
C47   H7    S    
Cr2   O6    S    
C9    C32   S    
C26   O14   A    
C11   C15   D    
C10   C31   S    
C20   C24   D    
C11   C30   S    
C28   O16   A    
C23   H24   S    
C4    O12   A    
Cr5   O25   S    
C23   C24   S    
C6    C38   A    
C24   H23   S    
C40   C44   A    
C43   H3    S    
C25   C34   S    
C3    O11   A    
C35   C56   A    
C13   H18   S    
C2    O10   A    
C13   C14   S    
Cr2   O26   S    
C8    C56   A    
Cr2   O7    S    
C6    C54   A    
C52   H16   S    
Cr5   O20   S    
N2    H32   S    
C15   H20   S    
C38   H10   S    
Cr3   O16   S    
C12   C16   D    
C11   N4    S    
C28   C35   S    
Cr6   O23   S    
C30   O2    A    
C10   C14   D    
C26   O18   A    
C25   O13   A    
C39   C43   A    
C28   O20   A    
C31   O3    A    
C17   C21   D    
C6    C34   A    
C30   O22   A    
C19   C23   D    
C51   H15   S    
C46   H6    S    
C50   H14   S    
C3    O7    A    
C26   C33   S    
C21   H22   S    
C45   C49   A    
C1    O5    A    
C49   H13   S    
C14   H17   S    
C4    C17   S    
Cr1   O4    S    
C37   H9    S    
Cr4   O26   S    
C41   H1    S    
Cr4   O11   S    
Cr5   O21   S    
C42   H2    S    
C29   O1    A    
N2    H31   S    
C25   O17   A    
C33   C54   A    
C1    C20   S    
N4    H36   S    
Cr1   O1    S    
C2    C19   S    
C18   C22   D    
Cr3   O12   S    
C7    C35   A    
C29   O21   A    
C48   H8    S    
Cr4   O10   S    
C47   C51   A    
C45   H5    S    
C27   C36   S    
C20   H27   S    
C46   C50   A    
C18   H25   S    
C10   N1    S    
Cr3   O13   S    
C22   H21   S    
C2    O6    A    
C36   C55   A    
Cr4   O14   S    
N1    H29   S    
C12   N3    S    
Cr2   O2    S    
C49   C53   A    
Cr1   O8    S    
C16   H19   S    
C40   H12   S    
C51   C55   A    
C5    C33   A    
C39   H11   S    
C37   C41   A    
Cr5   O17   S    
C44   C48   A    
C48   C52   A    
Cr6   O22   S    
C27   O19   A    
C34   C53   A    
Cr3   O25   S    
Cr1   O5    S    
Cr5   O24   S    
C19   H28   S    
C9    N2    S    
C41   C45   A    
C8    C40   A    
C32   O24   A    
C21   C22   S    
C43   C47   A    
C31   O23   A    
Cr4   O15   S    
C52   C56   A    
