data_str_m3_o4_o24_f0_pcu.sym.103
_audit_creation_date              2012-12-10T20:36:32-0500
_audit_creation_method            fapswitch 2.2
_symmetry_space_group_name_H-M    P1
_symmetry_Int_Tables_number       1
_space_group_crystal_system       triclinic
_cell_length_a                    10.492681
_cell_length_b                    10.6688
_cell_length_c                    9.903913
_cell_angle_alpha                 89.704329
_cell_angle_beta                  88.97605
_cell_angle_gamma                 91.044886
_cell_volume                      1108.30869541

loop_
_atom_site_label
_atom_site_type_symbol
_atom_type_description
_atom_site_fract_x
_atom_site_fract_y
_atom_site_fract_z
_atom_type_partial_charge
C1    C     C_R   0.507708 0.260682 0.500210 0.870220
C2    C     C_3   0.962855 0.505773 0.369922 -0.164962
C3    C     C_3   0.041655 0.400237 0.432433 -0.166791
C4    C     C_3   0.122167 0.500700 0.502117 0.001890
C5    C     C_R   0.487860 0.062859 0.617601 0.081443
C6    C     C_R   0.528180 0.129474 0.502783 -0.191761
C7    C     C_R   0.589166 0.065570 0.394871 -0.030342
C8    C     C_R   0.580218 0.934739 0.394084 -0.189982
C9    C     C_R   0.518533 0.871384 0.501582 -0.093958
C10   C     C_R   0.484692 0.935915 0.617518 0.098775
C11   C     C_3   0.372297 0.927044 0.713461 -0.259923
C12   C     C_R   0.257353 0.500053 0.500969 0.904089
C13   C     C_3   0.376025 0.071340 0.714010 -0.252087
C14   C     C_R   0.419088 0.422022 0.073199 0.221347
C15   C     C_R   0.588721 0.568712 0.068242 -0.006184
C16   C     C_R   0.587884 0.567435 0.924418 -0.089406
C17   C     C_R   0.418980 0.422284 0.930983 0.211743
C18   C     C_3   0.277086 0.422808 0.928394 -0.515534
C19   C     C_3   0.277090 0.421756 0.081608 -0.484387
C20   C     C_R   0.502679 0.739706 0.499817 0.904254
C21   C     C_R   0.742566 0.501002 0.498836 0.842029
C22   C     C_3   0.036635 0.496689 0.628570 -0.134023
C23   C     C_3   0.953611 0.396146 0.558965 -0.145078
C24   C     C_3   0.877578 0.501663 0.496661 0.012441
C25   C     C_3   0.957974 0.602302 0.565970 -0.162298
C26   C     C_3   0.046121 0.606285 0.439461 -0.149385
H1    H     H_    0.911118 0.310574 0.607147 0.148727
H2    H     H_    0.399310 0.886194 0.812218 0.134433
H3    H     H_    0.403642 0.111419 0.812899 0.151774
H4    H     H_    0.655732 0.624032 0.866037 0.191460
H5    H     H_    0.240476 0.511391 0.885664 0.211647
H6    H     H_    0.236590 0.335413 0.884496 0.206193
H7    H     H_    0.238979 0.509021 0.126594 0.225130
H8    H     H_    0.237390 0.333317 0.126433 0.206307
H9    H     H_    0.069036 0.492726 0.734325 0.146625
H10   H     H_    0.919198 0.684663 0.619896 0.152210
H11   H     H_    0.088527 0.691648 0.390845 0.187808
H12   H     H_    0.928700 0.509487 0.264538 0.173573
H13   H     H_    0.080390 0.318184 0.377935 0.157635
H14   H     H_    0.619716 0.882802 0.310036 0.188867
N1    N     N_R   0.499140 0.499140 0.142800 -0.159984
N2    N     N_R   0.499140 0.499180 0.857150 -0.135072
O1    O     O_R   0.500020 0.316790 0.614690 -0.607264
O2    O     O_R   0.500000 0.316760 0.385350 -0.628055
O3    O     O_R   0.313960 0.499990 0.614650 -0.628397
O4    O     O_R   0.313940 0.499950 0.385310 -0.617102
O5    O     O_R   0.500000 0.683240 0.614650 -0.630172
O6    O     O_R   0.499980 0.683210 0.385310 -0.645467
O7    O     O_R   0.686060 0.500050 0.614690 -0.617474
O8    O     O_R   0.686040 0.500010 0.385350 -0.666212
Zn1   Zn    Zn3+2 0.500010 0.500020 0.653130 0.946059
Zn2   Zn    Zn3+2 0.499990 0.499980 0.346870 0.934179
C27   C     C_1   0.265002 0.133332 0.655683 0.283893
N3    N     N_1   0.177809 0.181857 0.610204 -0.224849
C28   C     C_2   0.685185 0.649654 0.133961 0.402938
H15   H     H_    0.677746 0.673004 0.238873 0.129092
O9    O     O_2   0.775994 0.693491 0.069579 -0.594850
C29   C     C_2   0.662542 0.131491 0.285142 0.426881
H16   H     H_    0.695402 0.227603 0.297633 0.081808
O10   O     O_2   0.689805 0.078051 0.180045 -0.562148
C30   C     C_2   0.255024 0.863453 0.656108 0.443773
H17   H     H_    0.195164 0.804292 0.721318 0.055336
O11   O     O_2   0.225495 0.878664 0.538459 -0.581433

loop_
_geom_bond_atom_site_label_1
_geom_bond_atom_site_label_2
_ccdc_geom_bond_type
C4    C26   S    
C23   C24   S    
C16   H4    S    
C26   H11   S    
C6    C7    A    
C23   H1    S    
C4    C12   S    
C4    C22   S    
C9    C10   A    
C2    H12   S    
N1    Zn2   S    
C5    C13   S    
O6    Zn2   S    
N2    Zn1   S    
C28   H15   S    
O2    Zn2   S    
C21   O7    A    
C17   C18   S    
C29   H16   S    
C3    H13   S    
C7    C8    A    
C2    C26   S    
C27   N3    T    
C22   H9    S    
C11   C13   S    
C14   C17   A    
O1    Zn1   S    
C20   O6    A    
C11   H2    S    
C14   N1    A    
C5    C6    A    
C13   H3    S    
C21   O8    A    
C22   C25   S    
C2    C3    S    
C13   C27   S    
C28   O9    D    
C2    C24   S    
C30   H17   S    
C9    C20   S    
C20   O5    A    
C18   H6    S    
C10   C11   S    
O3    Zn1   S    
C25   H10   S    
C29   O10   D    
C15   C16   A    
C7    C29   S    
O4    Zn2   S    
C5    C10   A    
C8    H14   S    
C24   C25   S    
C15   N1    A    
C12   O4    A    
C18   C19   S    
C19   H7    S    
C21   C24   S    
O8    Zn2   S    
C30   O11   D    
C22   C23   S    
C12   O3    A    
O5    Zn1   S    
C18   H5    S    
C1    O2    A    
C11   C30   S    
C25   C26   S    
C17   N2    A    
C16   N2    A    
C3    C23   S    
C14   C19   S    
C1    O1    A    
C3    C4    S    
C1    C6    S    
C8    C9    A    
O7    Zn1   S    
C19   H8    S    
C15   C28   S    
