data_str_m4_o4_o15_f0_acs.sym.93
_audit_creation_date              2012-12-11T15:45:08-0500
_audit_creation_method            fapswitch 2.2
_symmetry_space_group_name_H-M    P1
_symmetry_Int_Tables_number       1
_space_group_crystal_system       triclinic
_cell_length_a                    19.003261
_cell_length_b                    10.92397
_cell_length_c                    18.733755
_cell_angle_alpha                 89.622728
_cell_angle_beta                  90.19349
_cell_angle_gamma                 90.183228
_cell_volume                      3888.83383514

loop_
_atom_site_label
_atom_site_type_symbol
_atom_type_description
_atom_site_fract_x
_atom_site_fract_y
_atom_site_fract_z
_atom_type_partial_charge
C1    C     C_R   0.760735 0.535129 0.646854 0.535055
C2    C     C_R   0.240025 0.535574 0.353392 0.530361
C3    C     C_R   0.260735 0.035129 0.646854 0.535055
C4    C     C_R   0.740025 0.035575 0.353392 0.530360
C5    C     C_R   0.837477 0.114299 0.519980 -0.166808
C6    C     C_R   0.266202 0.038021 0.449546 -0.127914
C7    C     C_R   0.337478 0.614305 0.519980 -0.166808
C8    C     C_R   0.766194 0.538010 0.449546 -0.127911
C9    C     C_R   0.826196 0.088338 0.447922 -0.161861
C10   C     C_R   0.281305 0.009199 0.520375 -0.125654
C11   C     C_R   0.326196 0.588343 0.447921 -0.161855
C12   C     C_R   0.781297 0.509187 0.520374 -0.125651
C13   C     C_3   0.633666 0.159438 0.465248 -0.255917
C14   C     C_3   0.202286 0.299644 0.581983 -0.279941
C15   C     C_3   0.133664 0.659424 0.465251 -0.255918
C16   C     C_3   0.702308 0.799658 0.581981 -0.279934
C17   C     C_3   0.646573 0.184227 0.543898 -0.262679
C18   C     C_3   0.187654 0.332634 0.504691 -0.281034
C19   C     C_3   0.146571 0.684217 0.543901 -0.262682
C20   C     C_3   0.687673 0.832647 0.504690 -0.281027
C21   C     C_R   0.782847 0.161569 0.561506 -0.000396
C22   C     C_R   0.223343 0.138676 0.433895 0.033005
C23   C     C_R   0.282847 0.661569 0.561506 -0.000395
C24   C     C_R   0.723342 0.638674 0.433895 0.033004
C25   C     C_R   0.989688 0.329386 0.420918 -0.041570
C26   C     C_R   0.996288 0.347193 0.570945 -0.045866
C27   C     C_R   0.489692 0.829388 0.420921 -0.041567
C28   C     C_R   0.496294 0.847195 0.570948 -0.045864
C29   C     C_R   0.007211 0.105047 0.432535 -0.083658
C30   C     C_R   0.032038 0.130746 0.578083 -0.086324
C31   C     C_R   0.507216 0.605049 0.432538 -0.083660
C32   C     C_R   0.532045 0.630750 0.578086 -0.086321
C33   C     C_R   0.025370 0.003420 0.473881 -0.131359
C34   C     C_R   0.039157 0.016837 0.546249 -0.120413
C35   C     C_R   0.525375 0.503422 0.473885 -0.131358
C36   C     C_R   0.539163 0.516840 0.546253 -0.120411
C37   C     C_R   0.009957 0.233841 0.537943 -0.008253
C38   C     C_R   0.002368 0.222928 0.463054 0.007917
C39   C     C_R   0.509964 0.733844 0.537946 -0.008250
C40   C     C_R   0.502374 0.722930 0.463057 0.007916
C41   C     C_R   0.983103 0.453246 0.527206 0.004165
C42   C     C_R   0.968622 0.437784 0.454266 -0.000197
C43   C     C_R   0.483111 0.953249 0.527209 0.004165
C44   C     C_R   0.468629 0.937787 0.454269 -0.000198
C45   C     C_R   0.791798 0.172810 0.638868 0.564663
C46   C     C_R   0.208404 0.171011 0.361180 0.563847
C47   C     C_R   0.291798 0.672810 0.638868 0.564663
C48   C     C_R   0.708404 0.671011 0.361180 0.563847
C49   C     C_R   0.983358 0.575379 0.553217 -0.075862
C50   C     C_R   0.938796 0.535295 0.414428 -0.083581
C51   C     C_R   0.483367 0.075381 0.553221 -0.075865
C52   C     C_R   0.438803 0.035299 0.414432 -0.083585
C53   C     C_R   0.956679 0.672130 0.512544 -0.132069
C54   C     C_R   0.932003 0.651164 0.443944 -0.117957
C55   C     C_R   0.456687 0.172132 0.512548 -0.132065
C56   C     C_R   0.432011 0.151168 0.443948 -0.117958
C57   C     C_R   0.755889 0.090877 0.079742 0.016849
C58   C     C_R   0.250305 0.086929 0.921926 0.013828
C59   C     C_R   0.255889 0.590877 0.079742 0.016849
C60   C     C_R   0.750305 0.586929 0.921926 0.013828
C61   C     C_R   0.816472 0.055186 0.042823 0.027090
C62   C     C_R   0.184480 0.083341 0.954649 0.016550
C63   C     C_R   0.316472 0.555186 0.042823 0.027090
C64   C     C_R   0.684480 0.583340 0.954649 0.016550
C65   C     C_R   0.818981 0.063044 0.969855 0.039829
C66   C     C_R   0.179557 0.089698 0.027652 0.046439
C67   C     C_R   0.318981 0.563044 0.969855 0.039829
C68   C     C_R   0.679557 0.589698 0.027652 0.046440
C69   C     C_R   0.706667 0.162853 0.967380 -0.163832
C70   C     C_R   0.304043 0.124376 0.038418 -0.175945
C71   C     C_R   0.206667 0.662854 0.967380 -0.163832
C72   C     C_R   0.804043 0.624376 0.038418 -0.175945
C73   C     C_R   0.704310 0.157054 0.042187 -0.169376
C74   C     C_R   0.309580 0.117393 0.964010 -0.163787
C75   C     C_R   0.204310 0.657054 0.042187 -0.169376
C76   C     C_R   0.809580 0.617393 0.964010 -0.163787
C77   C     C_3   0.856258 0.936658 0.042438 -0.267991
C78   C     C_3   0.125451 0.992548 0.950316 -0.271911
C79   C     C_3   0.356258 0.436659 0.042438 -0.267991
C80   C     C_3   0.625451 0.492548 0.950316 -0.271911
C81   C     C_3   0.857835 0.945680 0.961965 -0.279039
C82   C     C_3   0.122203 0.996360 0.030900 -0.265458
C83   C     C_3   0.357835 0.445680 0.961965 -0.279038
C84   C     C_3   0.622203 0.496360 0.030900 -0.265458
C85   C     C_R   0.762383 0.107700 0.930329 0.017125
C86   C     C_R   0.238950 0.102924 0.071142 0.019180
C87   C     C_R   0.262383 0.607700 0.930329 0.017125
C88   C     C_R   0.738950 0.602924 0.071142 0.019180
C89   C     C_R   0.970899 0.347907 0.645853 0.522393
C90   C     C_R   0.026186 0.343961 0.351629 0.521388
C91   C     C_R   0.470901 0.847907 0.645854 0.522393
C92   C     C_R   0.526187 0.843961 0.351630 0.521390
C93   C     C_R   0.989985 0.342692 0.080618 0.017568
C94   C     C_R   0.978800 0.340724 0.932146 0.020302
C95   C     C_R   0.489985 0.842692 0.080618 0.017569
C96   C     C_R   0.478800 0.840723 0.932146 0.020302
C97   C     C_R   0.979390 0.451745 0.042361 0.020727
C98   C     C_R   0.974527 0.449892 0.969596 0.034513
C99   C     C_R   0.479390 0.951745 0.042361 0.020727
C100  C     C_R   0.474526 0.949892 0.969596 0.034513
C101  C     C_R   0.974309 0.230079 0.970823 -0.152693
C102  C     C_R   0.978881 0.231257 0.045491 -0.154840
C103  C     C_R   0.474309 0.730079 0.970823 -0.152693
C104  C     C_R   0.478882 0.731257 0.045491 -0.154840
C105  C     C_3   0.021479 0.568222 0.039760 -0.269680
C106  C     C_3   0.015560 0.564991 0.959495 -0.279860
C107  C     C_3   0.521479 0.068223 0.039760 -0.269680
C108  C     C_3   0.515560 0.064991 0.959495 -0.279860
C109  C     C_R   0.760703 0.532714 0.852201 0.550871
C110  C     C_R   0.240327 0.534196 0.148398 0.545677
C111  C     C_R   0.260703 0.032714 0.852201 0.550871
C112  C     C_R   0.740327 0.034196 0.148398 0.545677
C113  C     C_R   0.773735 0.129267 0.854717 0.551937
C114  C     C_R   0.226903 0.127398 0.146114 0.551304
C115  C     C_R   0.273735 0.629267 0.854717 0.551937
C116  C     C_R   0.726903 0.627398 0.146114 0.551304
C117  C     C_R   0.966225 0.346793 0.856142 0.547664
C118  C     C_R   0.027904 0.347230 0.147698 0.546851
C119  C     C_R   0.466225 0.846793 0.856142 0.547663
C120  C     C_R   0.527904 0.847230 0.147698 0.546852
C121  C     C_R   0.759452 0.107135 0.416499 0.003808
C122  C     C_R   0.252277 0.079258 0.575434 0.034423
C123  C     C_R   0.259451 0.607134 0.416499 0.003809
C124  C     C_R   0.752277 0.579255 0.575434 0.034424
C125  C     C_R   0.710762 0.176643 0.454467 0.012379
C126  C     C_R   0.202784 0.168803 0.559477 0.009982
C127  C     C_R   0.210759 0.676637 0.454468 0.012380
C128  C     C_R   0.702789 0.668813 0.559477 0.009975
C129  C     C_R   0.722235 0.202452 0.525986 0.025407
C130  C     C_R   0.189217 0.199265 0.489012 0.013582
C131  C     C_R   0.222232 0.702448 0.525987 0.025413
C132  C     C_R   0.689221 0.699275 0.489013 0.013575
Cr1   Cr    Cr6+3 0.885860 0.491680 0.749630 1.002284
Cr2   Cr    Cr6+3 0.114140 0.491680 0.250370 1.001012
Cr3   Cr    Cr6+3 0.385860 0.991680 0.749630 1.002285
Cr4   Cr    Cr6+3 0.614140 0.991680 0.250370 1.001011
Cr5   Cr    Cr6+3 0.730490 0.332970 0.748720 0.998723
Cr6   Cr    Cr6+3 0.269510 0.332970 0.251280 0.994636
Cr7   Cr    Cr6+3 0.230490 0.832970 0.748720 0.998724
Cr8   Cr    Cr6+3 0.769510 0.832970 0.251280 0.994634
Cr9   Cr    Cr6+3 0.887570 0.179310 0.750150 0.998856
Cr10  Cr    Cr6+3 0.112430 0.179310 0.249850 1.000576
Cr11  Cr    Cr6+3 0.387570 0.679310 0.750150 0.998857
Cr12  Cr    Cr6+3 0.612430 0.679310 0.249850 1.000576
H1    H     H_    0.955531 0.763623 0.534312 0.106987
H2    H     H_    0.910135 0.725598 0.412640 0.123665
H3    H     H_    0.455540 0.263626 0.534317 0.106989
H4    H     H_    0.410143 0.225603 0.412645 0.123663
H5    H     H_    0.663959 0.205480 0.938572 0.118204
H6    H     H_    0.350532 0.143094 0.070170 0.121791
H7    H     H_    0.163959 0.705480 0.938572 0.118205
H8    H     H_    0.850532 0.643094 0.070170 0.121791
H9    H     H_    0.659543 0.194532 0.069816 0.114218
H10   H     H_    0.361100 0.125533 0.940304 0.140848
H11   H     H_    0.159543 0.694532 0.069816 0.114218
H12   H     H_    0.861100 0.625533 0.940304 0.140848
H13   H     H_    0.824262 0.858473 0.061593 0.175200
H14   H     H_    0.141272 0.902042 0.930220 0.160551
H15   H     H_    0.324262 0.358473 0.061593 0.175200
H16   H     H_    0.641272 0.402041 0.930220 0.160551
H17   H     H_    0.909172 0.945109 0.067429 0.122301
H18   H     H_    0.078166 0.031753 0.923867 0.126617
H19   H     H_    0.409172 0.445109 0.067429 0.122301
H20   H     H_    0.578166 0.531753 0.923867 0.126617
H21   H     H_    0.911663 0.958041 0.940245 0.130583
H22   H     H_    0.072363 0.033474 0.051394 0.139015
H23   H     H_    0.411663 0.458041 0.940245 0.130583
H24   H     H_    0.572362 0.533474 0.051394 0.139015
H25   H     H_    0.825742 0.874264 0.935015 0.143091
H26   H     H_    0.139490 0.909988 0.057042 0.134630
H27   H     H_    0.325742 0.374264 0.935015 0.143091
H28   H     H_    0.639490 0.409988 0.057042 0.134630
H29   H     H_    0.969653 0.143730 0.943539 0.126171
H30   H     H_    0.979495 0.145953 0.074953 0.116470
H31   H     H_    0.469653 0.643730 0.943539 0.126171
H32   H     H_    0.479496 0.645953 0.074953 0.116470
H33   H     H_    0.076159 0.554150 0.058185 0.171981
H34   H     H_    0.983615 0.641064 0.937069 0.133341
H35   H     H_    0.576159 0.054150 0.058185 0.171981
H36   H     H_    0.483615 0.141065 0.937069 0.133341
H37   H     H_    0.993309 0.646532 0.064112 0.126346
H38   H     H_    0.066605 0.549242 0.932280 0.138178
H39   H     H_    0.493308 0.146532 0.064112 0.126346
H40   H     H_    0.566605 0.049242 0.932280 0.138177
H41   H     H_    0.866968 0.039913 0.419674 0.140509
H42   H     H_    0.315429 0.932364 0.532308 0.122601
H43   H     H_    0.366969 0.539923 0.419672 0.140508
H44   H     H_    0.815416 0.432344 0.532307 0.122596
H45   H     H_    0.115283 0.565061 0.454182 0.159963
H46   H     H_    0.754567 0.832033 0.601183 0.154866
H47   H     H_    0.615281 0.065076 0.454178 0.159968
H48   H     H_    0.254540 0.332036 0.601189 0.154866
H49   H     H_    0.602654 0.232328 0.438240 0.142504
H50   H     H_    0.157502 0.320200 0.617948 0.134848
H51   H     H_    0.102649 0.732311 0.438243 0.142507
H52   H     H_    0.657528 0.820233 0.617950 0.134850
H53   H     H_    0.621782 0.269649 0.562729 0.138442
H54   H     H_    0.134619 0.371834 0.496032 0.135237
H55   H     H_    0.121778 0.769637 0.562732 0.138440
H56   H     H_    0.634640 0.871863 0.496035 0.135233
H57   H     H_    0.637877 0.102488 0.578509 0.140286
H58   H     H_    0.231666 0.382927 0.479070 0.148676
H59   H     H_    0.137878 0.602477 0.578512 0.140290
H60   H     H_    0.731690 0.882923 0.479065 0.148683
H61   H     H_    0.028611 0.914088 0.449600 0.103891
H62   H     H_    0.054219 0.938740 0.578364 0.106361
H63   H     H_    0.528614 0.414090 0.449605 0.103890
H64   H     H_    0.554223 0.438743 0.578368 0.106361
H65   H     H_    0.993747 0.088916 0.377289 0.130870
H66   H     H_    0.045401 0.137707 0.634077 0.130557
H67   H     H_    0.493751 0.588916 0.377293 0.130870
H68   H     H_    0.545407 0.637712 0.634081 0.130555
H69   H     H_    0.921733 0.522079 0.359766 0.126437
H70   H     H_    0.006751 0.599519 0.603815 0.138070
H71   H     H_    0.421738 0.022084 0.359771 0.126439
H72   H     H_    0.506759 0.099518 0.603819 0.138067
O1    O     O_R   0.957020 0.451640 0.669920 -0.525848
O2    O     O_R   0.042980 0.451640 0.330080 -0.518564
O3    O     O_R   0.457020 0.951640 0.669920 -0.525847
O4    O     O_R   0.542980 0.951640 0.330080 -0.518565
O5    O     O_R   0.736470 0.210100 0.823360 -0.503771
O6    O     O_R   0.263530 0.210100 0.176640 -0.505841
O7    O     O_R   0.236470 0.710100 0.823360 -0.503771
O8    O     O_R   0.763530 0.710100 0.176640 -0.505841
O9    O     O_R   0.831960 0.093290 0.830130 -0.514495
O10   O     O_R   0.168040 0.093290 0.169870 -0.514341
O11   O     O_R   0.331960 0.593290 0.830130 -0.514495
O12   O     O_R   0.668040 0.593290 0.169870 -0.514341
O13   O     O_R   0.945600 0.250580 0.824860 -0.508173
O14   O     O_R   0.054400 0.250580 0.175140 -0.506266
O15   O     O_R   0.445600 0.750580 0.824860 -0.508174
O16   O     O_R   0.554400 0.750580 0.175140 -0.506265
O17   O     O_3   0.834640 0.334650 0.749500 -0.262410
O18   O     O_3   0.165360 0.334650 0.250500 -0.257530
O19   O     O_3   0.334640 0.834650 0.749500 -0.262411
O20   O     O_3   0.665360 0.834650 0.250500 -0.257529
O21   O     O_R   0.821450 0.543440 0.674610 -0.500635
O22   O     O_R   0.178550 0.543440 0.325390 -0.497096
O23   O     O_R   0.321450 0.043440 0.674610 -0.500634
O24   O     O_R   0.678550 0.043440 0.325390 -0.497096
O25   O     O_R   0.715320 0.458650 0.668100 -0.527430
O26   O     O_R   0.284680 0.458650 0.331900 -0.537020
O27   O     O_R   0.215320 0.958650 0.668100 -0.527428
O28   O     O_R   0.784680 0.958650 0.331900 -0.537024
O29   O     O_R   0.737170 0.209590 0.674530 -0.500452
O30   O     O_R   0.262830 0.209590 0.325470 -0.509337
O31   O     O_R   0.237170 0.709590 0.674530 -0.500452
O32   O     O_R   0.762830 0.709590 0.325470 -0.509338
O33   O     O_R   0.832710 0.092740 0.669580 -0.521069
O34   O     O_R   0.167290 0.092740 0.330420 -0.512063
O35   O     O_R   0.332710 0.592740 0.669580 -0.521066
O36   O     O_R   0.667290 0.592740 0.330420 -0.512066
O37   O     O_R   0.946290 0.250060 0.676040 -0.518688
O38   O     O_R   0.053710 0.250060 0.323960 -0.522474
O39   O     O_R   0.446290 0.750060 0.676040 -0.518687
O40   O     O_R   0.553710 0.750060 0.323960 -0.522474
O41   O     O_R   0.956270 0.452200 0.830470 -0.519002
O42   O     O_R   0.043730 0.452200 0.169530 -0.525328
O43   O     O_R   0.456270 0.952200 0.830470 -0.519003
O44   O     O_R   0.543730 0.952200 0.169530 -0.525328
O45   O     O_R   0.820760 0.543950 0.823440 -0.508234
O46   O     O_R   0.179240 0.543950 0.176560 -0.505836
O47   O     O_R   0.320760 0.043950 0.823440 -0.508234
O48   O     O_R   0.679240 0.043950 0.176560 -0.505836
O49   O     O_R   0.714570 0.459210 0.828640 -0.524605
O50   O     O_R   0.285430 0.459210 0.171360 -0.523973
O51   O     O_R   0.214570 0.959210 0.828640 -0.524606
O52   O     O_R   0.785430 0.959210 0.171360 -0.523973
H73   H     H_    0.886698 0.087621 0.544443 0.157911
H74   H     H_    0.289020 0.984151 0.407213 0.129209
H75   H     H_    0.386700 0.587633 0.544441 0.157909
H76   H     H_    0.789007 0.484133 0.407212 0.129211

loop_
_geom_bond_atom_site_label_1
_geom_bond_atom_site_label_2
_ccdc_geom_bond_type
C51   H72   S    
C58   C62   A    
C119  O43   A    
C55   C56   A    
C82   H26   S    
C67   C83   S    
C101  C102  A    
Cr10  O34   S    
C29   C33   A    
C6    H74   S    
Cr9   O33   S    
C41   C42   A    
C14   C18   S    
C96   C119  S    
C101  H29   S    
C35   C36   A    
C70   H6    S    
Cr10  O38   S    
C72   C76   A    
C30   C34   A    
Cr7   O31   S    
Cr3   O43   S    
C120  O16   A    
C47   O31   A    
C97   C98   A    
C104  H32   S    
C71   C75   A    
C63   C79   S    
C53   C54   A    
C34   H62   S    
C26   C89   S    
Cr1   O45   S    
Cr12  O40   S    
C33   H61   S    
C25   C90   S    
C50   C54   A    
Cr11  O35   S    
C96   C100  A    
C116  O12   A    
Cr6   O30   S    
C110  O46   A    
C64   C68   A    
C115  O7    A    
C113  O5    A    
Cr3   O23   S    
C1    O25   A    
C9    H41   S    
C79   H15   S    
C32   H68   S    
C94   C117  S    
C95   C99   A    
Cr10  O14   S    
C57   C112  S    
Cr4   O48   S    
C94   C98   A    
Cr9   O13   S    
C12   H44   S    
Cr5   O5    S    
C17   H57   S    
C59   C110  S    
C117  O41   A    
C31   C40   A    
C74   H10   S    
C3    O23   A    
C51   C55   A    
C36   H64   S    
C32   C39   A    
C57   C73   A    
C57   C61   A    
C92   O4    A    
C78   C82   S    
C106  H38   S    
C60   C109  S    
C105  H37   S    
C45   O33   A    
C121  C125  A    
C52   C56   A    
Cr5   O49   S    
C27   C44   A    
C78   H14   S    
C71   H7    S    
C94   C101  A    
C61   C77   S    
C72   H8    S    
C83   H27   S    
C29   C38   A    
C70   C74   A    
Cr2   O18   S    
C9    C121  A    
C107  C108  S    
Cr8   O52   S    
C17   H53   S    
C98   C106  S    
C81   H25   S    
C116  O8    A    
Cr7   O27   S    
C112  O52   A    
C47   O35   A    
Cr6   O26   S    
C3    C122  S    
C119  O15   A    
C54   H2    S    
C97   C105  S    
C122  C126  A    
C44   C52   A    
Cr1   O41   S    
C15   H45   S    
Cr2   O42   S    
Cr2   O46   S    
C15   C127  S    
C22   C130  A    
Cr9   O9    S    
C64   C80   S    
Cr1   O21   S    
C20   C132  S    
Cr6   O18   S    
C128  C132  A    
Cr5   O17   S    
C41   C49   A    
C72   C88   A    
C62   C78   S    
C7    C11   A    
C46   O30   A    
C21   C45   S    
C19   C131  S    
C63   C67   A    
C100  C108  S    
C23   C47   S    
C103  H31   S    
Cr12  O20   S    
Cr11  O19   S    
C80   C84   S    
C68   C84   S    
C88   C116  S    
C20   H60   S    
C109  O49   A    
C30   H66   S    
C45   O29   A    
C39   C40   A    
C126  C130  A    
C62   C66   A    
Cr8   O8    S    
Cr1   O17   S    
Cr6   O50   S    
C50   H69   S    
C1    O21   A    
Cr2   O2    S    
C83   H23   S    
C49   H70   S    
C76   H12   S    
C52   H71   S    
C80   H20   S    
C17   C129  S    
C58   C111  S    
C30   C37   A    
C107  H39   S    
C67   C87   A    
Cr8   O28   S    
C24   C48   S    
C56   H4    S    
C15   C19   S    
C43   C44   A    
C115  O11   A    
C37   C38   A    
C84   H24   S    
Cr10  O10   S    
C61   C65   A    
C25   C38   A    
C114  O10   A    
C105  H33   S    
Cr5   O29   S    
C53   H1    S    
C24   C132  A    
C93   C97   A    
C123  C127  A    
C99   C100  A    
C12   C124  A    
C77   C81   S    
C27   C40   A    
C16   C20   S    
Cr3   O3    S    
C19   H59   S    
C33   C34   A    
C4    O24   A    
C23   C131  A    
C27   C92   S    
C18   H58   S    
C3    O27   A    
Cr4   O44   S    
C114  O6    A    
C69   C73   A    
C16   C128  S    
C80   H16   S    
C21   C129  A    
C16   H46   S    
C42   C50   A    
C71   C87   A    
C55   H3    S    
C92   O40   A    
C35   H63   S    
C22   C46   S    
C112  O48   A    
C78   H18   S    
Cr4   O24   S    
Cr7   O19   S    
C91   O3    A    
C68   C88   A    
C11   H43   S    
C59   C63   A    
C79   H19   S    
C93   C118  S    
C109  O45   A    
C117  O13   A    
C70   C86   A    
C59   C75   A    
C110  O50   A    
C4    O28   A    
C69   C85   A    
C95   C104  A    
C58   C74   A    
C108  H36   S    
C87   C115  S    
C82   H22   S    
Cr7   O7    S    
C2    O26   A    
Cr7   O51   S    
C75   H11   S    
C81   H21   S    
C107  H35   S    
C86   C114  S    
Cr8   O32   S    
C93   C102  A    
C5    H73   S    
Cr12  O16   S    
C2    O22   A    
C90   O38   A    
Cr11  O11   S    
C84   H28   S    
C13   H47   S    
C25   C42   A    
C66   C86   A    
C32   C36   A    
C26   C37   A    
C29   H65   S    
Cr3   O47   S    
Cr4   O4    S    
C108  H40   S    
C11   C123  A    
C95   C120  S    
C102  H30   S    
C111  O47   A    
C99   C107  S    
C105  C106  S    
C28   C39   A    
C28   C43   A    
C19   H55   S    
C14   C126  S    
C124  C128  A    
C60   C64   A    
Cr9   O37   S    
C127  C131  A    
C85   C113  S    
C1    C124  S    
C15   H51   S    
C46   O34   A    
C48   O32   A    
C65   C85   A    
C120  O44   A    
C66   C82   S    
C79   C83   S    
Cr11  O39   S    
C31   H67   S    
C43   C51   A    
C69   H5    S    
C91   O39   A    
Cr5   O25   S    
C118  O14   A    
C7    C23   A    
Cr4   O20   S    
C31   C35   A    
C7    H75   S    
C16   H52   S    
C10   H42   S    
C77   H17   S    
C60   C76   A    
C4    C121  S    
C28   C91   S    
Cr3   O19   S    
C14   H48   S    
C48   O36   A    
C14   H50   S    
C89   O37   A    
Cr1   O1    S    
C90   O2    A    
C49   C53   A    
C18   C130  S    
C6    C10   A    
Cr2   O22   S    
C111  O51   A    
C13   C17   S    
C125  C129  A    
C10   C122  A    
Cr10  O18   S    
C5    C21   A    
C8    C24   A    
Cr9   O17   S    
C118  O42   A    
C89   O1    A    
C73   H9    S    
C103  C104  A    
Cr8   O20   S    
Cr6   O6    S    
C65   C81   S    
Cr12  O12   S    
C13   H49   S    
C5    C9    A    
Cr12  O36   S    
Cr11  O15   S    
C96   C103  A    
C8    H76   S    
C13   C125  S    
C106  H34   S    
C20   H56   S    
C2    C123  S    
C18   H54   S    
C8    C12   A    
C26   C41   A    
C77   H13   S    
C113  O9    A    
C6    C22   A    
