data_str_m4_o14_o22_f0_acs.sym.49
_audit_creation_date              2013-03-05T15:42:26-0500
_audit_creation_method            fapswitch 2.2
_symmetry_space_group_name_H-M    P1
_symmetry_Int_Tables_number       1
_space_group_crystal_system       triclinic
_cell_length_a                    10.925155
_cell_length_b                    10.983133
_cell_length_c                    18.852163
_cell_angle_alpha                 90.21179
_cell_angle_beta                  89.611787
_cell_angle_gamma                 60.58463
_cell_volume                      1970.38018506

loop_
_atom_site_label
_atom_site_type_symbol
_atom_site_description
_atom_site_fract_x
_atom_site_fract_y
_atom_site_fract_z
_atom_type_partial_charge
O1    O     O_R   0.507340 0.255690 0.581430 -0.529916
O2    O     O_R   0.280360 0.527380 0.578910 -0.513300
C1    C     C_R   0.241958 0.642752 0.611555 0.531572
O3    O     O_R   0.260600 0.739610 0.584580 -0.532697
O4    O     O_R   0.532370 0.695050 0.573830 -0.511722
C2    C     C_R   0.653908 0.621904 0.600876 0.536159
O5    O     O_R   0.744850 0.503430 0.576380 -0.529923
O6    O     O_R   0.699080 0.276500 0.571950 -0.513109
C3    C     C_R   0.628074 0.227797 0.602605 0.526688
O7    O     O_R   0.498860 0.256520 0.419860 -0.529675
O8    O     O_R   0.272490 0.528150 0.429140 -0.511636
C4    C     C_R   0.221478 0.647676 0.402182 0.535836
O9    O     O_R   0.252110 0.740440 0.423010 -0.522481
O10   O     O_R   0.524510 0.695820 0.424050 -0.508217
C5    C     C_R   0.642266 0.622845 0.392302 0.531237
O11   O     O_R   0.736370 0.504260 0.414810 -0.527744
O12   O     O_R   0.691220 0.277270 0.422180 -0.514009
C6    C     C_R   0.619197 0.225155 0.396775 0.531236
Cr1   Cr    Cr6+3 0.392940 0.397950 0.502230 0.993774
Cr2   Cr    Cr6+3 0.398400 0.708500 0.501260 0.991941
Cr3   Cr    Cr6+3 0.708640 0.393530 0.496460 0.990518
O13   O     O_3   0.499990 0.499990 0.499980 -0.238355
C7    C     C_3   0.579387 0.812262 0.781102 -0.211036
H1    H     H_    0.597591 0.901817 0.791889 0.177620
H2    H     H_    0.478836 0.834342 0.807136 0.168999
C8    C     C_3   0.567474 0.799137 0.700491 -0.244392
H3    H     H_    0.457585 0.828886 0.687574 0.133040
H4    H     H_    0.592135 0.873629 0.672409 0.120874
H5    H     H_    0.862978 0.726252 0.776363 0.124538
H6    H     H_    0.845696 0.689273 0.658007 0.109570
C9    C     C_3   0.837673 0.640268 0.769535 -0.220737
C10   C     C_3   0.666455 0.556022 0.800219 -0.252698
C11   C     C_3   0.701292 0.674512 0.811588 0.030470
H7    H     H_    0.754114 0.455150 0.819372 0.150258
H8    H     H_    0.570239 0.577828 0.830860 0.117570
C12   C     C_3   0.670960 0.647475 0.676117 0.053820
C13   C     C_3   0.821736 0.618706 0.690252 -0.245022
C14   C     C_3   0.643174 0.543683 0.720788 -0.215172
H9    H     H_    0.533788 0.564668 0.712538 0.130325
H10   H     H_    0.714588 0.434026 0.703310 0.153870
H11   H     H_    0.927245 0.543492 0.790336 0.167857
H12   H     H_    0.898458 0.509252 0.674918 0.146378
H13   H     H_    0.446811 0.241956 0.699545 0.169822
C15   C     C_R   0.693884 0.157867 0.823678 -0.022024
C16   C     C_R   0.811403 0.132617 0.779964 0.006872
C17   C     C_R   0.796835 0.135954 0.704752 0.015348
C18   C     C_R   0.549906 0.209070 0.720181 -0.154523
C19   C     C_R   0.563808 0.204065 0.792196 -0.153778
C20   C     C_R   0.941983 0.105481 0.807595 -0.077153
C21   C     C_R   0.054644 0.076076 0.762296 -0.124546
C22   C     C_R   0.041863 0.071720 0.689453 -0.145686
C23   C     C_R   0.915482 0.097276 0.660791 -0.088787
C24   C     C_R   0.663634 0.178291 0.675451 -0.011174
H14   H     H_    0.958722 0.111360 0.863424 0.188314
H15   H     H_    0.472592 0.227458 0.823831 0.183289
H16   H     H_    0.155309 0.049439 0.783450 0.181521
H17   H     H_    0.131415 0.045223 0.655072 0.108757
H18   H     H_    0.912997 0.084047 0.604091 0.129060
H19   H     H_    0.261946 0.815218 0.702890 0.134714
C25   C     C_R   0.197651 0.657018 0.838391 -0.006521
C26   C     C_R   0.202339 0.542938 0.801555 -0.027878
C27   C     C_R   0.196283 0.543919 0.726316 0.006227
C28   C     C_R   0.236101 0.743357 0.728560 -0.151852
C29   C     C_R   0.227942 0.748445 0.801795 -0.156680
C30   C     C_R   0.212496 0.428323 0.838987 -0.084356
C31   C     C_R   0.200021 0.323278 0.805084 0.213782
C32   C     C_R   0.178812 0.329816 0.731933 -0.167244
C33   C     C_R   0.175787 0.439600 0.692787 -0.168900
C34   C     C_R   0.212428 0.648356 0.688883 0.010604
H20   H     H_    0.238044 0.415124 0.894830 0.158179
H21   H     H_    0.238317 0.828819 0.829924 0.148594
H22   H     H_    0.166904 0.249288 0.704989 0.121415
H23   H     H_    0.154525 0.441598 0.636945 0.147947
H24   H     H_    0.430241 0.764909 0.301275 0.153952
C35   C     C_R   0.672806 0.651505 0.170113 0.000362
C36   C     C_R   0.791760 0.557545 0.212100 0.041327
C37   C     C_R   0.788061 0.583052 0.285139 0.020340
C38   C     C_R   0.533655 0.719600 0.276987 -0.134283
C39   C     C_R   0.542917 0.726893 0.203472 -0.160603
C40   C     C_R   0.914161 0.438963 0.184674 -0.078681
C41   C     C_R   0.035754 0.370453 0.224583 -0.148410
C42   C     C_R   0.035421 0.409154 0.294566 -0.123194
C43   C     C_R   0.914714 0.519240 0.323878 -0.080817
C44   C     C_R   0.655961 0.655917 0.318673 -0.001829
H25   H     H_    0.916680 0.393150 0.133473 0.144984
H26   H     H_    0.449330 0.788836 0.172702 0.118842
H27   H     H_    0.129334 0.284124 0.201609 0.107702
H28   H     H_    0.128247 0.352492 0.326528 0.119778
H29   H     H_    0.918963 0.548861 0.378268 0.125971
H30   H     H_    0.753200 0.283517 0.297448 0.149632
C45   C     C_R   0.661316 0.107400 0.183484 0.011907
C46   C     C_R   0.572877 0.079558 0.228414 0.017966
C47   C     C_R   0.585324 0.089334 0.302036 0.024458
C48   C     C_R   0.713766 0.215147 0.279987 -0.146227
C49   C     C_R   0.725339 0.180986 0.209416 -0.140367
C50   C     C_R   0.466660 0.051496 0.203766 -0.105595
C51   C     C_R   0.377632 0.035540 0.251313 -0.151021
C52   C     C_R   0.404823 0.025287 0.323393 -0.117381
C53   C     C_R   0.515139 0.041688 0.348138 -0.083490
C54   C     C_R   0.653342 0.161853 0.327348 0.003437
H31   H     H_    0.442478 0.048749 0.148921 0.162813
H32   H     H_    0.782264 0.215024 0.174905 0.138046
H33   H     H_    0.293910 0.020375 0.231375 0.106813
H34   H     H_    0.342262 0.001875 0.359819 0.123812
H35   H     H_    0.537502 0.027581 0.404289 0.125722
H36   H     H_    0.279173 0.441450 0.308877 0.153017
C55   C     C_R   0.132819 0.694208 0.187957 0.006990
C56   C     C_R   0.097613 0.812788 0.233666 0.037438
C57   C     C_R   0.083765 0.797807 0.306403 0.021203
C58   C     C_R   0.213764 0.545939 0.288738 -0.145844
C59   C     C_R   0.191200 0.561438 0.216573 -0.150326
C60   C     C_R   0.084202 0.942526 0.211873 -0.096221
C61   C     C_R   0.040216 0.053847 0.259283 -0.157631
C62   C     C_R   0.007036 0.041894 0.328917 -0.114154
C63   C     C_R   0.021563 0.916139 0.351694 -0.083464
C64   C     C_R   0.157351 0.663807 0.333894 -0.006539
H37   H     H_    0.117896 0.959529 0.160846 0.146435
H38   H     H_    0.225999 0.470035 0.182838 0.135821
H39   H     H_    0.028587 0.150781 0.241132 0.114429
H40   H     H_    0.970684 0.129801 0.365169 0.127469
H41   H     H_    0.997650 0.907608 0.406725 0.112672
O14   O     O_R   0.089570 0.825450 0.930590 -0.512921
O15   O     O_R   0.818700 0.054260 0.929860 -0.511775
C65   C     C_R   0.704284 0.101548 0.895742 0.537184
O16   O     O_R   0.606310 0.077010 0.915520 -0.484646
O17   O     O_R   0.646730 0.806540 0.917560 -0.490405
C66   C     C_R   0.725177 0.688865 0.887683 0.538528
O18   O     O_R   0.837290 0.593240 0.915240 -0.502388
O19   O     O_R   0.065320 0.635310 0.931580 -0.508106
C67   C     C_R   0.122474 0.703758 0.906994 0.534018
O20   O     O_R   0.068470 0.828620 0.091850 -0.546037
O21   O     O_R   0.799150 0.057200 0.079350 -0.506607
C68   C     C_R   0.694399 0.054083 0.111705 0.553451
O22   O     O_R   0.585220 0.080180 0.076770 -0.532018
O23   O     O_R   0.627170 0.809480 0.067050 -0.515231
C69   C     C_R   0.697283 0.686275 0.097403 0.531922
O24   O     O_R   0.816200 0.596410 0.076500 -0.527255
O25   O     O_R   0.045770 0.638240 0.081070 -0.494484
C70   C     C_R   0.089428 0.714062 0.114082 0.538311
Cr4   Cr    Cr6+3 0.937880 0.938320 0.007620 1.022742
Cr5   Cr    Cr6+3 0.625560 0.937220 0.994510 1.059158
Cr6   Cr    Cr6+3 0.938080 0.625010 0.001190 1.043490
O26   O     O_3   0.833840 0.833520 0.001110 -0.273674
N1    N     N_R   0.214848 0.208033 0.845934 0.038207
O27   O     O_R   0.331411 0.089917 0.841144 -0.412590
O28   O     O_R   0.132740 0.230987 0.900603 -0.371787

loop_
_geom_bond_atom_site_label_1
_geom_bond_atom_site_label_2
_geom_bond_distance
_ccdc_geom_bond_type
C19   H15   1.074305 S    
O24   Cr6   2.067838 S    
O17   C66   1.273660 A    
C63   H41   1.083720 S    
Cr4   O26   1.979366 S    
C11   C66   1.481447 S    
C51   C52   1.386074 A    
O23   C69   1.318634 A    
O4    Cr2   1.962657 S    
C16   C17   1.426476 A    
O8    Cr1   1.966194 S    
C8    H3    1.107528 S    
O11   Cr3   2.075967 S    
C59   H38   1.083478 S    
O4    C2    1.277836 A    
C12   C13   1.542591 S    
C1    C34   1.485430 S    
C61   C62   1.383301 A    
Cr5   O26   1.987386 S    
C14   H9    1.112521 S    
C42   H28   1.081640 S    
C29   H21   1.081178 S    
C31   N1    1.424404 S    
C37   C43   1.415654 A    
C20   H14   1.076592 S    
C52   C53   1.386684 A    
C17   C23   1.410493 A    
C46   C50   1.419549 A    
C56   C57   1.397707 A    
C32   H22   1.080656 S    
C7    C8    1.538395 S    
C13   H12   1.111609 S    
C58   C59   1.380450 A    
O20   Cr4   2.089259 S    
C57   C64   1.389248 A    
C61   H39   1.066354 S    
C28   C34   1.406071 A    
O16   Cr5   2.079175 S    
O6    C3    1.275034 A    
C7    C11   1.559035 S    
C55   C56   1.442866 A    
C9    C11   1.556082 S    
C22   H17   1.082754 S    
C10   C14   1.537196 S    
C8    H4    1.113566 S    
C21   H16   1.070011 S    
C47   C53   1.416216 A    
C49   H32   1.083763 S    
C18   C24   1.392948 A    
C31   C32   1.396197 A    
C50   H31   1.072857 S    
C26   C27   1.420249 A    
C6    C54   1.437880 S    
C53   H35   1.082486 S    
C60   C61   1.390541 A    
C25   C29   1.386465 A    
H30   C48   1.084310 S    
C2    O5    1.270047 A    
C43   H29   1.082772 S    
O1    Cr1   2.087349 S    
C5    O11   1.275959 A    
C32   C33   1.402624 A    
C10   H8    1.113305 S    
O10   Cr2   1.954275 S    
O15   C65   1.273429 A    
Cr1   O13   1.978080 S    
O1    C3    1.266568 A    
C36   C37   1.400484 A    
N1    O28   1.301486 A    
O25   Cr6   1.965560 S    
C25   C67   1.475562 S    
C45   C46   1.423220 A    
C38   C39   1.394371 A    
O21   C68   1.308470 A    
O19   Cr6   1.948896 S    
C37   C44   1.404407 A    
C21   C22   1.384284 A    
C33   H23   1.077589 S    
O5    Cr3   2.084987 S    
O15   Cr4   1.968982 S    
C15   C65   1.476644 S    
C41   C42   1.384053 A    
C1    O3    1.283431 A    
C56   C60   1.421542 A    
H6    C13   1.113277 S    
C9    C13   1.536814 S    
C25   C26   1.408831 A    
C10   H7    1.113730 S    
C35   C36   1.443279 A    
C40   H25   1.080795 S    
C26   C30   1.401907 A    
C18   C19   1.365425 A    
C45   C68   1.443715 S    
C48   C54   1.396798 A    
O7    Cr1   2.086981 S    
C7    H1    1.113363 S    
C50   C51   1.391762 A    
O12   C6    1.273439 A    
C51   H33   1.076800 S    
C47   C54   1.413394 A    
C41   H27   1.081946 S    
C23   H18   1.080541 S    
C8    C12   1.549667 S    
Cr2   O13   1.994866 S    
C42   C43   1.387550 A    
H13   C18   1.076007 S    
C68   O22   1.270782 A    
C3    C24   1.462109 S    
C30   C31   1.381416 A    
C66   O18   1.273673 A    
C58   C64   1.407638 A    
C15   C16   1.427840 A    
O19   C67   1.276583 A    
H36   C58   1.083132 S    
C9    H11   1.108036 S    
O9    Cr2   2.082940 S    
O2    Cr1   1.966357 S    
C35   C69   1.481719 S    
C55   C59   1.386056 A    
C36   C40   1.423622 A    
C40   C41   1.390256 A    
O6    Cr3   1.957496 S    
O8    C4    1.257917 A    
C62   C63   1.381023 A    
C5    C44   1.461281 S    
O21   Cr4   1.961097 S    
O17   Cr5   1.967728 S    
H19   C28   1.075506 S    
C27   C33   1.418096 A    
N1    O27   1.299093 A    
C10   C11   1.539467 S    
C12   C14   1.563462 S    
O2    C1    1.276305 A    
O14   Cr4   2.080412 S    
C22   C23   1.381205 A    
H5    C9    1.113941 S    
O22   Cr5   2.087467 S    
C14   H10   1.112821 S    
C60   H37   1.076954 S    
C35   C39   1.387341 A    
O7    C6    1.258089 A    
C52   H34   1.082789 S    
C17   C24   1.409672 A    
C46   C47   1.404333 A    
C2    C12   1.475674 S    
C16   C20   1.410303 A    
C7    H2    1.112028 S    
C55   C70   1.456553 S    
C48   C49   1.369002 A    
O12   Cr3   1.963858 S    
O20   C70   1.238294 A    
O25   C70   1.303332 A    
C57   C63   1.412911 A    
C45   C49   1.392278 A    
C28   C29   1.382073 A    
O3    Cr2   2.075870 S    
C38   C44   1.411575 A    
O23   Cr5   1.956807 S    
C4    O9    1.279819 A    
C27   C34   1.431032 A    
C20   C21   1.393490 A    
H24   C38   1.082967 S    
Cr6   O26   1.994922 S    
O10   C5    1.276284 A    
C69   O24   1.244171 A    
C30   H20   1.082877 S    
Cr3   O13   1.986731 S    
O18   Cr6   2.087391 S    
O14   C67   1.278661 A    
C39   H26   1.082800 S    
C62   H40   1.082479 S    
C15   C19   1.390905 A    
C65   O16   1.279089 A    
C4    C64   1.439293 S    
