data_str_m9_o16_o24_f0_sra.sym.87
_audit_creation_date              2013-03-05T15:48:56-0500
_audit_creation_method            fapswitch 2.2
_symmetry_space_group_name_H-M    P1
_symmetry_Int_Tables_number       1
_space_group_crystal_system       triclinic
_cell_length_a                    6.945186
_cell_length_b                    13.473576
_cell_length_c                    20.117362
_cell_angle_alpha                 104.120021
_cell_angle_beta                  90.287699
_cell_angle_gamma                 90.488387
_cell_volume                      1825.52022882

loop_
_atom_site_label
_atom_site_type_symbol
_atom_site_description
_atom_site_fract_x
_atom_site_fract_y
_atom_site_fract_z
_atom_type_partial_charge
O1    O     O_R   0.506780 0.600060 0.449950 -0.591415
O2    O     O_R   0.179840 0.597110 0.589410 -0.598093
O3    O     O_R   0.004570 0.399940 0.550050 -0.592610
C1    C     C_R   0.348827 0.618969 0.616914 0.905864
O4    O     O_R   0.177380 0.612160 0.452890 -0.595333
O5    O     O_R   0.002100 0.415100 0.412560 -0.595150
C2    C     C_R   0.346301 0.639165 0.436465 0.929433
O6    O     O_R   0.509250 0.584900 0.587440 -0.596119
O7    O     O_3   0.337570 0.435330 0.486930 -0.274386
V1    V     V_3+5 0.064650 0.512000 0.502430 1.156830
O8    O     O_R   0.672090 0.402890 0.410590 -0.598464
C3    C     C_R   0.840021 0.381016 0.383053 0.912597
O9    O     O_R   0.674540 0.387840 0.547110 -0.594436
C4    C     C_R   0.843260 0.360966 0.563696 0.927606
V2    V     V_3+5 0.564040 0.488000 0.497570 1.157892
O10   O     O_3   0.840990 0.564670 0.513070 -0.274376
C5    C     C_R   0.895465 0.108383 0.609165 -0.173083
H1    H     H_    0.890895 0.157295 0.515339 0.103304
H2    H     H_    0.924847 0.984074 0.692409 0.128225
H3    H     H_    0.917402 0.029025 0.582765 0.116152
C6    C     C_R   0.852504 0.283665 0.603448 -0.085853
C7    C     C_R   0.830475 0.322325 0.934442 0.366753
C8    C     C_R   0.806257 0.396654 0.897466 -0.202320
C9    C     C_R   0.814012 0.371562 0.826267 -0.253298
C10   C     C_R   0.845977 0.269918 0.788634 0.115277
C11   C     C_R   0.867647 0.192969 0.825704 0.072785
C12   C     C_R   0.855829 0.242059 0.715411 0.096515
C13   C     C_R   0.884457 0.137821 0.680988 0.188789
C14   C     C_R   0.903135 0.063679 0.718332 -0.258550
C15   C     C_R   0.895495 0.090576 0.789372 -0.197388
C16   C     C_R   0.840000 0.314070 0.674897 -0.247997
C17   C     C_R   0.880176 0.181003 0.570663 -0.178225
C18   C     C_R   0.859666 0.219567 0.898486 -0.357175
H4    H     H_    0.820794 0.394613 0.696965 0.100194
H5    H     H_    0.793710 0.434104 0.802431 0.131971
H6    H     H_    0.783099 0.475713 0.924143 0.161599
H7    H     H_    0.911980 0.029785 0.815522 0.119341
C19   C     C_3   0.777945 0.158401 0.250267 -0.157047
C20   C     C_3   0.953765 0.207916 0.294135 -0.138676
H8    H     H_    0.033944 0.173785 0.330840 0.105703
H9    H     H_    0.713375 0.082637 0.249956 0.119954
C21   C     C_3   0.847636 0.310760 0.312396 -0.098617
C22   C     C_3   0.671623 0.262028 0.269337 -0.138117
C23   C     C_3   0.759174 0.291450 0.205990 -0.070658
C24   C     C_3   0.935025 0.340953 0.249835 -0.104794
C25   C     C_3   0.041311 0.237314 0.230779 -0.085452
C26   C     C_3   0.865295 0.188642 0.187732 -0.094604
H10   H     H_    0.519039 0.272349 0.285551 0.117335
H11   H     H_    0.679008 0.325501 0.169245 0.156791
H12   H     H_    0.999890 0.416647 0.250066 0.114114
H13   H     H_    0.193853 0.226812 0.214535 0.112875
C27   C     C_3   0.538443 0.724982 0.730976 -0.104781
C28   C     C_3   0.458816 0.835342 0.750068 -0.131073
H14   H     H_    0.543054 0.906000 0.750702 0.113060
H15   H     H_    0.688521 0.703881 0.715131 0.111118
C29   C     C_3   0.356538 0.811587 0.812266 -0.078763
C30   C     C_3   0.436280 0.702081 0.793987 -0.138330
C31   C     C_3   0.254076 0.665495 0.749740 -0.127349
C32   C     C_3   0.174459 0.775854 0.768814 -0.101556
C33   C     C_3   0.276630 0.798721 0.705789 -0.135849
C34   C     C_3   0.356368 0.689173 0.687530 -0.082005
H16   H     H_    0.501620 0.662570 0.830855 0.104230
H17   H     H_    0.169864 0.594848 0.749136 0.104338
H18   H     H_    0.024435 0.797134 0.784649 0.108735
H19   H     H_    0.211327 0.838236 0.668921 0.099479
C35   C     C_R   0.370147 0.893828 0.392282 -0.174540
H20   H     H_    0.365970 0.844280 0.485861 0.102793
H21   H     H_    0.380217 0.019967 0.309788 0.129585
H22   H     H_    0.377162 0.974001 0.419114 0.116483
C36   C     C_R   0.355307 0.716720 0.397008 -0.085955
C37   C     C_R   0.346930 0.680281 0.067086 -0.178946
C38   C     C_R   0.338538 0.603474 0.102160 0.012780
C39   C     C_R   0.341659 0.627825 0.173570 -0.176470
C40   C     C_R   0.352992 0.730999 0.212102 0.077766
C41   C     C_R   0.360206 0.809474 0.175703 0.107694
C42   C     C_R   0.357160 0.758927 0.285368 0.093540
C43   C     C_R   0.366816 0.864297 0.320337 0.195076
C44   C     C_R   0.372918 0.939560 0.283444 -0.257208
C45   C     C_R   0.370060 0.912797 0.212340 -0.223968
C46   C     C_R   0.352058 0.686057 0.325426 -0.243027
C47   C     C_R   0.364029 0.820376 0.430380 -0.179083
C48   C     C_R   0.357549 0.782893 0.103088 -0.171830
H23   H     H_    0.345072 0.604884 0.302923 0.101446
H24   H     H_    0.344905 0.659681 0.011531 0.107299
H25   H     H_    0.334599 0.563890 0.196794 0.118016
H26   H     H_    0.329651 0.524170 0.073761 0.157787
H27   H     H_    0.375486 0.974237 0.186297 0.126397
O11   O     O_R   0.203580 0.914920 0.912610 -0.603951
O12   O     O_R   0.535710 0.887810 0.047120 -0.595727
O13   O     O_R   0.710730 0.084950 0.087430 -0.600700
C49   C     C_R   0.366845 0.860925 0.063686 0.927811
O14   O     O_R   0.533010 0.902850 0.910600 -0.601938
O15   O     O_R   0.708010 0.100090 0.949930 -0.598979
C50   C     C_R   0.364060 0.881323 0.883003 0.904262
O16   O     O_R   0.206300 0.899780 0.050100 -0.596716
O17   O     O_3   0.375170 0.064580 0.013100 -0.263362
V3    V     V_3+5 0.648200 0.988020 0.997570 1.174209
O18   O     O_R   0.038030 0.112330 0.952840 -0.576748
C51   C     C_R   0.869210 0.139473 0.936584 1.045163
O19   O     O_R   0.040730 0.097300 0.089360 -0.588614
C52   C     C_R   0.872852 0.118666 0.117035 0.983735
V4    V     V_3+5 0.148780 0.012220 0.002360 1.192389
O20   O     O_3   0.871930 0.935430 0.986900 -0.287727
N1    N     N_R   0.823873 0.352557 0.008235 0.217190
O21   O     O_R   0.721702 0.430790 0.038836 -0.438123
O22   O     O_R   0.937225 0.310759 0.045103 -0.454733

loop_
_geom_bond_atom_site_label_1
_geom_bond_atom_site_label_2
_geom_bond_distance
_ccdc_geom_bond_type
C23   H11   1.110240 S    
C26   C52   1.503926 S    
O17   V4    1.708766 S    
C39   C40   1.418194 A    
C1    O6    1.298535 A    
C2    C36   1.459440 S    
C45   H27   1.082800 S    
C30   H16   1.110309 S    
C43   C44   1.395626 A    
C27   C28   1.549793 S    
C29   C50   1.502214 S    
C6    C16   1.398566 A    
C32   H18   1.110496 S    
C40   C42   1.429565 A    
C4    C6    1.461302 S    
C13   C14   1.395193 A    
C27   H15   1.110429 S    
C27   C34   1.539000 S    
O5    C3    1.296864 A    
C19   C20   1.550163 S    
C35   H22   1.083962 S    
V2    O10   2.160331 S    
O18   C51   1.295082 A    
C5    H3    1.084012 S    
C7    N1    1.441445 S    
C29   C30   1.539516 S    
C35   C43   1.404339 A    
C36   C47   1.394844 A    
C3    C21   1.504801 S    
O8    V2    1.997202 S    
C8    C9    1.390535 A    
O1    V2    2.016846 S    
O12   C49   1.293570 A    
C22   H10   1.110225 S    
O15   C51   1.292091 A    
O13   V3    1.998177 S    
C23   C26   1.539074 S    
C37   C48   1.396630 A    
C31   C34   1.540341 S    
C32   C33   1.549816 S    
O9    C4    1.295298 A    
C46   H23   1.077390 S    
O19   V4    1.997351 S    
N1    O21   1.301589 A    
C28   C33   1.549702 S    
O14   V3    2.002172 S    
C20   C21   1.539522 S    
H21   C44   1.084341 S    
C6    C17   1.394973 A    
O11   C50   1.298324 A    
C9    H5    1.076288 S    
C40   C41   1.426153 A    
C36   C46   1.397904 A    
C9    C10   1.413859 A    
C19   H9    1.110065 S    
C20   H8    1.110275 S    
O4    C2    1.293535 A    
C44   C45   1.387240 A    
C10   C11   1.425658 A    
O18   V4    2.017190 S    
C12   C16   1.415790 A    
C25   H13   1.110256 S    
C48   C49   1.464188 S    
C15   H7    1.082569 S    
O12   V3    2.018297 S    
C33   C34   1.540014 S    
C18   C51   1.469899 S    
C21   C24   1.539854 S    
O2    C1    1.295535 A    
C22   C23   1.549530 S    
O13   C52   1.296692 A    
C14   C15   1.387425 A    
C11   C18   1.421436 A    
O11   V4    1.995994 S    
O17   V3    2.153944 S    
O14   C50   1.295490 A    
C16   H4    1.077286 S    
C42   C43   1.423220 A    
C39   H25   1.076400 S    
C19   C26   1.539586 S    
V3    O20   1.706020 S    
O3    C4    1.292146 A    
C20   C25   1.549551 S    
C33   H19   1.110252 S    
H20   C47   1.083532 S    
O6    V2    1.995428 S    
O9    V2    2.017320 S    
H1    C17   1.083534 S    
C21   C22   1.540787 S    
O2    V1    2.002033 S    
O15   V3    2.017547 S    
C23   C24   1.550071 S    
C37   H24   1.083856 S    
O7    V1    2.153918 S    
C28   C29   1.540491 S    
C31   H17   1.110431 S    
C7    C18   1.413812 A    
C25   C26   1.540466 S    
O1    C2    1.292342 A    
C5    C13   1.404580 A    
C42   C46   1.414338 A    
C38   C39   1.393371 A    
O5    V1    1.998182 S    
C38   H26   1.082863 S    
O8    C3    1.298734 A    
O16   V4    2.023229 S    
C41   C48   1.416666 A    
C28   H14   1.110526 S    
N1    O22   1.300977 A    
C10   C12   1.430778 A    
C29   C32   1.538909 S    
C31   C32   1.549750 S    
O4    V1    2.018276 S    
O3    V1    2.017547 S    
V1    O10   1.705980 S    
C35   C47   1.392254 A    
C30   C31   1.549404 S    
C24   H12   1.110366 S    
C1    C34   1.502796 S    
O19   C52   1.298577 A    
O7    V2    1.710801 S    
V4    O20   2.160403 S    
C27   C30   1.549722 S    
C49   O16   1.291793 A    
C24   C25   1.549520 S    
C19   C22   1.549504 S    
C37   C38   1.388478 A    
C8    H6    1.083245 S    
C12   C13   1.422397 A    
C5    C17   1.392587 A    
C7    C8    1.396300 A    
C41   C45   1.408264 A    
C11   C15   1.410287 A    
H2    C14   1.084305 S    
