data_str_m4_o4_o24_f0_acs.sym.117
_audit_creation_date              2012-12-11T15:50:24-0500
_audit_creation_method            fapswitch 2.2
_symmetry_space_group_name_H-M    P1
_symmetry_Int_Tables_number       1
_space_group_crystal_system       triclinic
_cell_length_a                    19.26075
_cell_length_b                    11.417272
_cell_length_c                    18.631842
_cell_angle_alpha                 90.052276
_cell_angle_beta                  90.217986
_cell_angle_gamma                 89.093804
_cell_volume                      4096.69575781

loop_
_atom_site_label
_atom_site_type_symbol
_atom_type_description
_atom_site_fract_x
_atom_site_fract_y
_atom_site_fract_z
_atom_type_partial_charge
C1    C     C_R   0.270152 0.047384 0.850811 0.604084
C2    C     C_R   0.729499 0.047560 0.149180 0.599589
C3    C     C_R   0.770144 0.547400 0.850802 0.606222
C4    C     C_R   0.229497 0.547550 0.149176 0.600739
C5    C     C_3   0.530733 0.722605 0.968325 -0.185401
C6    C     C_3   0.475602 0.720237 0.030076 -0.171284
C7    C     C_3   0.030738 0.222596 0.968327 -0.185620
C8    C     C_3   0.975592 0.220230 0.030064 -0.171240
C9    C     C_R   0.249952 0.602445 0.080567 0.085977
C10   C     C_R   0.744019 0.611563 0.915220 0.043029
C11   C     C_R   0.749962 0.102495 0.080581 0.085845
C12   C     C_R   0.244042 0.111531 0.915237 0.042119
C13   C     C_R   0.309098 0.570798 0.042389 0.022588
C14   C     C_R   0.687077 0.575131 0.954921 -0.009614
C15   C     C_R   0.809114 0.070871 0.042405 0.022549
C16   C     C_R   0.187087 0.075132 0.954928 -0.009945
C17   C     C_R   0.311716 0.580484 0.968280 0.067287
C18   C     C_R   0.684940 0.588548 0.029065 0.043746
C19   C     C_R   0.811728 0.080543 0.968292 0.066041
C20   C     C_R   0.184943 0.088562 0.029071 0.044812
C21   C     C_R   0.195892 0.662354 0.967322 0.172940
C22   C     C_R   0.794117 0.688993 0.026217 0.158394
C23   C     C_R   0.695896 0.162375 0.967329 0.173162
C24   C     C_R   0.294133 0.188979 0.026232 0.159109
C25   C     C_R   0.200265 0.671214 0.042430 -0.001622
C26   C     C_R   0.789845 0.688525 0.950564 -0.019434
C27   C     C_R   0.700263 0.171230 0.042439 -0.000637
C28   C     C_R   0.289882 0.188467 0.950582 -0.020270
C29   C     C_3   0.351366 0.464349 0.043106 -0.235990
C30   C     C_3   0.652775 0.460346 0.958842 -0.233015
C31   C     C_3   0.851370 0.964402 0.043114 -0.236301
C32   C     C_3   0.152769 0.960360 0.958853 -0.232804
C33   C     C_3   0.358047 0.476491 0.962162 -0.251559
C34   C     C_3   0.647811 0.476944 0.039346 -0.260471
C35   C     C_3   0.858057 0.976549 0.962173 -0.250849
C36   C     C_3   0.147806 0.976966 0.039357 -0.261492
C37   C     C_R   0.252505 0.612045 0.928389 0.132487
C38   C     C_R   0.742373 0.630026 0.066973 0.081388
C39   C     C_R   0.752514 0.112085 0.928399 0.131633
C40   C     C_R   0.242373 0.130040 0.066981 0.082887
C41   C     C_R   0.488640 0.825910 0.418107 0.016314
C42   C     C_R   0.448041 0.822887 0.562982 0.031289
C43   C     C_R   0.994530 0.324809 0.420137 0.026547
C44   C     C_R   0.954332 0.323830 0.564373 0.048914
C45   C     C_R   0.467203 0.818999 0.855258 0.606492
C46   C     C_R   0.532408 0.820228 0.144035 0.598026
C47   C     C_R   0.967223 0.319000 0.855247 0.605669
C48   C     C_R   0.032401 0.320228 0.144036 0.597433
C49   C     C_R   0.484887 0.721244 0.456700 0.040950
C50   C     C_R   0.464548 0.719147 0.527085 0.011501
C51   C     C_R   0.007086 0.228193 0.464067 0.043590
C52   C     C_R   0.988693 0.228446 0.534068 0.025256
C53   C     C_R   0.440104 0.926296 0.522169 -0.066731
C54   C     C_R   0.460867 0.928075 0.449507 -0.096092
C55   C     C_R   0.929322 0.413381 0.518181 -0.068852
C56   C     C_R   0.951032 0.415337 0.445734 -0.098400
C57   C     C_3   0.541665 0.633181 0.469808 -0.236040
C58   C     C_3   0.517840 0.627385 0.546402 -0.242577
C59   C     C_3   0.072786 0.161324 0.478799 -0.234372
C60   C     C_3   0.052403 0.162120 0.557130 -0.235173
C61   C     C_R   0.249907 0.603171 0.417612 0.019857
C62   C     C_R   0.746372 0.590469 0.581624 0.036413
C63   C     C_R   0.753021 0.117547 0.413093 0.017013
C64   C     C_R   0.255743 0.072628 0.573051 0.012573
C65   C     C_R   0.201948 0.672404 0.455490 -0.032121
C66   C     C_R   0.772832 0.692337 0.554446 -0.015850
C67   C     C_R   0.703852 0.185370 0.450640 -0.039289
C68   C     C_R   0.304801 0.137740 0.538172 -0.017807
C69   C     C_R   0.204762 0.674548 0.528113 0.019557
C70   C     C_R   0.771415 0.715129 0.483975 0.032755
C71   C     C_R   0.710965 0.198267 0.522929 -0.008438
C72   C     C_R   0.308949 0.140744 0.465609 0.058140
C73   C     C_R   0.314048 0.571091 0.527989 -0.171457
C74   C     C_R   0.703841 0.543840 0.462307 -0.174958
C75   C     C_R   0.827938 0.125642 0.518455 -0.169575
C76   C     C_R   0.212306 0.008926 0.456853 -0.180090
C77   C     C_R   0.310609 0.565798 0.452999 -0.162350
C78   C     C_R   0.708698 0.517147 0.535065 -0.172058
C79   C     C_R   0.819233 0.102625 0.444474 -0.148651
C80   C     C_R   0.211543 0.001625 0.531665 -0.166876
C81   C     C_3   0.123848 0.686596 0.456319 -0.188530
C82   C     C_3   0.816426 0.793974 0.573337 -0.206304
C83   C     C_3   0.626052 0.179417 0.457508 -0.171216
C84   C     C_3   0.326811 0.260132 0.549990 -0.252819
C85   C     C_3   0.128359 0.690166 0.537905 0.126795
C86   C     C_3   0.813612 0.822729 0.492751 0.157492
C87   C     C_3   0.635650 0.183054 0.538389 0.133422
C88   C     C_3   0.335391 0.264475 0.469165 0.147761
C89   C     C_R   0.259926 0.637034 0.851568 0.611864
C90   C     C_R   0.738525 0.643732 0.145837 0.588723
C91   C     C_R   0.759924 0.137030 0.851568 0.621043
C92   C     C_R   0.238527 0.143727 0.145840 0.583680
C93   C     C_R   0.257163 0.617316 0.566587 0.046298
C94   C     C_R   0.735404 0.645488 0.436059 0.021437
C95   C     C_R   0.771083 0.166285 0.559409 0.021567
C96   C     C_R   0.257139 0.087717 0.423990 -0.001414
C97   C     C_R   0.271892 0.042697 0.645926 0.525471
C98   C     C_R   0.729385 0.049716 0.351402 0.526046
C99   C     C_R   0.770747 0.545488 0.648154 0.520772
C100  C     C_R   0.228638 0.547453 0.352116 0.534582
C101  C     C_R   0.438212 0.819217 0.640673 0.560241
C102  C     C_R   0.529043 0.823071 0.351680 0.528989
C103  C     C_R   0.939286 0.319490 0.640522 0.526966
C104  C     C_R   0.029204 0.323055 0.351302 0.530444
C105  C     C_R   0.261725 0.642748 0.641905 0.575492
C106  C     C_R   0.727581 0.681025 0.363385 0.537845
C107  C     C_R   0.774176 0.186804 0.636386 0.552855
C108  C     C_R   0.240949 0.137821 0.355172 0.528532
C109  C     C_3   0.471800 0.912687 0.028813 -0.103207
C110  C     C_3   0.522797 0.913057 0.966290 -0.116134
C111  C     C_3   0.971796 0.412681 0.028805 -0.103429
C112  C     C_3   0.022805 0.413052 0.966293 -0.115842
C113  C     C_3   0.433023 0.814203 0.990501 0.274828
C114  C     C_3   0.567597 0.822653 0.007355 0.258817
C115  C     C_3   0.933025 0.314202 0.990478 0.274499
C116  C     C_3   0.067594 0.322643 0.007365 0.258895
C117  C     C_3   0.485890 0.816830 0.930133 0.004464
C118  C     C_3   0.513689 0.820683 0.067476 0.010083
C119  C     C_3   0.985909 0.316826 0.930125 0.004033
C120  C     C_3   0.013675 0.320675 0.067476 0.010832
Cr1   Cr    Cr6+3 0.229640 0.835880 0.747370 1.079613
Cr2   Cr    Cr6+3 0.770360 0.835880 0.252630 1.131973
Cr3   Cr    Cr6+3 0.729640 0.335880 0.747370 1.055982
Cr4   Cr    Cr6+3 0.270360 0.335880 0.252630 1.120110
Cr5   Cr    Cr6+3 0.387390 0.989720 0.750850 1.092990
Cr6   Cr    Cr6+3 0.612610 0.989720 0.249150 1.109145
Cr7   Cr    Cr6+3 0.887390 0.489720 0.750850 1.103145
Cr8   Cr    Cr6+3 0.112610 0.489720 0.249150 1.099783
Cr9   Cr    Cr6+3 0.385770 0.677220 0.749340 1.030905
Cr10  Cr    Cr6+3 0.614230 0.677220 0.250660 1.049329
Cr11  Cr    Cr6+3 0.885770 0.177220 0.749340 1.040990
Cr12  Cr    Cr6+3 0.114230 0.177220 0.250660 1.046364
H1    H     H_    0.423308 0.006486 0.547876 0.203394
H2    H     H_    0.460386 0.009387 0.420027 0.214551
H3    H     H_    0.896444 0.483470 0.538615 0.176490
H4    H     H_    0.935928 0.486983 0.410885 0.181517
H5    H     H_    0.119930 0.213168 0.467522 0.162436
H6    H     H_    0.040439 0.073532 0.577995 0.156147
H7    H     H_    0.593079 0.674394 0.464551 0.156736
H8    H     H_    0.494047 0.542332 0.560326 0.152843
H9    H     H_    0.535129 0.550952 0.439126 0.201744
H10   H     H_    0.557798 0.658524 0.584936 0.184108
H11   H     H_    0.071496 0.072732 0.454272 0.144879
H12   H     H_    0.087470 0.214931 0.591444 0.187737
H13   H     H_    0.359626 0.536466 0.555287 0.151924
H14   H     H_    0.675776 0.485282 0.427262 0.147062
H15   H     H_    0.876358 0.102173 0.544410 0.177042
H16   H     H_    0.174405 0.961478 0.425715 0.127955
H17   H     H_    0.351497 0.522888 0.423320 0.200759
H18   H     H_    0.686672 0.436163 0.553581 0.130663
H19   H     H_    0.860920 0.060787 0.414940 0.202288
H20   H     H_    0.176036 0.942423 0.556914 0.131094
H21   H     H_    0.095472 0.610033 0.434970 0.225930
H22   H     H_    0.868458 0.766645 0.593905 0.197370
H23   H     H_    0.602366 0.098387 0.436741 0.232304
H24   H     H_    0.375274 0.265511 0.582071 0.170580
H25   H     H_    0.106625 0.771720 0.432879 0.094880
H26   H     H_    0.788162 0.858983 0.607181 0.161871
H27   H     H_    0.600521 0.260333 0.436217 0.151845
H28   H     H_    0.283448 0.316994 0.569598 0.120608
H29   H     H_    0.113303 0.776356 0.561051 0.085569
H30   H     H_    0.782102 0.901299 0.479881 0.120837
H31   H     H_    0.611579 0.261410 0.564172 0.081246
H32   H     H_    0.300472 0.329901 0.443157 0.132923
H33   H     H_    0.457098 0.992747 0.058672 0.192841
H34   H     H_    0.538470 0.988322 0.932925 0.193408
H35   H     H_    0.957085 0.492736 0.058668 0.192328
H36   H     H_    0.038485 0.488313 0.932929 0.194506
H37   H     H_    0.553795 0.646311 0.940353 0.132972
H38   H     H_    0.455582 0.642372 0.057707 0.135302
H39   H     H_    0.053804 0.146308 0.940354 0.132915
H40   H     H_    0.955568 0.142370 0.057695 0.135028
H41   H     H_    0.156908 0.711619 0.070400 0.153924
H42   H     H_    0.834996 0.718496 0.922195 0.163739
H43   H     H_    0.656898 0.211617 0.070406 0.155193
H44   H     H_    0.335045 0.218411 0.922223 0.162984
H45   H     H_    0.815852 0.896304 0.060567 0.237576
H46   H     H_    0.189655 0.889896 0.943654 0.246919
H47   H     H_    0.315854 0.396254 0.060573 0.237578
H48   H     H_    0.689673 0.389897 0.943639 0.247493
H49   H     H_    0.400539 0.472844 0.073701 0.160620
H50   H     H_    0.601681 0.460194 0.931060 0.162954
H51   H     H_    0.900543 0.972864 0.073712 0.160057
H52   H     H_    0.101676 0.960219 0.931071 0.163248
H53   H     H_    0.411116 0.500384 0.944724 0.157237
H54   H     H_    0.593743 0.491871 0.058356 0.157622
H55   H     H_    0.911127 0.000441 0.944738 0.157597
H56   H     H_    0.093739 0.991906 0.058367 0.156951
H57   H     H_    0.333345 0.407482 0.930084 0.155101
H58   H     H_    0.678973 0.412741 0.071027 0.169376
H59   H     H_    0.833356 0.907545 0.930091 0.156218
H60   H     H_    0.178966 0.912759 0.071038 0.168336
O1    O     O_R   0.214300 0.709080 0.827500 -0.445041
O2    O     O_R   0.785700 0.709080 0.172500 -0.457181
O3    O     O_R   0.714300 0.209080 0.827500 -0.449694
O4    O     O_R   0.285700 0.209080 0.172500 -0.456393
O5    O     O_R   0.445900 0.919370 0.676500 -0.442964
O6    O     O_R   0.554100 0.919370 0.323500 -0.502315
O7    O     O_R   0.945900 0.419370 0.676500 -0.430380
O8    O     O_R   0.054100 0.419370 0.323500 -0.504079
O9    O     O_R   0.456660 0.717710 0.669820 -0.526921
O10   O     O_R   0.543340 0.717710 0.330180 -0.524455
O11   O     O_R   0.956660 0.217710 0.669820 -0.531791
O12   O     O_R   0.043340 0.217710 0.330180 -0.518018
O13   O     O_R   0.320590 0.625770 0.672930 -0.543735
O14   O     O_R   0.679410 0.625770 0.327070 -0.522984
O15   O     O_R   0.820590 0.125770 0.672930 -0.508016
O16   O     O_R   0.179410 0.125770 0.327070 -0.519443
O17   O     O_3   0.334270 0.834280 0.749190 -0.299498
O18   O     O_3   0.665730 0.834280 0.250810 -0.289673
O19   O     O_3   0.834270 0.334280 0.749190 -0.317027
O20   O     O_3   0.165730 0.334280 0.250810 -0.270248
O21   O     O_R   0.236190 0.958390 0.823150 -0.479133
O22   O     O_R   0.763810 0.958390 0.176850 -0.487075
O23   O     O_R   0.736190 0.458390 0.823150 -0.479061
O24   O     O_R   0.263810 0.458390 0.176850 -0.485769
O25   O     O_R   0.332090 0.075280 0.831290 -0.492301
O26   O     O_R   0.667910 0.075280 0.168710 -0.460998
O27   O     O_R   0.832090 0.575280 0.831290 -0.490574
O28   O     O_R   0.167910 0.575280 0.168710 -0.463293
O29   O     O_R   0.446280 0.918040 0.826620 -0.455055
O30   O     O_R   0.553720 0.918040 0.173380 -0.431483
O31   O     O_R   0.946280 0.418040 0.826620 -0.451232
O32   O     O_R   0.053720 0.418040 0.173380 -0.434549
O33   O     O_R   0.457080 0.716270 0.831760 -0.520556
O34   O     O_R   0.542920 0.716270 0.168240 -0.523671
O35   O     O_R   0.957080 0.216270 0.831760 -0.521012
O36   O     O_R   0.042920 0.216270 0.168240 -0.524686
O37   O     O_R   0.320980 0.624440 0.823040 -0.499814
O38   O     O_R   0.679020 0.624440 0.176960 -0.493090
O39   O     O_R   0.820980 0.124440 0.823040 -0.494112
O40   O     O_R   0.179020 0.124440 0.176960 -0.497930
O41   O     O_R   0.213880 0.710510 0.665560 -0.487036
O42   O     O_R   0.786120 0.710510 0.334440 -0.443691
O43   O     O_R   0.713880 0.210510 0.665560 -0.481484
O44   O     O_R   0.286120 0.210510 0.334440 -0.483820
O45   O     O_R   0.235800 0.959720 0.673040 -0.532892
O46   O     O_R   0.764200 0.959720 0.326960 -0.499172
O47   O     O_R   0.735800 0.459720 0.673040 -0.550260
O48   O     O_R   0.264200 0.459720 0.326960 -0.517326
O49   O     O_R   0.331670 0.076720 0.669350 -0.531235
O50   O     O_R   0.668330 0.076720 0.330650 -0.533353
O51   O     O_R   0.831670 0.576720 0.669350 -0.531523
O52   O     O_R   0.168330 0.576720 0.330650 -0.533567
S1    S     S_3+6 0.346464 0.849775 0.985960 -0.062126
O53   O     O_2   0.314606 0.821800 0.915468 -0.290619
O54   O     O_2   0.308566 0.806158 0.049749 -0.401163
O55   O     O_3   0.346366 0.989809 0.993918 -0.534830
H61   H     H_    0.345275 0.995958 0.046831 0.365122
S2    S     S_3+6 0.642945 0.892154 0.026880 -0.040229
O56   O     O_2   0.682566 0.834308 0.085347 -0.300092
O57   O     O_2   0.686052 0.907769 0.960978 -0.358002
O58   O     O_3   0.609989 0.015480 0.062682 -0.524242
H62   H     H_    0.582522 0.061442 0.028442 0.352814
S3    S     S_3+6 0.846479 0.349834 0.985809 -0.062170
O59   O     O_2   0.814699 0.321797 0.915290 -0.290535
O60   O     O_2   0.808477 0.306333 0.049562 -0.400721
O61   O     O_3   0.846439 0.489884 0.993685 -0.534815
H63   H     H_    0.845313 0.496068 0.046592 0.365335
S4    S     S_3+6 0.142941 0.392139 0.026897 -0.040119
O62   O     O_2   0.182551 0.334298 0.085373 -0.298984
O63   O     O_2   0.186058 0.407733 0.961000 -0.359064
O64   O     O_3   0.109985 0.515475 0.062686 -0.524359
H64   H     H_    0.082530 0.561440 0.028438 0.352239
S5    S     S_3+6 0.086231 0.569684 0.580413 0.016836
O65   O     O_2   0.095760 0.460004 0.536683 -0.303871
O66   O     O_2   0.114204 0.547989 0.654645 -0.248064
O67   O     O_3   0.001506 0.604631 0.586549 -0.476506
H65   H     H_    0.999525 0.675627 0.617105 0.341404
S6    S     S_3+6 0.898288 0.814428 0.452780 -0.020395
O68   O     O_2   0.927133 0.692009 0.458844 -0.284468
O69   O     O_2   0.894810 0.849016 0.375094 -0.264376
O70   O     O_3   0.951036 0.906237 0.496719 -0.580341
H66   H     H_    0.997887 0.889840 0.477054 0.349865
S7    S     S_3+6 0.614532 0.045269 0.581161 0.024979
O71   O     O_2   0.600219 0.951324 0.526845 -0.297898
O72   O     O_2   0.671373 0.000286 0.629665 -0.257091
O73   O     O_3   0.543007 0.069222 0.630461 -0.481819
H67   H     H_    0.557301 0.125147 0.668197 0.342249
S8    S     S_3+6 0.424584 0.270710 0.441932 -0.048073
O74   O     O_2   0.432594 0.221389 0.367590 -0.242303
O75   O     O_2   0.448461 0.394923 0.441823 -0.373022
O76   O     O_3   0.474911 0.193233 0.498907 -0.550176
H68   H     H_    0.487964 0.249174 0.537085 0.345339
Br1   Br    Br    0.106521 0.702011 0.923316 -0.555836
Br2   Br    Br    0.888676 0.708660 0.064429 -0.564346
Br3   Br    Br    0.606523 0.202004 0.923317 -0.567965
Br4   Br    Br    0.388690 0.208625 0.064461 -0.560112

loop_
_geom_bond_atom_site_label_1
_geom_bond_atom_site_label_2
_ccdc_geom_bond_type
S3    O60   D    
C73   C93   A    
Cr8   O32   S    
C108  O44   A    
C75   C95   A    
C48   C120  S    
C104  O12   A    
C16   C20   A    
C63   C98   S    
Cr3   O23   S    
C5    C6    S    
C20   C40   A    
C71   C95   A    
C92   O40   A    
S2    O57   D    
C22   C38   A    
C29   C33   S    
C33   H57   S    
C34   H54   S    
C9    C13   A    
C109  H33   S    
C22   Br2   S    
C11   C15   A    
C12   C16   A    
C107  O15   A    
Cr10  O10   S    
S2    O58   S    
C96   C108  S    
C59   C60   S    
S1    O53   D    
C30   H50   S    
C32   H46   S    
Cr2   O2    S    
C41   C49   A    
C109  C118  S    
C9    C25   A    
C51   C52   A    
C7    C119  S    
C53   H1    S    
C30   C34   S    
C36   H56   S    
Cr1   O21   S    
C66   C82   S    
C91   O3    A    
C11   C27   A    
C68   C72   A    
C89   O1    A    
C45   O33   A    
C64   C97   S    
Cr2   O42   S    
C2    O22   A    
Cr8   O52   S    
S6    O69   D    
C111  H35   S    
Cr9   O17   S    
C110  C114  S    
C58   H8    S    
C47   O31   A    
C84   C88   S    
C92   O4    A    
C106  O14   A    
C37   C89   S    
C97   O45   A    
C38   C90   S    
C69   C93   A    
C46   O30   A    
Cr5   O25   S    
C18   C38   A    
C101  O9    A    
C76   C96   A    
C84   H24   S    
C44   C55   A    
C66   C70   A    
C113  S1    S    
C98   O50   A    
C62   C99   S    
C72   C96   A    
C61   C65   A    
C76   H16   S    
C29   H47   S    
S1    O55   S    
C91   O39   A    
C2    O26   A    
C26   H42   S    
C19   C35   S    
C75   C79   A    
C60   H12   S    
Cr6   O26   S    
C60   H6    S    
C54   H2    S    
C67   C83   S    
C4    O24   A    
C111  C112  S    
C108  O16   A    
Cr11  O15   S    
C7    C8    S    
C53   C54   A    
C46   C118  S    
C64   C68   A    
C42   C53   A    
O58   H62   S    
C82   H26   S    
C101  O5    A    
C83   H23   S    
C49   C57   S    
C41   C102  S    
C43   C104  S    
C52   C60   S    
C61   C77   A    
Cr6   O50   S    
Cr2   O18   S    
Cr8   O28   S    
C100  O52   A    
Cr9   O9    S    
Cr6   O6    S    
C59   H11   S    
C104  O8    A    
C1    C12   S    
C87   S7    S    
C2    C11   S    
C56   H4    S    
C44   C103  S    
Cr3   O47   S    
C62   C66   A    
C34   H58   S    
S7    O73   S    
Cr7   O51   S    
S8    O74   D    
C10   C14   A    
Cr5   O17   S    
C103  O7    A    
C48   O32   A    
C88   H32   S    
C116  C120  S    
C73   H13   S    
Cr4   O44   S    
C7    C116  S    
Cr10  O14   S    
C25   H41   S    
Cr4   O4    S    
C30   H48   S    
S5    O66   D    
Cr10  O34   S    
Cr1   O45   S    
C113  C117  S    
C35   H55   S    
C42   C50   A    
C115  C119  S    
Cr11  O19   S    
C61   C100  S    
C42   C101  S    
C112  C116  S    
C69   C85   S    
C6    H38   S    
Cr11  O39   S    
C48   O36   A    
C21   C25   A    
C35   H59   S    
C106  O42   A    
C36   H60   S    
C62   C78   A    
C76   C80   A    
S4    O62   D    
Cr7   O7    S    
C1    O25   A    
C15   C31   S    
Cr5   O29   S    
C16   C32   S    
C13   C17   A    
C45   O29   A    
O61   H63   S    
C57   C58   S    
Cr2   O46   S    
C100  O48   A    
C47   O35   A    
C49   C50   A    
Cr9   O33   S    
O76   H68   S    
O73   H67   S    
C90   O38   A    
C4    C9    S    
C81   C85   S    
C23   Br3   S    
C83   C87   S    
C55   C56   A    
C24   Br4   S    
C7    H39   S    
C85   H29   S    
C74   C94   A    
S7    O71   D    
S8    O76   S    
C84   H28   S    
Cr7   O27   S    
O64   H64   S    
C15   C19   A    
C78   H18   S    
C12   C28   A    
C13   C29   S    
C70   C94   A    
Cr12  O36   S    
Cr4   O48   S    
Cr10  O38   S    
C45   C117  S    
C57   H7    S    
C39   C91   S    
C73   C77   A    
C4    O28   A    
Cr11  O11   S    
C99   O47   A    
S3    O61   S    
C64   C80   A    
S6    O70   S    
Cr3   O3    S    
C17   C33   S    
S4    O64   S    
C110  C117  S    
Cr1   O1    S    
C3    O23   A    
Cr12  O12   S    
C81   H25   S    
C68   C84   S    
C24   C28   A    
C77   H17   S    
C28   H44   S    
Cr4   O20   S    
C75   H15   S    
S2    O56   D    
C82   C86   S    
Cr2   O22   S    
C50   C58   S    
Cr8   O8    S    
Cr9   O13   S    
C58   H10   S    
C65   C81   S    
C90   O2    A    
C88   S8    S    
C95   C107  S    
Cr3   O43   S    
Cr1   O41   S    
S1    O54   D    
C1    O21   A    
C31   C35   S    
C27   H43   S    
C32   C36   S    
O55   H61   S    
C74   H14   S    
C112  C119  S    
C105  O13   A    
C98   O46   A    
C57   H9    S    
C102  O10   A    
C109  C110  S    
Cr8   O20   S    
C43   C51   A    
C65   C69   A    
C67   C71   A    
C99   O51   A    
C97   O49   A    
C20   C36   S    
Cr11  O35   S    
C21   C37   A    
O67   H65   S    
C3    O27   A    
C22   C26   A    
C5    H37   S    
S6    O68   D    
C33   H53   S    
C21   Br1   S    
C8    H40   S    
C114  S2    S    
C87   H31   S    
C5    C114  S    
C14   C18   A    
Cr12  O20   S    
C81   H21   S    
C63   C79   A    
C29   H49   S    
C31   H45   S    
S7    O72   D    
S8    O75   D    
C102  O6    A    
C55   H3    S    
C59   H5    S    
C112  H36   S    
Cr9   O37   S    
C8    C115  S    
C93   C105  S    
Cr3   O19   S    
Cr5   O49   S    
C86   H30   S    
C23   C27   A    
S5    O65   D    
C74   C78   A    
C116  S4    S    
Cr7   O31   S    
C10   C26   A    
C47   C119  S    
Cr5   O5    S    
C14   C30   S    
Cr12  O40   S    
C72   C88   S    
C63   C67   A    
C85   S5    S    
C86   S6    S    
S4    O63   D    
Cr6   O18   S    
C5    C117  S    
C111  C120  S    
C6    C113  S    
O70   H66   S    
C46   O34   A    
C83   H27   S    
C17   C37   A    
C40   C92   S    
C18   C34   S    
C114  C118  S    
C19   C39   A    
Cr7   O19   S    
Cr12  O16   S    
Cr1   O17   S    
C71   C87   S    
Cr10  O18   S    
C51   C59   S    
S3    O59   D    
C70   C86   S    
C8    C120  S    
C79   H19   S    
Cr4   O24   S    
C80   H20   S    
C107  O43   A    
C94   C106  S    
C31   H51   S    
C105  O41   A    
C32   H52   S    
Cr6   O30   S    
C109  C113  S    
C3    C10   S    
C110  H34   S    
C44   C52   A    
C23   C39   A    
C24   C40   A    
S5    O67   S    
C103  O11   A    
C41   C54   A    
C82   H22   S    
C43   C56   A    
C115  S3    S    
C111  C115  S    
C89   O37   A    
C6    C118  S    
