data_str_m4_o4_o14_f0_acs.sym.51
_audit_creation_date              2013-03-05T15:51:15-0500
_audit_creation_method            fapswitch 2.2
_symmetry_space_group_name_H-M    P1
_symmetry_Int_Tables_number       1
_space_group_crystal_system       triclinic
_cell_length_a                    19.002879
_cell_length_b                    10.957465
_cell_length_c                    18.769169
_cell_angle_alpha                 90.012864
_cell_angle_beta                  89.91807
_cell_angle_gamma                 90.146281
_cell_volume                      3908.16300974

loop_
_atom_site_label
_atom_site_type_symbol
_atom_site_description
_atom_site_fract_x
_atom_site_fract_y
_atom_site_fract_z
_atom_type_partial_charge
O1    O     O_R   0.787520 0.042810 0.170440 -0.530847
O2    O     O_R   0.212480 0.042810 0.829560 -0.530294
O3    O     O_R   0.287520 0.542810 0.170440 -0.529863
O4    O     O_R   0.712480 0.542810 0.829560 -0.539370
O5    O     O_R   0.765640 0.292100 0.175020 -0.488702
O6    O     O_R   0.234360 0.292100 0.824980 -0.495887
O7    O     O_R   0.265640 0.792100 0.175020 -0.497983
O8    O     O_R   0.734360 0.792100 0.824980 -0.484823
C1    C     C_R   0.730176 0.375809 0.145797 0.565841
C2    C     C_R   0.274078 0.366943 0.857982 0.546588
C3    C     C_R   0.230546 0.877206 0.146279 0.547523
C4    C     C_R   0.788478 0.829612 0.861389 0.563754
O9    O     O_R   0.670190 0.408840 0.168540 -0.514594
O10   O     O_R   0.329810 0.408840 0.831460 -0.529345
O11   O     O_R   0.170190 0.908840 0.168540 -0.523374
O12   O     O_R   0.829810 0.908840 0.831460 -0.507954
O13   O     O_R   0.556620 0.251410 0.175160 -0.512799
O14   O     O_R   0.443380 0.251410 0.824840 -0.512763
O15   O     O_R   0.056620 0.751410 0.175160 -0.510638
O16   O     O_R   0.943380 0.751410 0.824840 -0.527805
C5    C     C_R   0.530483 0.156497 0.147468 0.535526
C6    C     C_R   0.467507 0.154881 0.853942 0.546518
C7    C     C_R   0.030828 0.656766 0.147204 0.545417
C8    C     C_R   0.968188 0.654911 0.853528 0.526525
O17   O     O_R   0.545960 0.049620 0.170320 -0.514874
O18   O     O_R   0.454040 0.049620 0.829680 -0.511886
O19   O     O_R   0.045960 0.549620 0.170320 -0.516839
O20   O     O_R   0.954040 0.549620 0.829680 -0.515774
O21   O     O_R   0.681390 0.958010 0.176690 -0.494588
O22   O     O_R   0.318610 0.958010 0.823310 -0.499310
O23   O     O_R   0.181390 0.458010 0.176690 -0.502931
O24   O     O_R   0.818610 0.458010 0.823310 -0.499120
C9    C     C_R   0.741971 0.967441 0.148034 0.543079
C10   C     C_R   0.260267 0.976150 0.854992 0.541095
C11   C     C_R   0.241879 0.466833 0.148596 0.533538
C12   C     C_R   0.758013 0.469735 0.852388 0.540511
O25   O     O_R   0.787510 0.044390 0.330970 -0.534799
O26   O     O_R   0.212490 0.044390 0.669030 -0.516421
O27   O     O_R   0.287510 0.544390 0.330970 -0.516783
O28   O     O_R   0.712490 0.544390 0.669030 -0.534180
O29   O     O_R   0.765630 0.293570 0.323840 -0.458516
O30   O     O_R   0.234370 0.293570 0.676160 -0.493787
O31   O     O_R   0.265630 0.793570 0.323840 -0.495006
O32   O     O_R   0.734370 0.793570 0.676160 -0.452115
C13   C     C_R   0.711194 0.331898 0.359904 0.579461
C14   C     C_R   0.270256 0.379238 0.647782 0.549695
C15   C     C_R   0.229738 0.879151 0.352221 0.546591
C16   C     C_R   0.788778 0.831832 0.640034 0.582763
O33   O     O_R   0.670190 0.410420 0.329080 -0.503811
O34   O     O_R   0.329810 0.410420 0.670920 -0.521333
O35   O     O_R   0.170190 0.910420 0.329080 -0.523849
O36   O     O_R   0.829810 0.910420 0.670920 -0.495928
O37   O     O_R   0.556610 0.252880 0.323980 -0.527853
O38   O     O_R   0.443390 0.252880 0.676020 -0.516332
O39   O     O_R   0.056610 0.752880 0.323980 -0.516552
O40   O     O_R   0.943390 0.752880 0.676020 -0.526736
C17   C     C_R   0.530624 0.156228 0.352415 0.539108
C18   C     C_R   0.462929 0.156915 0.643740 0.589909
C19   C     C_R   0.037191 0.656810 0.356311 0.590286
C20   C     C_R   0.969376 0.656368 0.647586 0.540786
O41   O     O_R   0.545950 0.051210 0.330860 -0.477278
O42   O     O_R   0.454050 0.051210 0.669140 -0.491263
O43   O     O_R   0.045950 0.551210 0.330860 -0.490835
O44   O     O_R   0.954050 0.551210 0.669140 -0.475261
O45   O     O_R   0.681390 0.959480 0.325510 -0.503506
O46   O     O_R   0.318610 0.959480 0.674490 -0.515134
O47   O     O_R   0.181390 0.459480 0.325510 -0.515726
O48   O     O_R   0.818610 0.459480 0.674490 -0.500512
C21   C     C_R   0.743194 0.966629 0.352810 0.533847
C22   C     C_R   0.258848 0.972402 0.645228 0.544499
C23   C     C_R   0.241124 0.472293 0.354774 0.543886
C24   C     C_R   0.756749 0.466696 0.647192 0.535895
Cr1   Cr    Cr6+3 0.772010 0.169670 0.250090 1.046269
Cr2   Cr    Cr6+3 0.227990 0.169670 0.749910 1.039262
Cr3   Cr    Cr6+3 0.272010 0.669670 0.250090 1.037114
Cr4   Cr    Cr6+3 0.727990 0.669670 0.749910 1.042529
Cr5   Cr    Cr6+3 0.615000 0.323260 0.249260 1.020393
Cr6   Cr    Cr6+3 0.385000 0.323260 0.750740 1.009821
Cr7   Cr    Cr6+3 0.115000 0.823260 0.249260 1.007065
Cr8   Cr    Cr6+3 0.885000 0.823260 0.750740 1.018442
Cr9   Cr    Cr6+3 0.616710 0.010760 0.250840 1.058649
Cr10  Cr    Cr6+3 0.383290 0.010760 0.749160 1.035210
Cr11  Cr    Cr6+3 0.116710 0.510760 0.250840 1.029570
Cr12  Cr    Cr6+3 0.883290 0.510760 0.749160 1.052649
O49   O     O_3   0.667900 0.167900 0.250060 -0.282175
O50   O     O_3   0.332100 0.167900 0.749940 -0.261359
O51   O     O_3   0.167900 0.667900 0.250060 -0.256350
O52   O     O_3   0.832100 0.667900 0.749940 -0.302216
H1    H     H_    0.471126 0.978167 0.072246 0.140829
H2    H     H_    0.460861 0.970984 0.946313 0.150482
H3    H     H_    0.970840 0.480703 0.071981 0.134228
H4    H     H_    0.964224 0.471633 0.945996 0.139438
C25   C     C_R   0.490665 0.160988 0.928127 -0.000402
C26   C     C_R   0.498132 0.170010 0.077028 -0.005432
C27   C     C_R   0.993019 0.660885 0.927219 -0.005816
C28   C     C_R   0.999737 0.671322 0.076212 -0.003424
C29   C     C_R   0.508241 0.272672 0.961547 0.013244
C30   C     C_R   0.505112 0.280064 0.036810 0.028357
C31   C     C_R   0.012416 0.771862 0.960091 0.004663
C32   C     C_R   0.009249 0.780472 0.035391 0.024738
C33   C     C_R   0.479333 0.062083 0.042765 -0.165116
C34   C     C_R   0.476220 0.057336 0.969819 -0.151430
C35   C     C_R   0.979915 0.563976 0.042230 -0.166064
C36   C     C_R   0.978231 0.558211 0.969325 -0.153706
C37   C     C_R   0.527813 0.377479 0.922158 -0.092598
C38   C     C_R   0.509011 0.397054 0.068807 -0.085280
C39   C     C_R   0.033103 0.875102 0.919969 -0.097385
C40   C     C_R   0.014839 0.897932 0.066609 -0.085769
C41   C     C_R   0.041890 0.988230 0.952592 -0.124828
C42   C     C_R   0.030892 0.000245 0.025433 -0.136362
C43   C     C_R   0.534774 0.490459 0.955429 -0.130512
C44   C     C_R   0.523493 0.500785 0.028299 -0.137643
H5    H     H_    0.538335 0.373203 0.865600 0.138164
H6    H     H_    0.497542 0.411205 0.124558 0.136222
H7    H     H_    0.042711 0.869343 0.863268 0.136349
H8    H     H_    0.003322 0.913977 0.122151 0.136841
H9    H     H_    0.055974 0.067276 0.921016 0.114960
H10   H     H_    0.035157 0.089166 0.050244 0.101740
H11   H     H_    0.548002 0.570535 0.924374 0.108506
H12   H     H_    0.526552 0.589378 0.053674 0.104468
C45   C     C_R   0.778250 0.844298 0.937982 0.011206
C46   C     C_R   0.254800 0.925263 0.078760 0.018884
C47   C     C_R   0.266370 0.379419 0.934346 0.016663
C48   C     C_R   0.747619 0.406708 0.073425 0.019571
C49   C     C_R   0.713076 0.823705 0.970448 0.001739
C50   C     C_R   0.302835 0.859727 0.036802 0.006886
C51   C     C_R   0.204394 0.345649 0.968547 0.001255
C52   C     C_R   0.775401 0.315491 0.029006 0.031313
C53   C     C_R   0.702603 0.850737 0.041654 0.005656
C54   C     C_R   0.305065 0.875901 0.963791 0.009908
C55   C     C_R   0.198120 0.358625 0.041463 0.004789
C56   C     C_R   0.775238 0.328230 0.955872 0.006927
C57   C     C_R   0.825334 0.901106 0.053772 -0.155715
C58   C     C_R   0.217924 0.034145 0.973864 -0.137221
C59   C     C_R   0.320799 0.412123 0.049870 -0.160932
C60   C     C_R   0.709380 0.514447 0.969161 -0.140104
C61   C     C_R   0.835605 0.874903 0.981564 -0.158623
C62   C     C_R   0.217639 0.021462 0.047432 -0.142461
C63   C     C_R   0.326598 0.401762 0.976250 -0.147083
C64   C     C_R   0.711673 0.503915 0.042333 -0.144114
C65   C     C_3   0.641710 0.868119 0.949963 -0.262325
C66   C     C_3   0.314224 0.725180 0.029805 -0.246007
C67   C     C_3   0.131258 0.387536 0.954787 -0.283056
C68   C     C_3   0.846357 0.256664 0.027751 -0.269046
C69   C     C_3   0.630279 0.898296 0.028002 -0.259257
C70   C     C_3   0.317557 0.743727 0.949865 -0.280639
C71   C     C_3   0.124370 0.404001 0.034651 -0.252178
C72   C     C_3   0.844504 0.267120 0.946933 -0.277359
C73   C     C_R   0.757090 0.899504 0.082905 0.018477
C74   C     C_R   0.257329 0.953971 0.930899 0.023381
C75   C     C_R   0.254481 0.403194 0.082083 0.010300
C76   C     C_R   0.746100 0.431926 0.925070 0.025475
H13   H     H_    0.869363 0.934622 0.084628 0.131143
H14   H     H_    0.184973 0.103764 0.950620 0.145390
H15   H     H_    0.366215 0.441529 0.080047 0.134802
H16   H     H_    0.681999 0.592292 0.947582 0.145311
H17   H     H_    0.887181 0.887593 0.958625 0.152043
H18   H     H_    0.182338 0.077963 0.078503 0.137855
H19   H     H_    0.377550 0.417382 0.952123 0.160814
H20   H     H_    0.683930 0.570463 0.074521 0.140586
H21   H     H_    0.097391 0.313171 0.933493 0.134328
H22   H     H_    0.844536 0.160802 0.046727 0.160335
H23   H     H_    0.607208 0.793068 0.930653 0.129386
H24   H     H_    0.267509 0.671071 0.046561 0.160034
H25   H     H_    0.643593 0.950207 0.915152 0.165130
H26   H     H_    0.365172 0.695713 0.053125 0.141320
H27   H     H_    0.129278 0.474820 0.924609 0.142842
H28   H     H_    0.887611 0.314198 0.052938 0.126017
H29   H     H_    0.626040 0.997957 0.038250 0.161661
H30   H     H_    0.370720 0.726741 0.927194 0.140555
H31   H     H_    0.119841 0.501377 0.050334 0.166923
H32   H     H_    0.885451 0.327717 0.924361 0.148827
H33   H     H_    0.589014 0.840989 0.053553 0.135315
H34   H     H_    0.273426 0.699265 0.920778 0.138373
H35   H     H_    0.085482 0.340938 0.059394 0.133166
H36   H     H_    0.839297 0.177234 0.919913 0.159900
C77   C     C_R   0.476367 0.163445 0.567912 0.055520
C78   C     C_R   0.493252 0.159211 0.419896 0.013075
C79   C     C_R   0.006802 0.659529 0.580136 0.012494
C80   C     C_R   0.023829 0.663359 0.432145 0.055748
C81   C     C_R   0.478819 0.053709 0.531146 -0.030257
C82   C     C_R   0.486501 0.050307 0.458713 0.012439
C83   C     C_R   0.013713 0.550547 0.541442 0.012427
C84   C     C_R   0.021539 0.553715 0.469016 -0.030288
C85   C     C_R   0.476251 0.269172 0.453820 -0.159463
C86   C     C_R   0.469092 0.271741 0.528330 -0.148121
C87   C     C_R   0.030912 0.771912 0.471616 -0.147841
C88   C     C_R   0.023729 0.769542 0.546121 -0.159666
C89   C     C_3   0.524174 0.945317 0.544037 0.087304
C90   C     C_3   0.534176 0.940724 0.463701 0.111339
C91   C     C_3   0.966161 0.440366 0.536518 0.111544
C92   C     C_3   0.976373 0.444622 0.456208 0.087880
H37   H     H_    0.473348 0.352626 0.423465 0.121398
H38   H     H_    0.460479 0.357449 0.554954 0.127669
H39   H     H_    0.039384 0.857644 0.444906 0.127714
H40   H     H_    0.026550 0.853121 0.576404 0.121604
H41   H     H_    0.912010 0.459270 0.555178 0.148541
H42   H     H_    0.006307 0.367158 0.432785 0.142562
H43   H     H_    0.494404 0.867634 0.567704 0.143228
H44   H     H_    0.588246 0.960205 0.444837 0.148643
C93   C     C_R   0.780225 0.845131 0.562606 0.032410
C94   C     C_R   0.243078 0.912265 0.425374 0.017987
C95   C     C_R   0.256957 0.412301 0.574631 0.017068
C96   C     C_R   0.719586 0.344904 0.437379 0.034049
C97   C     C_R   0.836429 0.884196 0.520536 0.010816
C98   C     C_R   0.184266 0.945019 0.465405 0.028534
C99   C     C_R   0.315835 0.444960 0.534530 0.027504
C100  C     C_R   0.663466 0.384203 0.479347 0.012027
C101  C     C_R   0.828686 0.904433 0.448155 0.047499
C102  C     C_R   0.186255 0.949481 0.538287 0.001191
C103  C     C_R   0.313773 0.449378 0.461644 0.000872
C104  C     C_R   0.671170 0.404492 0.551736 0.047892
C105  C     C_R   0.710262 0.829013 0.453766 -0.135435
C106  C     C_R   0.307437 0.882510 0.535041 -0.165910
C107  C     C_R   0.192379 0.382546 0.465023 -0.165823
C108  C     C_R   0.789293 0.328667 0.546348 -0.133949
C109  C     C_R   0.718434 0.808592 0.527194 -0.101020
C110  C     C_R   0.304522 0.877123 0.460763 -0.168587
C111  C     C_R   0.195365 0.377196 0.539300 -0.168857
C112  C     C_R   0.781113 0.307993 0.472926 -0.100081
C113  C     C_3   0.884711 0.990531 0.529409 -0.224121
C114  C     C_3   0.141268 0.058198 0.459115 -0.261172
C115  C     C_3   0.359244 0.558068 0.540757 -0.260440
C116  C     C_3   0.615551 0.490582 0.470371 -0.224441
C117  C     C_3   0.881196 0.006177 0.449436 -0.244303
C118  C     C_3   0.141536 0.062168 0.539368 -0.229572
C119  C     C_3   0.358912 0.561955 0.460500 -0.228697
C120  C     C_3   0.619052 0.506362 0.550341 -0.244259
C121  C     C_R   0.762107 0.893827 0.415968 0.033151
C122  C     C_R   0.248880 0.924440 0.574273 0.016074
C123  C     C_R   0.251021 0.424387 0.425724 0.016304
C124  C     C_R   0.737664 0.393802 0.584024 0.033703
H45   H     H_    0.660832 0.805852 0.428811 0.153936
H46   H     H_    0.356975 0.862703 0.560964 0.139919
H47   H     H_    0.142766 0.362703 0.439142 0.139679
H48   H     H_    0.838601 0.305405 0.571382 0.153662
H49   H     H_    0.673950 0.776409 0.557133 0.167598
H50   H     H_    0.350171 0.847671 0.431091 0.184804
H51   H     H_    0.149684 0.347661 0.569013 0.185406
H52   H     H_    0.825443 0.275327 0.443091 0.167559
H53   H     H_    0.937485 0.966243 0.548646 0.158063
H54   H     H_    0.088251 0.042726 0.436193 0.147275
H55   H     H_    0.412228 0.542532 0.563628 0.147629
H56   H     H_    0.562705 0.466318 0.451093 0.158141
H57   H     H_    0.859558 0.066983 0.558874 0.183377
H58   H     H_    0.171208 0.134085 0.434020 0.141513
H59   H     H_    0.329604 0.634049 0.565868 0.141680
H60   H     H_    0.640982 0.566958 0.440906 0.182268
H61   H     H_    0.859825 0.094619 0.433202 0.162792
H62   H     H_    0.169853 0.142577 0.560356 0.178860
H63   H     H_    0.330907 0.642450 0.439535 0.179197
H64   H     H_    0.640822 0.594708 0.566553 0.162377
H65   H     H_    0.930876 0.980852 0.421915 0.139300
H66   H     H_    0.088931 0.045625 0.563408 0.176070
H67   H     H_    0.411429 0.545226 0.436411 0.175925
H68   H     H_    0.569247 0.481272 0.577835 0.139888
N1    N     N_R   0.588456 0.976386 0.583203 0.052224
O53   O     O_R   0.630503 0.062514 0.561029 -0.367283
O54   O     O_R   0.600459 0.924857 0.644388 -0.319720
N2    N     N_R   0.503078 0.831313 0.431819 0.037405
O55   O     O_R   0.474012 0.837071 0.369192 -0.339034
O56   O     O_R   0.517157 0.724709 0.458658 -0.423799
N3    N     N_R   0.997262 0.331494 0.568663 0.037678
O57   O     O_R   0.026510 0.338093 0.631194 -0.338273
O58   O     O_R   0.982922 0.224515 0.542251 -0.423238
N4    N     N_R   0.912144 0.474546 0.416814 0.052187
O59   O     O_R   0.869986 0.560432 0.438616 -0.368279
O60   O     O_R   0.900316 0.422253 0.355772 -0.324146

loop_
_geom_bond_atom_site_label_1
_geom_bond_atom_site_label_2
_geom_bond_distance
_ccdc_geom_bond_type
C6    C25   1.462352 S    
C18   O42   1.263455 A    
Cr6   O50   1.974857 S    
Cr11  O51   1.975520 S    
O4    C12   1.256251 A    
C57   C61   1.398817 A    
C33   C34   1.371474 A    
C81   C89   1.489286 S    
O39   C19   1.268947 A    
O20   Cr12  2.067721 S    
C112  H52   1.073049 S    
C39   C41   1.392235 A    
C66   C70   1.515368 S    
C55   C75   1.402272 A    
C43   C44   1.388738 A    
C86   H38   1.076492 S    
C60   C64   1.379003 A    
C62   H18   1.083623 S    
C42   H10   1.082724 S    
O29   Cr1   1.942538 S    
O26   C22   1.264957 A    
C29   C30   1.416095 A    
C114  H54   1.108690 S    
O1    C9    1.267007 A    
N3    O57   1.301251 A    
C9    C73   1.459693 S    
C64   H20   1.084218 S    
C38   C44   1.394242 A    
C81   C82   1.367629 A    
C20   C79   1.451559 S    
O7    C3    1.268782 A    
C91   H41   1.106570 S    
C5    O17   1.282299 A    
C72   H36   1.111964 S    
C119  H63   1.104152 S    
C101  C117  1.494501 S    
C68   H28   1.110800 S    
C57   H13   1.081684 S    
C59   C75   1.400181 A    
C37   H5    1.080965 S    
C19   C80   1.447246 S    
C21   C121  1.474403 S    
C66   H24   1.111341 S    
C17   C78   1.451599 S    
C60   H16   1.079527 S    
C77   C81   1.387091 A    
O47   C23   1.269185 A    
C54   C70   1.491190 S    
C5    C26   1.466517 S    
C50   C54   1.382371 A    
C111  H51   1.080069 S    
C58   C74   1.408582 A    
O21   C9    1.273928 A    
O8    Cr4   1.948958 S    
C1    C48   1.438050 S    
O23   Cr11  1.944247 S    
C7    C28   1.467233 S    
C96   C112  1.407318 A    
C43   H11   1.082352 S    
N1    O53   1.302938 A    
O30   C14   1.275073 A    
C45   C61   1.403579 A    
C17   O41   1.254526 A    
O32   Cr4   1.942540 S    
C1    O9    1.270140 A    
C119  H67   1.110675 S    
O44   Cr12  2.061971 S    
C88   H40   1.079004 S    
O25   Cr1   2.068805 S    
C108  C124  1.404758 A    
C45   C49   1.397346 A    
C120  H68   1.111293 S    
C78   C85   1.400930 A    
C3    O11   1.269170 A    
C116  H60   1.112263 S    
H2    C34   1.083471 S    
C4    C45   1.459312 S    
C4    O12   1.296763 A    
C26   C33   1.392079 A    
C115  H55   1.108674 S    
C54   C74   1.393412 A    
C58   H14   1.080608 S    
C84   C92   1.489493 S    
C55   C71   1.493903 S    
O32   C16   1.303997 A    
O3    C11   1.269082 A    
O7    Cr3   1.949819 S    
O3    Cr3   2.062514 S    
Cr4   O52   1.978533 S    
C53   C69   1.493595 S    
O2    Cr2   2.061953 S    
C68   C72   1.521708 S    
C48   C52   1.404946 A    
C68   H22   1.109659 S    
C46   C50   1.403614 A    
O2    C10   1.261257 A    
O10   Cr6   2.067484 S    
C58   C62   1.387817 A    
C37   C43   1.392516 A    
Cr5   O49   1.979283 S    
O18   Cr10  2.067721 S    
C103  C119  1.500818 S    
C99   C103  1.369497 A    
C102  C118  1.500817 S    
C97   C101  1.384673 A    
C106  H46   1.082779 S    
C71   H35   1.111676 S    
C11   C75   1.449717 S    
C95   C111  1.399077 A    
C105  H45   1.079848 S    
C52   C56   1.379785 A    
Cr7   O51   1.979283 S    
C100  C104  1.384605 A    
C60   C76   1.410880 A    
O11   Cr7   2.065363 S    
C71   H31   1.110312 S    
Cr9   O49   1.975520 S    
O6    Cr2   1.948958 S    
C79   C83   1.403872 A    
O31   Cr3   1.942538 S    
O24   Cr12  1.942566 S    
C69   H29   1.111907 S    
C32   C40   1.417837 A    
O30   Cr2   1.942540 S    
O22   C10   1.273382 A    
C90   H44   1.106594 S    
C91   C92   1.520238 S    
O48   Cr12  1.947220 S    
C108  C112  1.405294 A    
C57   C73   1.406760 A    
N3    O58   1.300995 A    
C46   C62   1.400287 A    
N2    O56   1.300790 A    
C2    C47   1.447014 S    
C2    O10   1.255504 A    
C59   H15   1.081372 S    
C49   C65   1.492907 S    
C44   H12   1.082666 S    
O23   C11   1.267441 A    
O16   Cr8   1.947883 S    
C99   C115  1.491700 S    
C116  H56   1.099857 S    
C51   C67   1.487708 S    
C79   C88   1.400712 A    
C115  H59   1.110847 S    
O27   C23   1.263395 A    
Cr10  O50   1.979838 S    
C95   C99   1.393580 A    
C16   C93   1.469860 S    
C50   C66   1.496358 S    
C114  C118  1.506906 S    
O13   C5    1.263445 A    
C77   C86   1.407379 A    
O40   C20   1.284009 A    
C15   C94   1.442696 S    
O43   Cr11  2.063301 S    
O48   C24   1.285632 A    
O12   Cr8   2.067484 S    
C56   C72   1.487568 S    
O41   Cr9   2.063301 S    
C41   H9    1.082433 S    
O15   C7    1.260522 A    
C83   C84   1.367722 A    
C22   C122  1.444162 S    
O5    C1    1.265209 A    
C80   C87   1.407432 A    
C107  C111  1.396604 A    
C116  C120  1.512396 S    
O46   Cr10  1.947220 S    
O39   Cr7   1.945347 S    
O25   C21   1.264406 A    
C98   C102  1.369379 A    
C25   C29   1.414493 A    
O45   Cr9   1.949211 S    
C31   C32   1.417641 A    
C118  H66   1.110665 S    
O40   Cr8   1.947343 S    
O8    C4    1.301255 A    
C67   H27   1.112400 S    
O13   Cr5   1.945340 S    
C13   O33   1.298877 A    
C102  C122  1.397066 A    
C115  C119  1.507005 S    
C107  H47   1.082731 S    
C92   N4    1.465827 S    
O47   Cr11  1.949211 S    
Cr2   O50   1.978533 S    
O15   Cr7   1.945340 S    
C70   H34   1.112550 S    
C52   C68   1.496159 S    
O35   Cr7   2.062826 S    
C39   H7    1.081378 S    
C40   C42   1.394682 A    
C78   C82   1.403775 A    
N4    O60   1.300489 A    
C93   C97   1.393871 A    
C113  C117  1.512416 S    
Cr3   O51   1.978436 S    
C14   C95   1.442885 S    
C38   H6    1.079796 S    
O21   Cr9   1.944247 S    
C67   C71   1.515283 S    
C7    O19   1.285160 A    
C70   H30   1.111748 S    
C49   C53   1.383069 A    
C106  C110  1.396537 A    
O37   Cr5   1.945347 S    
C56   C76   1.391511 A    
C47   C63   1.410480 A    
C107  C123  1.411120 A    
C8    C27   1.463422 S    
C3    C46   1.446742 S    
C110  H50   1.080169 S    
C106  C122  1.411249 A    
C109  H49   1.073248 S    
C47   C51   1.389877 A    
C66   H26   1.111762 S    
C105  C121  1.404624 A    
C27   C36   1.402649 A    
O14   Cr6   1.947883 S    
O26   Cr2   2.067355 S    
C94   C98   1.393529 A    
C90   N2    1.463432 S    
C118  H62   1.104110 S    
C96   C100  1.393917 A    
C117  H61   1.095173 S    
O22   Cr10  1.942566 S    
O28   C24   1.265963 A    
H1    C33   1.084079 S    
O14   C6    1.277015 A    
H4    C36   1.077693 S    
C65   H25   1.112333 S    
C29   C37   1.414625 A    
C48   C64   1.395273 A    
O5    Cr1   1.949819 S    
C12   C76   1.443187 S    
C8    O20   1.265801 A    
H3    C35   1.083188 S    
N2    O55   1.301084 A    
O17   Cr9   2.069274 S    
O37   C17   1.283403 A    
C25   C34   1.405640 A    
O6    C2    1.274299 A    
C15   O35   1.260949 A    
O24   C12   1.280342 A    
C65   H23   1.111435 S    
C83   C91   1.509064 S    
C65   C69   1.516974 S    
C100  C116  1.490670 S    
C31   C39   1.413729 A    
C14   O34   1.259140 A    
C19   O43   1.263054 A    
C61   H17   1.078616 S    
C30   C38   1.417303 A    
C104  C124  1.407343 A    
C89   N1    1.465872 S    
C20   O44   1.254732 A    
C59   C63   1.390648 A    
O1    Cr1   2.062514 S    
C94   C110  1.399068 A    
O19   Cr11  2.069274 S    
O38   Cr6   1.947343 S    
C69   H33   1.111640 S    
C93   C109  1.407311 A    
Cr1   O49   1.978436 S    
Cr8   O52   1.974857 S    
C23   C123  1.444230 S    
O29   C13   1.305646 A    
C41   C42   1.389022 A    
C113  H53   1.099711 S    
O9    Cr5   2.065363 S    
C114  H58   1.110849 S    
C40   H8    1.079375 S    
C85   C86   1.405187 A    
O46   C22   1.270439 A    
Cr12  O52   1.979838 S    
C113  H57   1.112277 S    
C89   H43   1.113065 S    
C98   C114  1.491656 S    
C13   C96   1.469934 S    
O45   C21   1.284241 A    
C28   C32   1.431454 A    
O34   Cr6   2.065615 S    
C97   C113  1.490641 S    
C72   H32   1.105609 S    
C108  H48   1.079926 S    
O33   Cr5   2.062826 S    
C18   C77   1.447355 S    
C27   C31   1.411830 A    
C10   C74   1.446320 S    
O42   Cr10  2.061971 S    
C89   C90   1.520350 S    
O16   C8    1.278189 A    
C51   C55   1.380919 A    
O4    Cr4   2.061953 S    
C103  C123  1.397154 A    
N4    O59   1.302941 A    
C101  C121  1.407335 A    
C63   H19   1.081571 S    
C92   H42   1.113056 S    
C104  C120  1.494407 S    
O28   Cr4   2.067355 S    
C16   O36   1.297385 A    
O38   C18   1.269533 A    
C87   C88   1.405100 A    
C117  H65   1.111290 S    
O27   Cr3   2.068805 S    
C6    O18   1.265613 A    
C28   C35   1.389362 A    
C35   C36   1.370208 A    
C26   C30   1.428619 A    
C87   H39   1.076533 S    
C85   H37   1.079079 S    
C82   C90   1.509040 S    
N1    O54   1.300510 A    
C53   C73   1.398699 A    
O36   Cr8   2.065615 S    
O31   C15   1.276844 A    
C67   H21   1.111666 S    
C105  C109  1.405176 A    
C24   C124  1.474618 S    
C80   C84   1.387168 A    
C91   N3    1.463345 S    
C120  H64   1.094995 S    
