data_str_m3_o10_o29_f0_pcu.sym.89
_audit_creation_date              2012-12-10T16:59:22-0500
_audit_creation_method            fapswitch 2.2
_symmetry_space_group_name_H-M    P1
_symmetry_Int_Tables_number       1
_space_group_crystal_system       triclinic
_cell_length_a                    7.794713
_cell_length_b                    8.660029
_cell_length_c                    27.645124
_cell_angle_alpha                 91.640018
_cell_angle_beta                  87.291786
_cell_angle_gamma                 92.665193
_cell_volume                      1861.35982304

loop_
_atom_site_label
_atom_site_type_symbol
_atom_type_description
_atom_site_fract_x
_atom_site_fract_y
_atom_site_fract_z
_atom_type_partial_charge
C1    C     C_R   0.544244 0.793795 0.499330 0.909054
C2    C     C_R   0.495797 0.649987 0.128536 -0.047743
C3    C     C_R   0.517337 0.494311 0.646494 -0.290390
C4    C     C_R   0.482662 0.505689 0.353506 -0.290390
C5    C     C_R   0.545113 0.640168 0.026237 0.043539
C6    C     C_R   0.454886 0.359833 0.973763 0.043540
C7    C     C_R   0.445247 0.364096 0.025386 -0.090721
C8    C     C_R   0.554752 0.635905 0.974613 -0.090721
C9    C     C_R   0.479057 0.506512 0.050938 0.001840
C10   C     C_R   0.520942 0.493489 0.949062 0.001840
C11   C     C_R   0.608738 0.768249 0.055003 0.057256
C12   C     C_R   0.455756 0.206205 0.500670 0.909053
C13   C     C_R   0.391261 0.231752 0.944997 0.057256
C14   C     C_R   0.570424 0.776792 0.104560 -0.181078
C15   C     C_R   0.429575 0.223208 0.895440 -0.181077
C16   C     C_R   0.504402 0.499125 0.593899 0.963838
C17   C     C_R   0.495598 0.500875 0.406101 0.963838
C18   C     C_R   0.582519 0.771143 0.946955 0.592740
C19   C     C_R   0.417480 0.228858 0.053045 0.592739
C20   C     C_2   0.564661 0.955277 0.505870 -0.235587
C21   C     C_2   0.435339 0.044723 0.494130 -0.235587
C22   C     C_R   0.610117 0.615119 0.821733 0.600282
C23   C     C_R   0.542758 0.487729 0.897735 -0.059473
C24   C     C_R   0.389882 0.384882 0.178267 0.600282
C25   C     C_R   0.521270 0.348095 0.820834 0.587776
C26   C     C_R   0.478729 0.651906 0.179166 0.587776
C27   C     C_R   0.394521 0.525202 0.728167 -0.203777
C28   C     C_R   0.605478 0.474799 0.271833 -0.203778
C29   C     C_R   0.377525 0.530056 0.678238 0.623665
C30   C     C_R   0.622475 0.469946 0.321762 0.623666
C31   C     C_R   0.672986 0.453179 0.665306 -0.348339
C32   C     C_R   0.327014 0.546820 0.334694 -0.348341
C33   C     C_R   0.689663 0.448016 0.714937 0.756690
C34   C     C_R   0.457242 0.512272 0.102265 -0.059473
C35   C     C_R   0.310337 0.551984 0.285063 0.756691
C36   C     C_R   0.551272 0.484235 0.746343 0.030519
C37   C     C_R   0.448727 0.515766 0.253657 0.030520
C38   C     C_1   0.026080 0.365778 0.450911 0.467453
C39   C     C_1   0.973920 0.634222 0.549089 0.467453
C40   C     C_1   0.748911 0.436943 0.239318 0.399067
C41   C     C_1   0.251088 0.563058 0.760681 0.399067
C42   C     C_1   0.739919 0.879505 0.038222 0.347906
C43   C     C_1   0.260080 0.120496 0.961778 0.347907
C44   C     C_1   0.714517 0.010441 0.532150 0.248569
C45   C     C_R   0.595276 0.621721 0.872326 -0.131937
C46   C     C_1   0.285483 0.989559 0.467849 0.248568
C47   C     C_R   0.404723 0.378279 0.127674 -0.131937
C48   C     C_R   0.612633 0.762593 0.897293 -0.210744
C49   C     C_R   0.387366 0.237408 0.102707 -0.210744
C50   C     C_R   0.504202 0.350014 0.871464 -0.047743
F1    F     F_    0.840355 0.407847 0.732593 -0.615185
F2    F     F_    0.159645 0.592152 0.267407 -0.615185
F3    F     F_    0.773929 0.428776 0.338978 -0.623335
F4    F     F_    0.226071 0.571226 0.661022 -0.623334
F5    F     F_    0.556064 0.913893 0.965741 -0.636753
F6    F     F_    0.443935 0.086108 0.034259 -0.636753
H1    H     H_    0.782231 0.424242 0.641653 0.231487
H2    H     H_    0.217769 0.575756 0.358347 0.231488
H3    H     H_    0.636536 0.869401 0.878079 0.221915
H4    H     H_    0.363463 0.130600 0.121921 0.221915
H5    H     H_    0.614820 0.878343 0.125162 0.194709
H6    H     H_    0.385179 0.121657 0.874838 0.194709
N1    N     N_R   0.569473 0.480457 0.797313 -0.323750
N2    N     N_1   0.155736 0.029435 0.974420 -0.140380
N3    N     N_1   0.833439 0.054419 0.552958 -0.164539
N4    N     N_1   0.166561 0.945581 0.447042 -0.164539
N5    N     N_R   0.430526 0.519544 0.202687 -0.323750
N6    N     N_2   0.950320 0.457960 0.486880 -0.172907
N7    N     N_2   0.049680 0.542040 0.513120 -0.172907
N8    N     N_1   0.086749 0.288006 0.420594 -0.181413
N9    N     N_1   0.913251 0.711994 0.579406 -0.181412
N10   N     N_1   0.863561 0.406563 0.213194 -0.116503
N11   N     N_1   0.136437 0.593439 0.786806 -0.116503
N12   N     N_1   0.844264 0.970566 0.025579 -0.140379
O1    O     O_R   0.389250 0.738570 0.503220 -0.622716
O2    O     O_2   0.341091 0.256854 0.203061 -0.510449
O3    O     O_2   0.516181 0.783079 0.204873 -0.513554
O4    O     O_2   0.483819 0.216922 0.795126 -0.513554
O5    O     O_R   0.610750 0.261430 0.496780 -0.622716
O6    O     O_R   0.678390 0.711630 0.494810 -0.637244
O7    O     O_R   0.321610 0.288370 0.505190 -0.637244
O8    O     O_R   0.355440 0.513440 0.575450 -0.560292
O9    O     O_R   0.644560 0.486560 0.424550 -0.560292
O10   O     O_R   0.644590 0.486500 0.567040 -0.653080
O11   O     O_R   0.355410 0.513500 0.432960 -0.653080
O12   O     O_2   0.658908 0.743147 0.796939 -0.510449
Zn1   Zn    Zn3+2 0.306940 0.517990 0.505620 0.993583
Zn2   Zn    Zn3+2 0.693060 0.482010 0.494380 0.993583

loop_
_geom_bond_atom_site_label_1
_geom_bond_atom_site_label_2
_ccdc_geom_bond_type
C19   F6    S    
C38   N8    T    
C23   C45   A    
C27   C29   A    
C32   H2    S    
C47   C49   A    
C49   H4    S    
C17   O11   A    
C26   N5    A    
C35   C37   A    
C46   N4    T    
C11   C14   A    
C29   F4    S    
C28   C40   S    
O8    Zn1   S    
C12   O5    A    
C16   O10   A    
C33   C36   A    
C11   C42   S    
C25   N1    A    
C15   C50   A    
C3    C29   A    
C27   C41   S    
C25   C50   A    
C24   N5    A    
C22   N1    A    
N6    N7    D    
C31   C33   A    
C36   N1    S    
N7    Zn1   S    
C2    C34   A    
O9    Zn2   S    
C44   N3    T    
O5    Zn2   S    
C20   C44   S    
C43   N2    T    
O11   Zn1   S    
C30   F3    S    
C42   N12   T    
C26   O3    S    
C25   O4    S    
C1    O1    A    
C32   C35   A    
C24   O2    S    
C23   C50   A    
C14   H5    S    
C12   C21   S    
C8    C18   A    
C17   O9    A    
C5    C9    A    
C19   C49   A    
C16   O8    A    
C39   N7    S    
C2    C26   A    
C4    C32   A    
C3    C31   A    
O7    Zn1   S    
C18   F5    S    
C4    C17   S    
O1    Zn1   S    
C38   N6    S    
C7    C19   A    
C13   C15   A    
C9    C34   A    
C27   C36   A    
C13   C43   S    
C48   H3    S    
C21   C46   S    
C45   C48   A    
C7    C9    A    
C1    C20   S    
C40   N10   T    
C24   C47   A    
O10   Zn2   S    
C18   C48   A    
C6    C10   A    
C5    C8    A    
C5    C11   A    
C6    C7    A    
C10   C23   A    
C33   F1    S    
C31   H1    S    
C28   C30   A    
O6    Zn2   S    
C6    C13   A    
C28   C37   A    
N6    Zn2   S    
C37   N5    S    
C15   H6    S    
C12   O7    A    
C22   O12   S    
C2    C14   A    
C41   N11   T    
C22   C45   A    
C20   C21   D    
C8    C10   A    
C35   F2    S    
C1    O6    A    
C39   N9    T    
C34   C47   A    
C4    C30   A    
C3    C16   S    
