data_str_m2_o14_o18_f0_pcu.sym.25
_audit_creation_date              2012-10-26T18:50:23-0400
_audit_creation_method            fapswitch 2.2
_symmetry_space_group_name_H-M    P1
_symmetry_Int_Tables_number       1
_space_group_crystal_system       triclinic
_cell_length_a                    9.710662
_cell_length_b                    10.8784
_cell_length_c                    15.480618
_cell_angle_alpha                 83.213736
_cell_angle_beta                  74.217374
_cell_angle_gamma                 89.143812
_cell_volume                      1562.38872688

loop_
_atom_site_label
_atom_site_type_symbol
_atom_type_description
_atom_site_fract_x
_atom_site_fract_y
_atom_site_fract_z
_atom_type_partial_charge
C1    C     C_R   0.000026 0.261890 0.505286 0.559936
C2    C     C_R   0.220595 0.467247 0.043620 -0.009903
C3    C     C_R   0.321658 0.463018 0.093457 0.026347
C4    C     C_R   0.917605 0.491736 0.673212 0.545046
C5    C     C_R   0.076979 0.444053 0.090046 -0.039280
C6    C     C_R   0.035115 0.428081 0.184993 0.257092
C7    C     C_R   0.273952 0.482806 0.184802 -0.166783
C8    C     C_R   0.272944 0.113653 0.449152 -0.110627
C9    C     C_R   0.386576 0.057147 0.391970 0.210262
C10   C     C_R   0.358195 0.959005 0.348920 -0.097016
C11   C     C_R   0.222605 0.903508 0.376310 -0.138395
C12   C     C_R   0.662279 0.443468 0.910591 0.057182
C13   C     C_R   0.116727 0.945074 0.447417 0.030962
C14   C     C_R   0.131834 0.064287 0.469798 -0.023986
C15   C     C_R   0.004901 0.126450 0.510289 0.007585
C16   C     C_R   0.997871 0.737359 0.501744 0.567781
C17   C     C_R   0.876274 0.058308 0.546366 -0.086886
C18   C     C_R   0.873793 0.930958 0.543736 -0.101558
C19   C     C_R   0.995187 0.872959 0.495291 0.044804
C20   C     C_R   0.693591 0.618185 0.330973 0.273736
C21   C     C_R   0.620327 0.640233 0.260736 0.293853
C22   C     C_R   0.480545 0.673698 0.285172 -0.198986
C23   C     C_R   0.739915 0.361203 0.956358 -0.048243
C24   C     C_R   0.402057 0.648382 0.371630 -0.160738
C25   C     C_R   0.451585 0.573997 0.434495 0.095777
C26   C     C_R   0.604429 0.567895 0.425191 0.110343
C27   C     C_R   0.547758 0.429196 0.563059 0.044552
C28   C     C_R   0.081845 0.489544 0.329012 0.597069
C29   C     C_R   0.403422 0.423992 0.559252 0.057274
C30   C     C_R   0.868228 0.459161 0.774318 -0.027345
C31   C     C_R   0.128325 0.469683 0.231756 -0.011234
C32   C     C_R   0.874363 0.319251 0.909948 0.059096
C33   C     C_R   0.941590 0.371098 0.821042 0.239247
C34   C     C_R   0.515210 0.461755 0.954657 0.065336
C35   C     C_R   0.731471 0.499910 0.822143 0.046595
C36   C     C_R   0.464469 0.434063 0.050413 0.081793
C37   C     C_R   0.548811 0.358183 0.096280 0.146163
C38   C     C_R   0.680055 0.318250 0.047743 -0.023331
C39   C     C_R   0.412738 0.486336 0.905264 -0.066170
C40   C     C_R   0.266543 0.481291 0.949361 -0.086822
Cu1   Cu    Cu3+1 0.140660 0.499990 0.500010 1.001110
Cu2   Cu    Cu3+1 0.859340 0.500010 0.499990 1.083833
H1    H     H_    0.734150 0.251647 0.083394 0.212061
H2    H     H_    0.427673 0.715831 0.236040 0.171366
H3    H     H_    0.294918 0.669938 0.381933 0.207748
H4    H     H_    0.333935 0.354904 0.604012 0.224338
H5    H     H_    0.189453 0.487230 0.910049 0.179145
H6    H     H_    0.442222 0.493032 0.832433 0.164980
H7    H     H_    0.514520 0.298389 0.383496 0.324548
H8    H     H_    0.863490 0.919414 0.239274 0.403987
H9    H     H_    0.817936 0.803437 0.039888 0.367804
H10   H     H_    0.010988 0.199041 0.315390 0.320622
H11   H     H_    0.866362 0.140499 0.968643 0.245644
H12   H     H_    0.002214 0.424037 0.052860 0.158619
H13   H     H_    0.966622 0.239413 0.006046 0.264518
H14   H     H_    0.045970 0.180377 0.707615 0.335483
H15   H     H_    0.635570 0.593810 0.731835 0.253545
H16   H     H_    0.750624 0.680080 0.766388 0.242116
H17   H     H_    0.392843 0.262777 0.197834 0.224037
H18   H     H_    0.497017 0.363392 0.232669 0.253689
H19   H     H_    0.778744 0.103034 0.579112 0.156161
H20   H     H_    0.299539 0.188520 0.481535 0.175983
H21   H     H_    0.442336 0.922329 0.297676 0.180373
H22   H     H_    0.198417 0.830359 0.341239 0.148282
H23   H     H_    0.776949 0.878075 0.578677 0.145864
H24   H     H_    0.580230 0.369625 0.614831 0.125963
H25   H     H_    0.350203 0.506452 0.219323 0.151368
N1    N     N_R   0.648320 0.501210 0.499140 -0.236619
N2    N     N_R   0.352470 0.501290 0.499110 -0.251314
N3    N     N_3   0.938558 0.215603 0.949794 -0.544780
N4    N     N_3   0.671620 0.610301 0.787094 -0.613460
N5    N     N_3   0.495412 0.300174 0.187370 -0.566577
O1    O     O_R   0.118810 0.319640 0.500010 -0.510232
O2    O     O_2   0.642285 0.112034 0.278023 -0.169101
O3    O     O_3   0.572272 0.242404 0.414315 -0.471778
O4    O     O_2   0.946949 0.739616 0.344819 -0.310410
O5    O     O_2   0.939787 0.691241 0.202685 -0.242636
O6    O     O_3   0.779454 0.865785 0.271906 -0.435486
O7    O     O_2   0.801898 0.564305 0.110687 -0.267693
O8    O     O_2   0.578995 0.654578 0.093785 -0.317841
O9    O     O_3   0.773571 0.802921 0.105616 -0.440914
O10   O     O_2   0.755354 0.380264 0.257678 -0.228226
O11   O     O_2   0.898750 0.221847 0.176671 -0.311675
O12   O     O_R   0.881240 0.319660 0.500000 -0.448295
O13   O     O_3   0.922622 0.247044 0.334517 -0.440567
O14   O     O_2   0.211611 0.439254 0.740479 -0.317772
O15   O     O_2   0.182747 0.240040 0.832341 -0.243948
O16   O     O_3   0.114385 0.250467 0.681797 -0.543231
O17   O     O_R   0.055570 0.499980 0.629840 -0.403704
O18   O     O_R   0.818000 0.500010 0.629830 -0.550147
O19   O     O_R   0.118760 0.680340 0.500000 -0.528610
O20   O     O_R   0.881190 0.680360 0.499990 -0.452538
O21   O     O_R   0.182000 0.499990 0.370170 -0.560823
O22   O     O_R   0.944430 0.500020 0.370160 -0.401269
O23   O     O_2   0.634368 0.009824 0.428454 -0.218474
S1    S     S_3+6 0.564315 0.104781 0.376534 0.078405
S2    S     S_3+6 0.846313 0.724693 0.290805 0.079635
S3    S     S_3+6 0.695255 0.662116 0.140164 0.064315
S4    S     S_3+6 0.897595 0.318668 0.238283 0.071498
S5    S     S_3+6 0.118463 0.324651 0.770306 -0.009444

loop_
_geom_bond_atom_site_label_1
_geom_bond_atom_site_label_2
_ccdc_geom_bond_type
C40   H5    S    
Cu1   O17   S    
C27   C29   A    
Cu1   Cu2   S    
O7    S3    D    
C10   H21   S    
C18   H23   S    
C12   C23   A    
C30   C35   A    
C24   H3    S    
C36   C37   A    
O15   S5    D    
C3    C7    A    
C5    C6    A    
H16   N4    S    
H14   O16   S    
O9    S3    S    
H18   N5    S    
C28   O22   A    
C18   C19   A    
O10   S4    D    
C27   N1    A    
C17   H19   S    
Cu1   O21   S    
C20   S2    S    
O23   S1    D    
C8    C9    A    
H7    O3    S    
O5    S2    D    
C1    C15   S    
O14   S5    D    
C9    C10   A    
H9    O9    S    
C29   N2    A    
H17   N5    S    
C6    C31   A    
C35   N4    S    
O11   S4    D    
C13   C14   A    
Cu2   N1    S    
H11   N3    S    
H8    O6    S    
O3    S1    S    
C4    O18   A    
C22   H2    S    
C7    C31   A    
C13   C19   A    
C34   C39   A    
O2    S1    D    
C5    H12   S    
Cu2   O12   S    
C24   C25   A    
C11   H22   S    
C39   C40   A    
C32   N3    S    
O4    S2    D    
Cu1   O1    S    
C32   C33   A    
C28   O21   A    
C1    O12   A    
C37   C38   A    
O13   S4    S    
Cu2   O20   S    
O6    S2    S    
C17   C18   A    
H15   N4    S    
C12   C35   A    
C9    S1    S    
O16   S5    S    
Cu1   O19   S    
C16   O20   A    
C22   C24   A    
C2    C5    A    
C25   N2    A    
C12   C34   A    
Cu1   N2    S    
C4    O17   A    
C15   C17   A    
H10   O13   S    
C8    C14   A    
C30   C33   A    
O8    S3    D    
Cu2   O22   S    
C28   C31   S    
C23   C38   A    
C29   H4    S    
C33   S5    S    
C1    O1    A    
C6    S4    S    
C2    C3    A    
C25   C26   A    
C26   N1    A    
C38   H1    S    
C27   H24   S    
C23   C32   A    
C21   S3    S    
C11   C13   A    
C20   C26   A    
C3    C36   A    
C16   C19   S    
C34   C36   A    
H13   N3    S    
C10   C11   A    
C7    H25   S    
C2    C40   A    
C20   C21   A    
C16   O19   A    
C37   N5    S    
C14   C15   A    
Cu2   O18   S    
C21   C22   A    
C4    C30   S    
C8    H20   S    
C39   H6    S    
