data_str_m2_o14_o24_f0_pcu.sym.120
_audit_creation_date              2012-12-10T17:22:39-0500
_audit_creation_method            fapswitch 2.2
_symmetry_space_group_name_H-M    P1
_symmetry_Int_Tables_number       1
_space_group_crystal_system       triclinic
_cell_length_a                    10.660694
_cell_length_b                    10.78701
_cell_length_c                    9.641102
_cell_angle_alpha                 90.326817
_cell_angle_beta                  89.536647
_cell_angle_gamma                 92.058769
_cell_volume                      1107.9297827

loop_
_atom_site_label
_atom_site_type_symbol
_atom_type_description
_atom_site_fract_x
_atom_site_fract_y
_atom_site_fract_z
_atom_type_partial_charge
C1    C     C_R   0.501358 0.262809 0.499982 0.781368
C2    C     C_3   0.964887 0.534082 0.374367 0.612911
C3    C     C_3   0.040485 0.418972 0.405160 -0.310852
C4    C     C_3   0.122982 0.500683 0.502353 -0.174198
C5    C     C_R   0.713835 0.135583 0.616622 -0.173421
C6    C     C_R   0.820045 0.074308 0.658891 -0.091675
C7    C     C_R   0.827761 0.947333 0.637295 -0.149279
C8    C     C_R   0.725831 0.879488 0.582750 -0.135926
C9    C     C_R   0.614784 0.938558 0.547066 0.129041
C10   C     C_R   0.611448 0.069109 0.556132 0.105886
C11   C     C_R   0.507263 0.129027 0.500648 -0.075831
C12   C     C_R   0.259685 0.499534 0.500736 0.840985
C13   C     C_R   0.407271 0.060475 0.442180 -0.170127
C14   C     C_R   0.406723 0.932170 0.443087 -0.170404
C15   C     C_R   0.508354 0.871182 0.497704 -0.070105
C16   C     C_R   0.660958 0.669062 0.143653 -0.155129
C17   C     C_R   0.735661 0.755918 0.071908 0.460692
C18   C     C_R   0.737301 0.753029 0.928882 -0.298355
C19   C     C_R   0.662162 0.667124 0.857460 -0.197236
C20   C     C_R   0.579250 0.582594 0.925729 0.225611
C21   C     C_R   0.579222 0.582807 0.074785 0.135564
C22   C     C_R   0.425591 0.420285 0.073896 -0.023160
C23   C     C_R   0.501510 0.737181 0.499752 0.758095
C24   C     C_R   0.426283 0.419845 0.926334 0.043845
C25   C     C_R   0.740392 0.502034 0.499126 0.798291
C26   C     C_3   0.035415 0.469983 0.624929 0.570952
C27   C     C_3   0.951963 0.388474 0.529474 -0.277167
C28   C     C_3   0.877256 0.503499 0.496813 -0.087719
C29   C     C_3   0.959413 0.585096 0.593797 -0.267664
C30   C     C_3   0.048350 0.616868 0.469255 -0.299627
Cu1   Cu    Cu3+1 0.499990 0.499990 0.640660 0.991815
Cu2   Cu    Cu3+1 0.500010 0.500010 0.359340 0.970122
H1    H     H_    0.913873 0.294580 0.552390 0.165475
H2    H     H_    0.912503 0.900953 0.664293 0.144911
H3    H     H_    0.736018 0.781429 0.564721 0.120141
H4    H     H_    0.326416 0.880056 0.401834 0.142119
H5    H     H_    0.364265 0.354867 0.128725 0.140916
H6    H     H_    0.671516 0.672638 0.252660 0.233793
H7    H     H_    0.797613 0.817611 0.872251 0.195173
H8    H     H_    0.672357 0.670769 0.748801 0.207553
H9    H     H_    0.366591 0.353340 0.871710 0.192870
H10   H     H_    0.924489 0.651623 0.672138 0.163836
H11   H     H_    0.090319 0.709933 0.444807 0.156173
H12   H     H_    0.075155 0.351432 0.327771 0.171847
H13   H     H_    0.327831 0.106611 0.399148 0.145957
H14   H     H_    0.713374 0.234941 0.630657 0.156493
H15   H     H_    0.897975 0.125764 0.705627 0.185362
N1    N     N_R   0.501210 0.501210 0.147910 -0.196617
N2    N     N_R   0.501250 0.501290 0.852040 -0.200325
O1    O     O_R   0.499990 0.319640 0.618810 -0.583559
O2    O     O_R   0.500000 0.319660 0.381240 -0.568279
O3    O     O_R   0.316850 0.499960 0.618770 -0.518530
O4    O     O_R   0.316860 0.499980 0.381190 -0.598366
O5    O     O_R   0.500000 0.680340 0.618760 -0.595909
O6    O     O_R   0.500010 0.680360 0.381190 -0.597515
O7    O     O_R   0.683140 0.500020 0.618810 -0.603599
O8    O     O_R   0.683150 0.500040 0.381230 -0.560304
S1    S     S_3+6 0.824693 0.871392 0.161348 -0.010879
O9    O     O_2   0.938467 0.909895 0.076729 -0.307906
O10   O     O_2   0.744835 0.981763 0.184322 -0.269497
O11   O     O_3   0.869935 0.818135 0.315765 -0.564341
H16   H     H_    0.931208 0.881762 0.350851 0.366424
S2    S     S_3+6 0.073708 0.422170 0.795132 -0.040957
O12   O     O_2   0.140261 0.301895 0.786471 -0.336577
O13   O     O_2   0.156645 0.519969 0.862906 -0.332809
O14   O     O_3   0.940243 0.401701 0.887607 -0.542303
H17   H     H_    0.965444 0.359874 0.973685 0.379271
O15   O     O_3   0.919632 0.565158 0.242571 -0.572041
C31   C     C_3   0.021775 0.596729 0.154589 -0.125591
H18   H     H_    0.086160 0.518450 0.142473 0.159496
H19   H     H_    0.074043 0.681196 0.192250 0.169691
H20   H     H_    0.984821 0.618267 0.050621 0.231099

loop_
_geom_bond_atom_site_label_1
_geom_bond_atom_site_label_2
_ccdc_geom_bond_type
C8    C9    A    
C22   N1    A    
S2    O13   D    
C16   C21   A    
C29   H10   S    
C19   C20   A    
C1    C11   S    
C25   O7    A    
Cu1   O3    S    
C26   S2    S    
C7    C8    A    
C27   H1    S    
C25   C28   S    
C26   C27   S    
C29   C30   S    
C28   C29   S    
C2    O15   S    
C14   H4    S    
C5    C6    A    
S1    O10   D    
C18   C19   A    
C31   H19   S    
C16   C17   A    
Cu1   O7    S    
C4    C12   S    
C1    O1    A    
Cu2   O6    S    
C12   O4    A    
C17   S1    S    
C21   N1    A    
S1    O11   S    
C15   C23   S    
O14   H17   S    
S2    O14   S    
C13   C14   A    
C24   H9    S    
Cu2   N1    S    
C31   H18   S    
C25   O8    A    
Cu2   O8    S    
Cu1   N2    S    
C12   O3    A    
C3    H12   S    
C6    H15   S    
C10   C11   A    
O15   C31   S    
S1    O9    D    
C22   H5    S    
C8    H3    S    
C31   H20   S    
C18   H7    S    
Cu2   O2    S    
C20   N2    A    
Cu1   Cu2   S    
C17   C18   A    
C1    O2    A    
C7    H2    S    
C22   C24   A    
C30   H11   S    
Cu1   O1    S    
C3    C4    S    
Cu2   O4    S    
C23   O5    A    
C9    C10   A    
C24   N2    A    
C4    C26   S    
C23   O6    A    
C6    C7    A    
C5    H14   S    
C2    C30   S    
C3    C27   S    
C2    C3    S    
C9    C15   A    
C5    C10   A    
C13   H13   S    
C11   C13   A    
Cu1   O5    S    
O11   H16   S    
C19   H8    S    
S2    O12   D    
C20   C21   A    
C26   C29   S    
C27   C28   S    
C14   C15   A    
C2    C28   S    
C4    C30   S    
C16   H6    S    
