data_str_m2_o5_o29_f0_pcu.sym.100
_audit_creation_date              2013-03-05T16:36:12-0500
_audit_creation_method            fapswitch 2.2
_symmetry_space_group_name_H-M    P1
_symmetry_Int_Tables_number       1
_space_group_crystal_system       triclinic
_cell_length_a                    27.865142
_cell_length_b                    9.077146
_cell_length_c                    7.781819
_cell_angle_alpha                 89.960979
_cell_angle_beta                  89.931355
_cell_angle_gamma                 90.010655
_cell_volume                      1968.29997333

loop_
_atom_site_label
_atom_site_type_symbol
_atom_site_description
_atom_site_fract_x
_atom_site_fract_y
_atom_site_fract_z
_atom_type_partial_charge
O1    O     O_R   0.500000 0.288390 0.642760 -0.575453
O2    O     O_R   0.500000 0.711610 0.357240 -0.575532
O3    O     O_R   0.500000 0.711610 0.642760 -0.579689
O4    O     O_R   0.500000 0.288390 0.357240 -0.579693
C1    C     C_R   0.500003 0.220033 0.500040 0.837029
C2    C     C_R   0.499996 0.779967 0.499960 0.836580
O5    O     O_R   0.430260 0.500000 0.642770 -0.526857
O6    O     O_R   0.569740 0.500000 0.357230 -0.526337
O7    O     O_R   0.569740 0.500000 0.642770 -0.584217
O8    O     O_R   0.430260 0.500000 0.357230 -0.584441
C3    C     C_R   0.407277 0.502432 0.500127 0.836015
C4    C     C_R   0.592731 0.497554 0.499874 0.835664
Cu1   Cu    Cu3+1 0.500000 0.500000 0.669080 1.064708
Cu2   Cu    Cu3+1 0.500000 0.500000 0.330920 1.064810
C5    C     C_R   0.177837 0.371876 0.466424 0.556339
C6    C     C_R   0.822182 0.628528 0.532423 0.556252
C7    C     C_R   0.177802 0.629493 0.525711 0.552028
C8    C     C_R   0.822224 0.370453 0.475911 0.552014
O9    O     O_2   0.202559 0.246896 0.434876 -0.515471
O10   O     O_2   0.797453 0.753754 0.562533 -0.515163
O11   O     O_2   0.202486 0.754622 0.556849 -0.515558
O12   O     O_2   0.797542 0.245068 0.446191 -0.515212
N1    N     N_R   0.201942 0.500763 0.495627 -0.448632
N2    N     N_R   0.798082 0.499410 0.504593 -0.448730
C9    C     C_R   0.278656 0.582604 0.373064 -0.084662
C10   C     C_R   0.721361 0.418737 0.628114 -0.085262
C11   C     C_R   0.278533 0.422299 0.621439 -0.198773
C12   C     C_R   0.721506 0.576576 0.377621 -0.198932
C13   C     C_R   0.328639 0.589600 0.376223 0.315878
C14   C     C_R   0.671381 0.411612 0.624901 0.315854
C15   C     C_R   0.328932 0.423085 0.624386 0.362850
C16   C     C_R   0.671107 0.575716 0.374579 0.363133
C17   C     C_R   0.253485 0.500964 0.495889 0.213223
C18   C     C_R   0.746541 0.499194 0.504270 0.213551
C19   C     C_R   0.101816 0.500451 0.497504 -0.043298
C20   C     C_R   0.898207 0.499731 0.502756 -0.043408
C21   C     C_R   0.127448 0.369206 0.467788 -0.028451
C22   C     C_R   0.872571 0.631181 0.531140 -0.028452
C23   C     C_R   0.127430 0.631862 0.526097 -0.026361
C24   C     C_R   0.872596 0.368111 0.475485 -0.026377
C25   C     C_R   0.102424 0.238328 0.439750 -0.144629
C26   C     C_R   0.897593 0.762271 0.557796 -0.144345
C27   C     C_R   0.102412 0.762602 0.555163 -0.143690
C28   C     C_R   0.897617 0.237160 0.447822 -0.143410
C29   C     C_R   0.354368 0.506369 0.500642 -0.190212
C30   C     C_R   0.645653 0.493622 0.499380 -0.190577
H1    H     H_    0.258574 0.360057 0.716474 0.163170
H2    H     H_    0.741477 0.637880 0.281801 0.162902
H3    H     H_    0.259080 0.644626 0.276979 0.184538
H4    H     H_    0.740930 0.357680 0.725043 0.184291
H5    H     H_    0.121283 0.135839 0.416531 0.187314
H6    H     H_    0.878730 0.864959 0.579665 0.186904
H7    H     H_    0.121272 0.865239 0.577445 0.187360
H8    H     H_    0.878759 0.134322 0.426890 0.186947
C31   C     C_R   0.974485 0.365891 0.472581 0.044583
C32   C     C_R   0.025540 0.634210 0.528252 0.044539
C33   C     C_R   0.974478 0.634105 0.529090 0.044765
C34   C     C_R   0.025545 0.366162 0.470618 0.044725
C35   C     C_R   0.949289 0.499909 0.501493 0.069426
C36   C     C_R   0.050735 0.500275 0.498774 0.069527
C37   C     C_R   0.947411 0.235661 0.446549 -0.207140
C38   C     C_R   0.052618 0.764157 0.556146 -0.207554
C39   C     C_R   0.947394 0.764110 0.556697 -0.206546
C40   C     C_R   0.052623 0.236439 0.441155 -0.206960
H9    H     H_    0.963321 0.129439 0.424568 0.132096
H10   H     H_    0.036714 0.870121 0.579900 0.132827
H11   H     H_    0.963303 0.870418 0.578099 0.132111
H12   H     H_    0.036713 0.130391 0.417991 0.132846
C41   C     C_1   0.500001 0.065402 0.500055 -0.141090
C42   C     C_1   0.499997 0.934597 0.499945 -0.141147
N3    N     N_1   0.500000 0.500000 0.076820 -0.020411
N4    N     N_1   0.500000 0.500000 0.923180 -0.020455
O13   O     O_3   0.353928 0.341162 0.744386 -0.687353
H13   H     H_    0.330805 0.289396 0.820335 0.338314
O14   O     O_3   0.646133 0.656430 0.253416 -0.686799
H14   H     H_    0.669269 0.707323 0.176726 0.338235
O15   O     O_3   0.350523 0.681464 0.258407 -0.683112
H15   H     H_    0.381440 0.715899 0.306201 0.329861
O16   O     O_3   0.649488 0.320812 0.743787 -0.682865
H16   H     H_    0.618751 0.285120 0.695762 0.330048

loop_
_geom_bond_atom_site_label_1
_geom_bond_atom_site_label_2
_geom_bond_distance
_ccdc_geom_bond_type
C31   C35   1.422583 A    
Cu2   N3    1.977359 S    
C20   C35   1.423422 A    
C16   O14   1.382332 S    
O15   H15   0.989461 S    
C11   C17   1.397301 A    
C5    O9    1.349857 S    
C7    N1    1.368561 A    
O1    C1    1.272565 A    
C40   H12   1.075146 S    
C19   C21   1.408259 A    
C22   C26   1.394804 A    
C10   H4    1.083502 S    
C7    C23   1.403780 A    
C15   O13   1.382377 S    
C34   C36   1.422354 A    
C32   C33   1.422874 A    
O13   H13   0.991890 S    
O7    Cu1   1.953824 S    
C5    C21   1.404301 A    
C20   C24   1.407879 A    
C8    C24   1.403777 A    
C27   H7    1.083730 S    
N1    C17   1.436258 S    
C1    C41   1.403607 S    
C8    N2    1.368536 A    
O3    Cu1   1.931565 S    
C6    O10   1.349838 S    
O3    C2    1.272366 A    
C5    N1    1.368203 A    
C12   C18   1.397220 A    
C6    N2    1.368176 A    
Cu1   Cu2   2.631501 S    
C21   C25   1.394858 A    
O2    C2    1.272565 A    
C10   C18   1.397029 A    
C33   C39   1.417234 A    
C9    C13   1.394457 A    
C39   H11   1.075017 S    
C38   H10   1.075143 S    
C11   C15   1.404604 A    
C12   C16   1.404640 A    
C4    C30   1.475121 S    
O8    Cu2   1.953827 S    
C23   C27   1.394925 A    
C34   C40   1.417299 A    
N2    C18   1.436195 S    
C32   C36   1.422626 A    
C13   C29   1.422345 A    
C19   C36   1.423397 A    
C19   C23   1.407912 A    
O14   H14   0.991851 S    
C37   H9    1.075020 S    
O5    C3    1.282364 A    
C24   C28   1.394866 A    
O6    C4    1.282480 A    
C9    C17   1.397118 A    
C14   O16   1.380148 S    
C10   C14   1.394438 A    
C32   C38   1.417093 A    
C3    C29   1.474757 S    
O1    Cu1   1.931844 S    
C11   H1    1.083409 S    
C2    C42   1.403606 S    
C12   H2    1.083366 S    
O6    Cu2   1.954312 S    
C8    O12   1.349940 S    
C16   C30   1.413761 A    
C14   C30   1.422375 A    
O4    C1    1.272366 A    
Cu1   N4    1.977359 S    
C28   C37   1.387601 A    
C20   C22   1.408227 A    
N3    N4    1.195599 T    
C31   C37   1.417020 A    
O4    Cu2   1.931566 S    
C41   C42   1.187337 T    
O2    Cu2   1.931843 S    
O7    C4    1.282874 A    
C9    H3    1.083561 S    
C33   C35   1.422317 A    
O8    C3    1.282780 A    
O16   H16   0.989454 S    
C28   H8    1.083639 S    
O5    Cu1   1.954314 S    
C13   O15   1.380282 S    
C15   C29   1.413618 A    
C31   C34   1.422862 A    
C6    C22   1.404319 A    
C25   C40   1.387822 A    
C26   C39   1.387834 A    
C25   H5    1.083724 S    
C27   C38   1.387612 A    
C26   H6    1.083635 S    
C7    O11   1.349957 S    
