data_str_m3_o5_o22_f0_pcu.sym.8
_audit_creation_date              2012-12-10T20:48:21-0500
_audit_creation_method            fapswitch 2.2
_symmetry_space_group_name_H-M    P1
_symmetry_Int_Tables_number       1
_space_group_crystal_system       triclinic
_cell_length_a                    10.800198
_cell_length_b                    8.93772
_cell_length_c                    8.088019
_cell_angle_alpha                 89.349605
_cell_angle_beta                  89.300428
_cell_angle_gamma                 89.540567
_cell_volume                      780.596829429

loop_
_atom_site_label
_atom_site_type_symbol
_atom_type_description
_atom_site_fract_x
_atom_site_fract_y
_atom_site_fract_z
_atom_type_partial_charge
C1    C     C_R   0.499764 0.217923 0.500640 0.900611
C2    C     C_1   0.499028 0.934931 0.499865 -0.015033
C3    C     C_3   0.073272 0.686153 0.410235 0.495813
C4    C     C_3   0.926748 0.661101 0.366356 0.505522
C5    C     C_3   0.121508 0.530691 0.494842 -0.167735
C6    C     C_3   0.879381 0.523989 0.485501 -0.166373
C7    C     C_R   0.257696 0.515217 0.499750 0.954473
C8    C     C_R   0.743023 0.508986 0.496768 0.935094
C9    C     C_R   0.499610 0.782070 0.499740 1.072437
C10   C     C_1   0.499217 0.065207 0.501190 -0.149636
C11   C     C_3   0.067203 0.516925 0.673184 -0.348197
C12   C     C_3   0.074954 0.389169 0.404346 -0.373847
C13   C     C_3   0.927117 0.535360 0.666634 -0.359548
C14   C     C_3   0.933670 0.375296 0.419479 -0.405581
H1    H     H_    0.105961 0.597496 0.761268 0.286857
H2    H     H_    0.246757 0.659401 0.003616 0.383884
H3    H     H_    0.840619 0.064495 0.334530 0.359078
H4    H     H_    0.931840 0.400933 0.027019 0.358093
H5    H     H_    0.107647 0.387542 0.274817 0.283099
H6    H     H_    0.895675 0.639946 0.725323 0.295430
H7    H     H_    0.892687 0.342225 0.300762 0.220967
H8    H     H_    0.090098 0.404589 0.726510 0.218234
H9    H     H_    0.116790 0.287491 0.461603 0.207066
H10   H     H_    0.887404 0.443971 0.744946 0.212043
H11   H     H_    0.911021 0.282255 0.507394 0.218113
H12   H     H_    0.209904 0.037094 0.480682 0.360358
N1    N     N_1   0.500000 0.500030 0.073640 0.029518
N2    N     N_1   0.500000 0.500030 0.926360 -0.000891
O1    O     O_R   0.500000 0.285340 0.636850 -0.615534
O2    O     O_2   0.225775 0.807222 0.644071 -0.376317
O3    O     O_3   0.124215 0.005120 0.458310 -0.460009
O4    O     O_2   0.106955 0.879282 0.144275 -0.150882
O5    O     O_2   0.288513 0.801424 0.285060 -0.323689
O6    O     O_3   0.194180 0.611823 0.090243 -0.509721
O7    O     O_2   0.719792 0.822741 0.288137 -0.283634
O8    O     O_2   0.785942 0.843281 0.572751 -0.332378
O9    O     O_3   0.905737 0.985992 0.340493 -0.436986
O10   O     O_2   0.769926 0.578463 0.102683 -0.288767
O11   O     O_2   0.924026 0.754931 0.034971 -0.136590
O12   O     O_R   0.500000 0.285340 0.363150 -0.623220
O13   O     O_3   0.989333 0.479488 0.063194 -0.571977
O14   O     O_R   0.314790 0.499970 0.636880 -0.628199
O15   O     O_R   0.314790 0.499970 0.363120 -0.584008
O16   O     O_R   0.685210 0.499970 0.636880 -0.619406
O17   O     O_R   0.685210 0.499970 0.363120 -0.570624
O18   O     O_R   0.500000 0.714650 0.636900 -0.612132
O19   O     O_R   0.500000 0.714650 0.363100 -0.552169
O20   O     O_2   0.008708 0.861585 0.688975 -0.200219
S1    S     S_3+6 0.105940 0.839963 0.557536 0.086254
S2    S     S_3+6 0.166070 0.746931 0.228640 0.124026
S3    S     S_3+6 0.830925 0.829547 0.397088 0.077550
S4    S     S_3+6 0.901027 0.618542 0.140052 0.089498
Zn1   Zn    Zn3+2 0.500000 0.499990 0.682780 1.068265
Zn2   Zn    Zn3+2 0.500000 0.499990 0.317220 1.121019

loop_
_geom_bond_atom_site_label_1
_geom_bond_atom_site_label_2
_ccdc_geom_bond_type
C12   H5    S    
N2    Zn1   S    
C9    O19   A    
C7    O15   A    
C6    C14   S    
O15   Zn2   S    
C13   H6    S    
O13   S4    S    
C1    O1    A    
O11   S4    D    
C3    S1    S    
N1    Zn2   S    
C9    O18   A    
O14   Zn1   S    
H3    O9    S    
C6    C13   S    
C11   C13   S    
C12   H9    S    
O4    S2    D    
O8    S3    D    
O1    Zn1   S    
O3    S1    S    
O19   Zn2   S    
O18   Zn1   S    
O20   S1    D    
O2    S1    D    
C4    S4    S    
O17   Zn2   S    
C5    C11   S    
O12   Zn2   S    
C14   H11   S    
O7    S3    D    
O9    S3    S    
O6    S2    S    
O10   S4    D    
C4    S3    S    
C3    C4    S    
C2    C10   T    
C8    O16   A    
H12   O3    S    
C14   H7    S    
C5    C12   S    
C4    C6    S    
C7    O14   A    
N1    N2    T    
C5    C7    S    
C8    O17   A    
C6    C8    S    
C11   H8    S    
C1    O12   A    
H2    O6    S    
O5    S2    D    
C2    C9    S    
C11   H1    S    
O16   Zn1   S    
C3    S2    S    
C1    C10   S    
H4    O13   S    
C13   H10   S    
C12   C14   S    
C3    C5    S    
