data_str_m9_o10_o29_f0_sra.sym.3
_audit_creation_date              2012-12-11T14:08:39-0500
_audit_creation_method            fapswitch 2.2
_symmetry_space_group_name_H-M    P1
_symmetry_Int_Tables_number       1
_space_group_crystal_system       triclinic
_cell_length_a                    28.22469
_cell_length_b                    7.170532
_cell_length_c                    17.327438
_cell_angle_alpha                 90.001494
_cell_angle_beta                  101.976763
_cell_angle_gamma                 89.997928
_cell_volume                      3430.49433978

loop_
_atom_site_label
_atom_site_type_symbol
_atom_type_description
_atom_site_fract_x
_atom_site_fract_y
_atom_site_fract_z
_atom_type_partial_charge
O1    O     O_R   0.000700 0.436510 0.857920 -0.507910
O2    O     O_R   0.999300 0.563490 0.142080 -0.507890
O3    O     O_R   0.999300 0.936510 0.642080 -0.507890
O4    O     O_R   0.000700 0.063490 0.357920 -0.507915
O5    O     O_R   0.930080 0.766380 0.721890 -0.512082
O6    O     O_R   0.069920 0.233620 0.278110 -0.512342
O7    O     O_R   0.069920 0.266380 0.778110 -0.512368
O8    O     O_R   0.930080 0.733620 0.221890 -0.512094
C1    C     C_R   0.910495 0.597320 0.709978 0.728623
C2    C     C_R   0.089498 0.402678 0.290015 0.728817
C3    C     C_R   0.089496 0.097317 0.790022 0.728864
C4    C     C_R   0.910495 0.902681 0.209976 0.728641
O9    O     O_R   0.996180 0.766230 0.862310 -0.553567
O10   O     O_R   0.003820 0.233770 0.137690 -0.553604
O11   O     O_R   0.003820 0.266230 0.637690 -0.553610
O12   O     O_R   0.996180 0.733770 0.362310 -0.553568
O13   O     O_R   0.065870 0.936460 0.783500 -0.546841
O14   O     O_R   0.934130 0.063540 0.216500 -0.546840
O15   O     O_R   0.934130 0.436460 0.716500 -0.546846
O16   O     O_R   0.065870 0.563540 0.283500 -0.546836
C5    C     C_R   0.998489 0.596147 0.894302 0.722298
C6    C     C_R   0.001514 0.403854 0.105699 0.722288
C7    C     C_R   0.001514 0.096144 0.605700 0.722302
C8    C     C_R   0.998488 0.903855 0.394301 0.722303
O17   O     O_3   0.022790 0.603020 0.723980 -0.363039
O18   O     O_3   0.977210 0.396980 0.276020 -0.362872
O19   O     O_3   0.977210 0.103020 0.776020 -0.362859
O20   O     O_3   0.022790 0.896980 0.223980 -0.363013
V1    V     V_3+5 0.995770 0.877900 0.754830 1.526652
V2    V     V_3+5 0.004230 0.122100 0.245170 1.526348
V3    V     V_3+5 0.004230 0.377900 0.745170 1.526301
V4    V     V_3+5 0.995770 0.622100 0.254830 1.526629
C9    C     C_2   0.002639 0.083283 0.520358 0.021046
C10   C     C_2   0.997367 0.916714 0.479644 0.021135
C11   C     C_2   0.997365 0.583286 0.979645 0.021140
C12   C     C_2   0.002642 0.416716 0.020358 0.021053
C13   C     C_R   0.684652 0.033801 0.035212 0.581835
C14   C     C_R   0.315308 0.965596 0.964675 0.581914
C15   C     C_R   0.315321 0.534380 0.464598 0.581871
C16   C     C_R   0.684667 0.466055 0.535178 0.581836
O21   O     O_2   0.715894 0.089088 0.990523 -0.508128
O22   O     O_2   0.284068 0.910057 0.009323 -0.508117
O23   O     O_2   0.284081 0.589888 0.509256 -0.508114
O24   O     O_2   0.715914 0.410774 0.490492 -0.508111
N1    N     N_R   0.702710 0.955704 0.107388 -0.556696
N2    N     N_R   0.297250 0.043960 0.892553 -0.556689
N3    N     N_R   0.297260 0.456043 0.392471 -0.556685
N4    N     N_R   0.702721 0.544185 0.607352 -0.556696
C17   C     C_R   0.672681 0.898718 0.155270 0.625217
C18   C     C_R   0.327278 0.101177 0.844714 0.624774
C19   C     C_R   0.327290 0.398862 0.344622 0.624860
C20   C     C_R   0.672688 0.601163 0.655229 0.625235
C21   C     C_R   0.779887 0.078829 0.185667 -0.068560
C22   C     C_R   0.220087 0.921686 0.813867 -0.068691
C23   C     C_R   0.220085 0.578404 0.313854 -0.068673
C24   C     C_R   0.779905 0.421092 0.685622 -0.068543
C25   C     C_R   0.830581 0.064038 0.212408 -0.183567
C26   C     C_R   0.169396 0.936559 0.787172 -0.183520
C27   C     C_R   0.169390 0.563522 0.287173 -0.183523
C28   C     C_R   0.830594 0.435925 0.712379 -0.183595
C29   C     C_R   0.830181 0.777435 0.135968 0.161694
C30   C     C_R   0.169769 0.221821 0.864412 0.161324
C31   C     C_R   0.169789 0.278064 0.364318 0.161461
C32   C     C_R   0.830175 0.722570 0.635977 0.161726
C33   C     C_R   0.779714 0.792359 0.111362 -0.125063
C34   C     C_R   0.220230 0.206799 0.889027 -0.125261
C35   C     C_R   0.220251 0.293090 0.388921 -0.125239
C36   C     C_R   0.779711 0.707616 0.611356 -0.125043
C37   C     C_R   0.754506 0.942195 0.135217 0.313448
C38   C     C_R   0.245454 0.057583 0.864744 0.313110
C39   C     C_R   0.245464 0.442405 0.364674 0.313183
C40   C     C_R   0.754515 0.557733 0.635182 0.313464
C41   C     C_R   0.602311 0.988222 0.055244 -0.048135
C42   C     C_R   0.397646 0.011384 0.944677 -0.048178
C43   C     C_R   0.397660 0.488614 0.444594 -0.048170
C44   C     C_R   0.602323 0.511656 0.555193 -0.048148
C45   C     C_R   0.633876 0.056108 0.007859 -0.069602
C46   C     C_R   0.366084 0.943293 0.992024 -0.069599
C47   C     C_R   0.366096 0.556687 0.491945 -0.069615
C48   C     C_R   0.633893 0.443728 0.507819 -0.069604
C49   C     C_R   0.613407 0.151294 0.937295 -0.059369
C50   C     C_R   0.386557 0.847933 0.062548 -0.059288
C51   C     C_R   0.386568 0.652026 0.562473 -0.059288
C52   C     C_R   0.613429 0.348490 0.437264 -0.059356
C53   C     C_R   0.622174 0.915911 0.130561 -0.049042
C54   C     C_R   0.377782 0.083898 0.869400 -0.048943
C55   C     C_R   0.377796 0.416133 0.369310 -0.048953
C56   C     C_R   0.622181 0.583973 0.630511 -0.049042
C57   C     C_R   0.856468 0.914103 0.186453 -0.089345
C58   C     C_R   0.143508 0.085864 0.813532 -0.089189
C59   C     C_R   0.143512 0.414120 0.313496 -0.089261
C60   C     C_R   0.856470 0.585894 0.686449 -0.089311
H1    H     H_    0.759970 0.687538 0.072459 0.141612
H2    H     H_    0.239957 0.311039 0.928257 0.141760
H3    H     H_    0.239991 0.188771 0.428110 0.141737
H4    H     H_    0.759959 0.812442 0.572467 0.141614
C61   C     C_R   0.480150 0.063392 0.921458 0.001850
C62   C     C_R   0.519804 0.936257 0.078458 0.001839
C63   C     C_R   0.519814 0.563664 0.578392 0.001827
C64   C     C_R   0.480164 0.436577 0.421385 0.001872
C65   C     C_R   0.468701 0.929705 0.047545 0.037587
C66   C     C_R   0.531257 0.069849 0.952358 0.037613
C67   C     C_R   0.531273 0.430069 0.452296 0.037609
C68   C     C_R   0.468712 0.570245 0.547471 0.037582
C69   C     C_R   0.449025 0.003686 0.971677 0.070722
C70   C     C_R   0.550931 0.995915 0.028235 0.070745
C71   C     C_R   0.550944 0.503990 0.528176 0.070738
C72   C     C_R   0.449038 0.496290 0.471599 0.070730
C73   C     C_R   0.458393 0.104525 0.841082 -0.037716
C74   C     C_R   0.541554 0.895262 0.158849 -0.037650
C75   C     C_R   0.541559 0.604641 0.658786 -0.037710
C76   C     C_R   0.458410 0.395483 0.341002 -0.037663
C77   C     C_R   0.408350 0.125877 0.817996 -0.142944
C78   C     C_R   0.591601 0.874041 0.181970 -0.142978
C79   C     C_R   0.591606 0.625851 0.681915 -0.142969
C80   C     C_R   0.408365 0.374170 0.317906 -0.142974
O25   O     O_2   0.308239 0.174038 0.773175 -0.495146
O26   O     O_2   0.691722 0.826183 0.226874 -0.494949
O27   O     O_2   0.691724 0.673689 0.726835 -0.494959
O28   O     O_2   0.308252 0.326042 0.273074 -0.495112
C81   C     C_R   0.563214 0.162957 0.912680 -0.193629
C82   C     C_R   0.436752 0.836442 0.087196 -0.193606
C83   C     C_R   0.436764 0.663507 0.587123 -0.193609
C84   C     C_R   0.563231 0.336904 0.412627 -0.193604
H5    H     H_    0.393004 0.164829 0.757435 0.177032
H6    H     H_    0.606943 0.835227 0.242550 0.176956
H7    H     H_    0.606943 0.664660 0.742498 0.176952
H8    H     H_    0.393021 0.335245 0.257339 0.177006
H9    H     H_    0.549698 0.255033 0.863869 0.146217
H10   H     H_    0.450282 0.744360 0.136000 0.146265
H11   H     H_    0.450293 0.755573 0.635931 0.146271
H12   H     H_    0.549717 0.244828 0.363816 0.146223
N5    N     N_3   0.009852 0.254383 0.481210 -0.635867
H13   H     H_    0.042254 0.314793 0.510875 0.223402
H14   H     H_    0.981291 0.344335 0.484954 0.233067
N6    N     N_3   0.990159 0.745612 0.518794 -0.635876
H15   H     H_    0.957757 0.685194 0.489133 0.223295
H16   H     H_    0.018720 0.655667 0.515047 0.233209
N7    N     N_3   0.990149 0.754389 0.018794 -0.635872
H17   H     H_    0.957745 0.814797 0.989131 0.223300
H18   H     H_    0.018708 0.844344 0.015050 0.233199
N8    N     N_3   0.009864 0.245617 0.981211 -0.635857
H19   H     H_    0.042269 0.185220 0.010878 0.223405
H20   H     H_    0.981307 0.155652 0.984952 0.233059
N9    N     N_3   0.854738 0.625269 0.107579 -0.643210
H21   H     H_    0.847138 0.630409 0.045931 0.235984
H22   H     H_    0.840440 0.500856 0.124500 0.235795
N10   N     N_3   0.145185 0.373287 0.893201 -0.643592
H23   H     H_    0.152736 0.367092 0.954827 0.236201
H24   H     H_    0.159499 0.498088 0.876684 0.235901
N11   N     N_3   0.145220 0.126497 0.393082 -0.643512
H25   H     H_    0.152777 0.132592 0.454719 0.236182
H26   H     H_    0.159530 0.001706 0.376520 0.235880
N12   N     N_3   0.854718 0.874738 0.607606 -0.643222
H27   H     H_    0.847149 0.869551 0.545963 0.235984
H28   H     H_    0.840392 0.999140 0.624490 0.235785
C85   C     C_1   0.642127 0.248051 0.889753 0.423419
N13   N     N_1   0.664850 0.325920 0.851457 -0.275491
C86   C     C_1   0.357842 0.750791 0.109994 0.423342
N14   N     N_1   0.335120 0.672600 0.148196 -0.275568
C87   C     C_1   0.357855 0.749157 0.609919 0.423385
N15   N     N_1   0.335134 0.827336 0.648125 -0.275565
C88   C     C_1   0.642156 0.251614 0.389770 0.423414
N16   N     N_1   0.664884 0.173671 0.351515 -0.275510
C89   C     C_1   0.144695 0.801307 0.730557 0.337658
N17   N     N_1   0.125154 0.693294 0.685303 -0.327329
C90   C     C_1   0.855266 0.200055 0.268681 0.337469
N18   N     N_1   0.874793 0.308706 0.313656 -0.326808
C91   C     C_1   0.855285 0.299897 0.768637 0.337518
N19   N     N_1   0.874811 0.191238 0.813606 -0.326780
C92   C     C_1   0.144680 0.698873 0.230601 0.337599
N20   N     N_1   0.125129 0.806970 0.185379 -0.327252
C93   C     C_1   0.246444 0.765726 0.790112 0.359868
N21   N     N_1   0.267501 0.641052 0.771286 -0.269836
C94   C     C_1   0.753545 0.235475 0.208920 0.359068
N22   N     N_1   0.732501 0.360720 0.227329 -0.270463
C95   C     C_1   0.753577 0.264382 0.708853 0.358984
N23   N     N_1   0.732546 0.139079 0.727244 -0.270490
C96   C     C_1   0.246425 0.734496 0.290146 0.359709
N24   N     N_1   0.267472 0.859289 0.271367 -0.269886
C97   C     C_1   0.484215 0.097448 0.777164 0.316431
N25   N     N_1   0.504567 0.091371 0.725675 -0.358376
C98   C     C_1   0.515712 0.902359 0.222738 0.316410
N26   N     N_1   0.495341 0.908449 0.274203 -0.358317
C99   C     C_1   0.515713 0.597538 0.722669 0.316480
N27   N     N_1   0.495338 0.591445 0.774133 -0.358279
C100  C     C_1   0.484239 0.402551 0.277094 0.316352
N28   N     N_1   0.504601 0.408618 0.225616 -0.358388

loop_
_geom_bond_atom_site_label_1
_geom_bond_atom_site_label_2
_ccdc_geom_bond_type
O17   V3    S    
C92   N20   T    
O1    C5    A    
C89   N17   T    
C62   C74   A    
C23   C27   A    
O19   V1    S    
C18   O25   S    
O13   V1    S    
C91   N19   T    
O3    C7    A    
C88   N16   T    
C76   C80   A    
C48   C52   A    
C21   C37   A    
C76   C100  S    
N9    H21   S    
C41   C70   A    
C68   C83   A    
C93   N21   T    
O7    C3    A    
C36   H4    S    
C25   C57   A    
C54   C77   A    
C28   C91   S    
C32   C36   A    
C22   C93   S    
O9    V1    S    
C53   C78   A    
N10   H24   S    
C14   O22   S    
N4    C20   A    
O16   V4    S    
O4    C8    A    
C77   H5    S    
C32   N12   S    
O1    V3    S    
C79   H7    S    
C84   H12   S    
O2    V4    S    
O3    V1    S    
C26   C89   S    
C12   N8    S    
C29   N9    S    
C11   N7    S    
C1    O15   A    
C85   N13   T    
C11   C12   D    
C2    O16   A    
C24   C40   A    
O2    C6    A    
N11   H25   S    
C16   C48   A    
O14   V2    S    
C45   C49   A    
C66   C81   A    
C44   C56   A    
N12   H28   S    
C61   C66   A    
C73   C77   A    
C34   H2    S    
C61   C69   A    
O11   C7    A    
C63   C68   A    
C51   C87   S    
O15   V3    S    
C43   C72   A    
O12   C8    A    
C30   N10   S    
C35   H3    S    
C31   C59   A    
O10   V2    S    
C27   C92   S    
C67   C84   A    
C1    C60   S    
N9    H22   S    
C29   C57   A    
C87   N15   T    
O5    V1    S    
C24   C95   S    
C28   C60   A    
C65   C69   A    
C31   C35   A    
C64   C72   A    
C49   C85   S    
C30   C34   A    
N1    C37   S    
O8    V4    S    
C17   C53   A    
C4    C57   S    
C20   C56   A    
O7    V3    S    
N10   H23   S    
N6    H16   S    
C19   C55   A    
C90   N18   T    
C21   C25   A    
O18   V4    S    
N3    C19   A    
C14   C46   A    
C7    C9    S    
C97   N25   T    
C13   C45   A    
C64   C67   A    
C8    C10   S    
C24   C28   A    
C49   C81   A    
C36   C40   A    
C15   C47   A    
C98   N26   T    
C20   O27   S    
O5    C1    A    
C29   C33   A    
C61   C73   A    
C46   C50   A    
C19   O28   S    
C86   N14   T    
C22   C38   A    
C10   N6    S    
O8    C4    A    
C63   C75   A    
C9    C10   D    
C55   C80   A    
O9    C5    A    
C27   C59   A    
C42   C54   A    
C26   C58   A    
C31   N11   S    
N12   H27   S    
C52   C88   S    
C25   C90   S    
C43   C55   A    
N4    C40   S    
O6    V2    S    
C74   C98   S    
C64   C76   A    
C44   C71   A    
C80   H8    S    
N5    H13   S    
N8    H20   S    
C52   C84   A    
N3    C39   S    
C13   N1    A    
C68   C72   A    
N2    C38   S    
C6    C12   S    
C21   C94   S    
C15   N3    A    
C22   C26   A    
C73   C97   S    
C16   N4    A    
C74   C78   A    
C3    O13   A    
C83   H11   S    
C23   C96   S    
C44   C48   A    
C81   H9    S    
N6    H15   S    
C2    C59   S    
C15   O23   S    
N7    H17   S    
O11   V3    S    
C5    C11   S    
O12   V4    S    
C62   C65   A    
C63   C71   A    
N2    C18   A    
C65   C82   A    
C62   C70   A    
O10   C6    A    
C56   C79   A    
O20   V2    S    
C41   C53   A    
C94   N22   T    
C42   C69   A    
C47   C51   A    
C50   C86   S    
N7    H18   S    
C3    C58   S    
C99   N27   T    
C34   C38   A    
C33   C37   A    
C30   C58   A    
C33   H1    S    
C82   H10   S    
N1    C17   A    
C66   C70   A    
C75   C99   S    
C35   C39   A    
N11   H26   S    
C13   O21   S    
O4    V2    S    
C14   N2    A    
O6    C2    A    
C18   C54   A    
C96   N24   T    
C17   O26   S    
C9    N5    S    
C16   O24   S    
C100  N28   T    
C75   C79   A    
C95   N23   T    
C42   C46   A    
C4    O14   A    
N5    H14   S    
C78   H6    S    
C41   C45   A    
N8    H19   S    
C67   C71   A    
C32   C60   A    
C51   C83   A    
C43   C47   A    
C50   C82   A    
C23   C39   A    
