data_str_m2_o5_o28_f0_pcu.sym.6
_audit_creation_date              2013-03-05T16:35:53-0500
_audit_creation_method            fapswitch 2.2
_symmetry_space_group_name_H-M    P1
_symmetry_Int_Tables_number       1
_space_group_crystal_system       triclinic
_cell_length_a                    23.57491
_cell_length_b                    9.083765
_cell_length_c                    7.778034
_cell_angle_alpha                 90.029733
_cell_angle_beta                  90.069464
_cell_angle_gamma                 89.843556
_cell_volume                      1665.6500999

loop_
_atom_site_label
_atom_site_type_symbol
_atom_site_description
_atom_site_fract_x
_atom_site_fract_y
_atom_site_fract_z
_atom_type_partial_charge
O1    O     O_R   0.500000 0.288390 0.642760 -0.575241
O2    O     O_R   0.500000 0.711610 0.357240 -0.575239
O3    O     O_R   0.500000 0.711610 0.642760 -0.574616
O4    O     O_R   0.500000 0.288390 0.357240 -0.574618
C1    C     C_R   0.500010 0.220006 0.499973 0.852763
C2    C     C_R   0.499990 0.779994 0.500027 0.852767
O5    O     O_R   0.417880 0.500000 0.642820 -0.585364
O6    O     O_R   0.582120 0.500000 0.357180 -0.585355
O7    O     O_R   0.582120 0.500000 0.642820 -0.585494
O8    O     O_R   0.417880 0.500000 0.357180 -0.585482
C3    C     C_R   0.209195 0.503599 0.498492 0.356122
C4    C     C_R   0.790807 0.496276 0.501666 0.355957
C5    C     C_R   0.390645 0.500381 0.499884 0.796948
C6    C     C_R   0.609355 0.499614 0.500119 0.796960
Cu1   Cu    Cu3+1 0.500000 0.500000 0.669080 1.007156
Cu2   Cu    Cu3+1 0.500000 0.500000 0.330920 1.007162
H1    H     H_    0.216041 0.490202 0.774885 0.139717
H2    H     H_    0.783611 0.483497 0.777928 0.140329
H3    H     H_    0.216352 0.516574 0.222215 0.140244
H4    H     H_    0.783990 0.509476 0.225271 0.139847
C7    C     C_R   0.298018 0.495277 0.655049 -0.207640
C8    C     C_R   0.701800 0.490833 0.656601 -0.208577
C9    C     C_R   0.298183 0.509228 0.343456 -0.208581
C10   C     C_R   0.701999 0.504551 0.345022 -0.207722
H5    H     H_    0.320033 0.489213 0.777144 0.161048
H6    H     H_    0.679649 0.485697 0.778336 0.161089
H7    H     H_    0.320322 0.514478 0.221698 0.161060
H8    H     H_    0.679996 0.510526 0.222912 0.161048
C11   C     C_R   0.328204 0.501551 0.499489 -0.039015
C12   C     C_R   0.671796 0.498416 0.500547 -0.039033
C13   C     C_R   0.879394 0.616529 0.567193 0.541510
C14   C     C_R   0.120618 0.383137 0.433418 0.541554
C15   C     C_R   0.880200 0.378678 0.437519 0.561745
C16   C     C_R   0.119803 0.621162 0.562649 0.561690
N1    N     N_R   0.851729 0.497045 0.502343 -0.472035
N2    N     N_R   0.148276 0.502770 0.497911 -0.472068
C17   C     C_R   0.940079 0.377076 0.433080 -0.051683
C18   C     C_R   0.059927 0.622626 0.567399 -0.051729
C19   C     C_R   0.939424 0.620919 0.570675 -0.060789
C20   C     C_R   0.060586 0.378631 0.430174 -0.060783
C21   C     C_R   0.969890 0.499453 0.501077 -0.092373
C22   C     C_R   0.030118 0.500186 0.499547 -0.092373
C23   C     C_R   0.970584 0.257109 0.362447 0.174482
C24   C     C_R   0.029424 0.742391 0.638499 0.174599
C25   C     C_R   0.969958 0.741804 0.640869 0.088084
C26   C     C_R   0.030053 0.257515 0.360516 0.087973
C27   C     C_1   0.500003 0.065384 0.499962 -0.167425
C28   C     C_1   0.499997 0.934615 0.500037 -0.167427
C29   C     C_R   0.238881 0.496074 0.654368 -0.098749
C30   C     C_R   0.760927 0.489557 0.656975 -0.094638
C31   C     C_R   0.239054 0.510449 0.343143 -0.094617
C32   C     C_R   0.761138 0.503714 0.345763 -0.098602
N3    N     N_1   0.500000 0.500000 0.076820 -0.049593
N4    N     N_1   0.500000 0.500000 0.923180 -0.049595
O9    O     O_2   0.848230 0.730516 0.625874 -0.546558
O10   O     O_2   0.151792 0.269159 0.374777 -0.546504
O11   O     O_2   0.850118 0.262808 0.379009 -0.495260
O12   O     O_2   0.149880 0.737183 0.620778 -0.495246
N5    N     N_3   0.941264 0.133241 0.289812 -0.498795
H9    H     H_    0.954153 0.037836 0.354281 0.233246
H10   H     H_    0.952610 0.123485 0.160351 0.239018
N6    N     N_3   0.058747 0.866098 0.711488 -0.498877
H11   H     H_    0.047879 0.874453 0.841547 0.238805
H12   H     H_    0.045381 0.961957 0.648649 0.233274
N7    N     N_3   0.942405 0.866424 0.718492 -0.597489
H13   H     H_    0.917765 0.831516 0.822320 0.268872
H14   H     H_    0.917891 0.921523 0.626734 0.279100
N8    N     N_3   0.057610 0.132429 0.283965 -0.597403
H15   H     H_    0.082139 0.077949 0.376184 0.279419
H16   H     H_    0.082232 0.166680 0.179805 0.268997

loop_
_geom_bond_atom_site_label_1
_geom_bond_atom_site_label_2
_geom_bond_distance
_ccdc_geom_bond_type
O4    Cu2   1.933193 S    
C4    C30   1.400561 A    
O7    C6    1.282937 A    
C9    C11   1.405839 A    
C18   C24   1.415124 A    
N6    H11   1.046513 S    
O1    Cu1   1.932981 S    
C9    H7    1.083034 S    
C19   C21   1.422073 A    
O2    Cu2   1.932981 S    
C21   C22   1.419982 A    
C9    C31   1.393964 A    
C27   C28   1.187877 T    
C23   N5    1.437246 S    
C19   C25   1.422950 A    
O3    C2    1.272435 A    
C13   O9    1.347725 S    
O5    Cu1   1.946472 S    
N6    H12   1.046414 S    
O7    Cu1   1.946963 S    
N5    H9    1.045704 S    
O6    Cu2   1.946470 S    
O8    Cu2   1.946965 S    
N3    N4    1.195018 T    
C24   C25   1.402095 A    
C4    N1    1.436275 S    
C26   N8    1.436612 S    
C1    C27   1.404542 S    
O2    C2    1.272240 A    
C2    C28   1.404542 S    
C6    C12   1.472049 S    
O1    C1    1.272240 A    
O4    C1    1.272435 A    
C14   N2    1.363910 A    
C7    C29   1.394152 A    
C3    N2    1.436209 S    
C4    C32   1.400722 A    
C13   C19   1.416107 A    
C18   C22   1.418509 A    
C16   N2    1.362722 A    
C10   C32   1.394197 A    
C14   C20   1.416153 A    
C17   C21   1.418498 A    
C15   N1    1.362770 A    
C23   C26   1.402073 A    
C13   N1    1.363931 A    
C17   C23   1.415143 A    
N5    H10   1.045836 S    
C10   C12   1.405626 A    
C3    C31   1.400629 A    
C20   C26   1.422977 A    
Cu1   Cu2   2.630221 S    
Cu1   N4    1.976398 S    
H3    C31   1.083004 S    
C8    C30   1.393920 A    
O5    C5    1.283172 A    
O3    Cu1   1.933192 S    
C3    C29   1.400760 A    
H2    C30   1.082942 S    
H4    C32   1.082933 S    
N7    H13   1.045264 S    
C8    H6    1.082965 S    
H1    C29   1.083005 S    
C16   O12   1.349350 S    
N8    H16   1.045223 S    
C7    H5    1.083022 S    
Cu2   N3    1.976398 S    
N8    H15   1.044798 S    
O6    C6    1.283193 A    
C8    C12   1.405744 A    
C24   N6    1.437196 S    
C16   C18   1.412119 A    
C25   N7    1.436699 S    
C7    C11   1.405716 A    
C14   O10   1.347688 S    
C15   O11   1.349323 S    
C15   C17   1.412129 A    
C10   H8    1.082948 S    
C5    C11   1.472050 S    
C20   C22   1.422064 A    
N7    H14   1.044825 S    
O8    C5    1.282957 A    
