data_str_m3_o40_o40_f0_fof.sym.56
_audit_creation_date              2012-12-10T16:37:25-0500
_audit_creation_method            fapswitch 2.2
_symmetry_space_group_name_H-M    P1
_symmetry_Int_Tables_number       1
_space_group_crystal_system       triclinic
_cell_length_a                    16.690059
_cell_length_b                    16.690052
_cell_length_c                    16.690045
_cell_angle_alpha                 65.79211
_cell_angle_beta                  65.792238
_cell_angle_gamma                 65.792288
_cell_volume                      3700.3038429

loop_
_atom_site_label
_atom_site_type_symbol
_atom_type_description
_atom_site_fract_x
_atom_site_fract_y
_atom_site_fract_z
_atom_type_partial_charge
C1    C     C_R   0.400482 0.047075 0.665254 -0.256376
C2    C     C_R   0.400482 0.665255 0.047073 -0.256376
C3    C     C_R   0.952930 0.599518 0.334742 -0.256374
C4    C     C_R   0.047069 0.400482 0.665258 -0.256373
C5    C     C_R   0.960018 0.179836 0.438814 0.925533
C6    C     C_R   0.039982 0.820164 0.561186 0.925533
C7    C     C_R   0.179836 0.438814 0.960019 0.925532
C8    C     C_R   0.820164 0.561186 0.039981 0.925532
C9    C     C_R   0.438814 0.960018 0.179836 0.925534
C10   C     C_R   0.561186 0.039982 0.820164 0.925533
C11   C     C_R   0.561186 0.820164 0.039981 0.925534
C12   C     C_R   0.599518 0.952925 0.334746 -0.256375
C13   C     C_R   0.438814 0.179836 0.960019 0.925535
C14   C     C_R   0.039982 0.561186 0.820164 0.925532
C15   C     C_R   0.960018 0.438814 0.179836 0.925533
C16   C     C_R   0.820164 0.039982 0.561186 0.925532
C17   C     C_R   0.179836 0.960018 0.438814 0.925533
C18   C     C_R   0.440241 0.076585 0.703285 0.410503
C19   C     C_R   0.559759 0.923415 0.296715 0.410503
C20   C     C_R   0.076586 0.703285 0.440241 0.410502
C21   C     C_R   0.923414 0.296715 0.559759 0.410503
C22   C     C_R   0.703286 0.440241 0.076583 0.410503
C23   C     C_R   0.047077 0.665254 0.400480 -0.256372
C24   C     C_R   0.296714 0.559759 0.923417 0.410503
C25   C     C_R   0.296713 0.923418 0.559759 0.410503
C26   C     C_R   0.703287 0.076582 0.440241 0.410504
C27   C     C_R   0.559758 0.296715 0.923417 0.410503
C28   C     C_R   0.440242 0.703285 0.076584 0.410503
C29   C     C_R   0.923418 0.559759 0.296713 0.410503
C30   C     C_R   0.076582 0.440241 0.703287 0.410503
C31   C     C_R   0.539764 0.029020 0.539763 0.031951
C32   C     C_R   0.460236 0.970980 0.460237 0.031951
C33   C     C_R   0.029020 0.539763 0.539763 0.031949
C34   C     C_R   0.952923 0.334746 0.599519 -0.256372
C35   C     C_R   0.970980 0.460237 0.460237 0.031949
C36   C     C_R   0.539763 0.539763 0.029019 0.031951
C37   C     C_R   0.460236 0.460236 0.970981 0.031951
C38   C     C_R   0.586530 0.016738 0.451405 0.021458
C39   C     C_R   0.413470 0.983261 0.548595 0.021458
C40   C     C_R   0.016738 0.451405 0.586531 0.021458
C41   C     C_R   0.983262 0.548595 0.413469 0.021458
C42   C     C_R   0.451404 0.586529 0.016740 0.021458
C43   C     C_R   0.548596 0.413471 0.983260 0.021458
C44   C     C_R   0.548596 0.983258 0.413471 0.021457
C45   C     C_R   0.665255 0.400483 0.047072 -0.256377
C46   C     C_R   0.451404 0.016741 0.586529 0.021457
C47   C     C_R   0.413470 0.548595 0.983261 0.021457
C48   C     C_R   0.586529 0.451404 0.016740 0.021457
C49   C     C_R   0.983257 0.413471 0.548597 0.021457
C50   C     C_R   0.016743 0.586529 0.451403 0.021458
C51   C     C_R   0.536128 0.065141 0.670301 -0.003012
C52   C     C_R   0.463872 0.934859 0.329699 -0.003013
C53   C     C_R   0.065141 0.670301 0.536127 -0.003012
C54   C     C_R   0.934859 0.329699 0.463872 -0.003012
C55   C     C_R   0.670302 0.536128 0.065140 -0.003012
C56   C     C_R   0.334744 0.599517 0.952928 -0.256377
C57   C     C_R   0.329698 0.463872 0.934860 -0.003012
C58   C     C_R   0.329698 0.934860 0.463872 -0.003012
C59   C     C_R   0.670302 0.065140 0.536128 -0.003012
C60   C     C_R   0.463872 0.329698 0.934860 -0.003012
C61   C     C_R   0.536128 0.670302 0.065140 -0.003012
C62   C     C_R   0.934860 0.463872 0.329698 -0.003012
C63   C     C_R   0.065140 0.536128 0.670302 -0.003012
C64   C     C_R   0.588301 0.066009 0.720000 -0.100462
C65   C     C_R   0.411699 0.933991 0.280000 -0.100463
C66   C     C_R   0.066010 0.720000 0.588301 -0.100462
C67   C     C_R   0.334743 0.952931 0.599517 -0.256377
C68   C     C_R   0.933990 0.280000 0.411699 -0.100462
C69   C     C_R   0.720000 0.588301 0.066008 -0.100463
C70   C     C_R   0.280000 0.411699 0.933992 -0.100463
C71   C     C_R   0.280000 0.933991 0.411699 -0.100463
C72   C     C_R   0.720000 0.066009 0.588301 -0.100463
C73   C     C_R   0.411699 0.280000 0.933992 -0.100462
C74   C     C_R   0.588301 0.720000 0.066008 -0.100462
C75   C     C_R   0.933991 0.411699 0.280000 -0.100462
C76   C     C_R   0.066009 0.588301 0.720000 -0.100462
C77   C     C_R   0.676569 0.072012 0.676568 -0.223150
C78   C     C_R   0.665257 0.047069 0.400483 -0.256378
C79   C     C_R   0.323431 0.927988 0.323431 -0.223149
C80   C     C_R   0.072013 0.676568 0.676568 -0.223152
C81   C     C_R   0.927987 0.323432 0.323432 -0.223152
C82   C     C_R   0.676569 0.676569 0.072011 -0.223152
C83   C     C_R   0.323431 0.323431 0.927989 -0.223152
C84   C     C_R   0.582078 0.053040 0.582077 -0.029142
C85   C     C_R   0.417922 0.946959 0.417923 -0.029142
C86   C     C_R   0.053041 0.582077 0.582077 -0.029142
C87   C     C_R   0.946959 0.417923 0.417923 -0.029142
C88   C     C_R   0.582077 0.582077 0.053039 -0.029142
C89   C     C_R   0.599517 0.334745 0.952928 -0.256376
C90   C     C_R   0.417922 0.417922 0.946961 -0.029142
Cl1   Cl    Cl    0.363467 0.148678 0.773588 -0.535684
Cl2   Cl    Cl    0.363467 0.773589 0.148677 -0.535686
Cl3   Cl    Cl    0.851325 0.636535 0.226409 -0.535684
Cl4   Cl    Cl    0.148675 0.363465 0.773590 -0.535684
Cl5   Cl    Cl    0.636533 0.851322 0.226412 -0.535685
Cl6   Cl    Cl    0.148678 0.773590 0.363467 -0.535687
Cl7   Cl    Cl    0.851322 0.226410 0.636533 -0.535687
Cl8   Cl    Cl    0.773589 0.363466 0.148676 -0.535685
Cl9   Cl    Cl    0.226411 0.636534 0.851324 -0.535685
Cl10  Cl    Cl    0.226410 0.851325 0.636535 -0.535685
Cl11  Cl    Cl    0.773590 0.148675 0.363465 -0.535685
Cl12  Cl    Cl    0.636533 0.226412 0.851324 -0.535686
H1    H     H_    0.327526 0.055203 0.693688 0.185662
H2    H     H_    0.327527 0.693691 0.055198 0.185661
H3    H     H_    0.944807 0.672474 0.306304 0.185660
H4    H     H_    0.055192 0.327526 0.693696 0.185659
H5    H     H_    0.715351 0.071784 0.715351 0.226143
H6    H     H_    0.284649 0.928216 0.284649 0.226143
H7    H     H_    0.071785 0.715351 0.715351 0.226143
H8    H     H_    0.928215 0.284649 0.284649 0.226143
H9    H     H_    0.715351 0.715351 0.071783 0.226143
H10   H     H_    0.284649 0.284649 0.928217 0.226143
H11   H     H_    0.672474 0.944797 0.306312 0.185662
H12   H     H_    0.055205 0.693689 0.327523 0.185661
H13   H     H_    0.944795 0.306310 0.672476 0.185661
H14   H     H_    0.693692 0.327527 0.055198 0.185662
H15   H     H_    0.306308 0.672473 0.944803 0.185662
H16   H     H_    0.306305 0.944808 0.672472 0.185661
H17   H     H_    0.693695 0.055191 0.327528 0.185661
H18   H     H_    0.672473 0.306309 0.944802 0.185661
O1    O     O_R   0.982940 0.138950 0.510160 -0.600632
O2    O     O_R   0.982940 0.510160 0.138950 -0.600632
O3    O     O_R   0.861050 0.017060 0.489840 -0.600632
O4    O     O_R   0.138950 0.982940 0.510160 -0.600632
O5    O     O_R   0.867700 0.025880 0.612340 -0.600214
O6    O     O_R   0.132300 0.974120 0.387660 -0.600214
O7    O     O_R   0.025880 0.612340 0.867700 -0.600214
O8    O     O_R   0.974120 0.387660 0.132300 -0.600215
O9    O     O_R   0.612340 0.867700 0.025880 -0.600214
O10   O     O_R   0.387660 0.132300 0.974120 -0.600215
O11   O     O_R   0.387660 0.974120 0.132300 -0.600215
O12   O     O_R   0.017060 0.861050 0.489840 -0.600631
O13   O     O_R   0.612340 0.025880 0.867700 -0.600214
O14   O     O_R   0.132300 0.387660 0.974120 -0.600214
O15   O     O_R   0.867700 0.612340 0.025880 -0.600214
O16   O     O_R   0.974120 0.132300 0.387660 -0.600214
O17   O     O_R   0.025880 0.867700 0.612340 -0.600214
O18   O     O_R   0.138950 0.510160 0.982940 -0.600632
O19   O     O_R   0.861050 0.489840 0.017060 -0.600632
O20   O     O_R   0.510160 0.982940 0.138950 -0.600632
O21   O     O_R   0.489840 0.017060 0.861050 -0.600632
O22   O     O_R   0.489840 0.861050 0.017060 -0.600633
O23   O     O_R   0.510160 0.138950 0.982940 -0.600632
O24   O     O_R   0.017060 0.489840 0.861050 -0.600633
Zn1   Zn    Zn3+2 0.004880 0.004880 0.583590 1.100653
Zn2   Zn    Zn3+2 0.995120 0.995120 0.416410 1.100653
Zn3   Zn    Zn3+2 0.004880 0.583590 0.004880 1.100653
Zn4   Zn    Zn3+2 0.995120 0.416410 0.995120 1.100653
Zn5   Zn    Zn3+2 0.583590 0.004880 0.004880 1.100653
Zn6   Zn    Zn3+2 0.416410 0.995120 0.995120 1.100653

loop_
_geom_bond_atom_site_label_1
_geom_bond_atom_site_label_2
_ccdc_geom_bond_type
C5    O16   A    
C15   C75   S    
C22   Cl8   S    
C15   O2    A    
C24   Cl9   S    
C64   C77   A    
C36   C42   A    
C16   C72   S    
C10   O13   A    
O24   Zn4   S    
C7    C70   S    
C71   C79   A    
O6    Zn2   S    
C4    C30   A    
C3    H3    S    
O9    Zn5   S    
C1    C18   A    
C43   C89   A    
C37   C90   A    
C8    O19   A    
C65   C79   A    
C68   C81   A    
O17   Zn1   S    
C52   C85   A    
C16   O3    A    
C27   C60   A    
C26   Cl11  S    
C54   C87   A    
C9    O20   A    
C17   O6    A    
C54   C68   A    
C63   C76   A    
C40   C49   A    
C5    O1    A    
C60   C73   A    
O4    Zn1   S    
C56   H15   S    
C32   C39   A    
C55   C88   A    
C3    C29   A    
C69   C82   A    
C25   Cl10  S    
C35   C87   A    
C19   C52   A    
O10   Zn6   S    
C4    C40   A    
C24   C57   A    
C31   C46   A    
C25   C67   A    
C80   H7    S    
C35   C49   A    
O23   Zn5   S    
C13   O10   A    
C20   C23   A    
C36   C48   A    
C53   C86   A    
C57   C70   A    
C37   C47   A    
C43   C48   A    
C1    H1    S    
C59   C72   A    
C28   C61   A    
C20   Cl6   S    
C30   C63   A    
C8    O15   A    
C74   C82   A    
C5    C68   S    
C35   C41   A    
C11   O9    A    
C11   O22   A    
O21   Zn6   S    
C9    O11   A    
C32   C44   A    
C14   O24   A    
O19   Zn4   S    
C33   C40   A    
C57   C90   A    
C77   H5    S    
O13   Zn5   S    
C59   C84   A    
C7    O14   A    
C6    O12   A    
C89   H18   S    
C75   C81   A    
C23   C50   A    
C21   C34   A    
C38   C78   A    
C33   C50   A    
C4    H4    S    
C36   C88   A    
C14   O7    A    
C10   O21   A    
C14   C76   S    
C37   C43   A    
C33   C86   A    
C38   C44   A    
C72   C77   A    
C70   C83   A    
C61   C88   A    
C21   Cl7   S    
C17   O4    A    
O3    Zn2   S    
C2    H2    S    
O18   Zn3   S    
C8    C69   S    
C28   Cl2   S    
C26   C78   A    
O2    Zn3   S    
C53   C66   A    
C55   C69   A    
C39   C46   A    
C16   O5    A    
C13   C73   S    
C17   C71   S    
O15   Zn3   S    
C15   O8    A    
C63   C86   A    
C61   C74   A    
O1    Zn1   S    
C62   C75   A    
C25   C58   A    
C18   Cl1   S    
C58   C85   A    
C41   C50   A    
C19   Cl5   S    
C12   H11   S    
C26   C59   A    
C45   C48   A    
C29   C62   A    
C3    C41   A    
C34   C49   A    
C39   C67   A    
O8    Zn4   S    
C51   C64   A    
C76   C80   A    
C20   C53   A    
C11   C74   S    
C7    O18   A    
C22   C55   A    
C60   C90   A    
C18   C51   A    
C24   C56   A    
C66   C80   A    
C62   C87   A    
C27   Cl12  S    
C10   C64   S    
C31   C38   A    
O12   Zn2   S    
C82   H9    S    
O22   Zn6   S    
C6    O17   A    
C78   H17   S    
C34   H13   S    
O14   Zn4   S    
C30   Cl4   S    
O5    Zn1   S    
C23   H12   S    
C29   Cl3   S    
C45   H14   S    
C21   C54   A    
C2    C42   A    
C32   C85   A    
O20   Zn5   S    
C12   C19   A    
C79   H6    S    
C27   C89   A    
C42   C47   A    
C13   O23   A    
C1    C46   A    
C67   H16   S    
C9    C65   S    
C58   C71   A    
C31   C84   A    
C6    C66   S    
C22   C45   A    
C81   H8    S    
C12   C44   A    
C83   H10   S    
O11   Zn6   S    
C2    C28   A    
C51   C84   A    
C73   C83   A    
O16   Zn2   S    
C52   C65   A    
O7    Zn3   S    
C47   C56   A    
