data_str_m3_o10_o29_f0_pcu.sym.182
_audit_creation_date              2013-03-05T15:42:40-0500
_audit_creation_method            fapswitch 2.2
_symmetry_space_group_name_H-M    P1
_symmetry_Int_Tables_number       1
_space_group_crystal_system       triclinic
_cell_length_a                    7.791147
_cell_length_b                    8.671417
_cell_length_c                    27.343412
_cell_angle_alpha                 90.693605
_cell_angle_beta                  87.237631
_cell_angle_gamma                 93.234831
_cell_volume                      1842.16048275

loop_
_atom_site_label
_atom_site_type_symbol
_atom_site_description
_atom_site_fract_x
_atom_site_fract_y
_atom_site_fract_z
_atom_type_partial_charge
O1    O     O_R   0.389250 0.738570 0.503220 -0.587098
O2    O     O_R   0.610750 0.261430 0.496780 -0.595585
O3    O     O_R   0.678390 0.711630 0.494810 -0.582811
O4    O     O_R   0.321610 0.288370 0.505190 -0.582757
C1    C     C_R   0.544659 0.793731 0.498479 0.873617
C2    C     C_R   0.455375 0.206365 0.501973 0.868536
O5    O     O_R   0.355440 0.513440 0.575450 -0.565698
O6    O     O_R   0.644560 0.486560 0.424550 -0.593744
O7    O     O_R   0.644590 0.486500 0.567040 -0.603383
O8    O     O_R   0.355410 0.513500 0.432960 -0.577902
C3    C     C_R   0.504123 0.498199 0.593976 0.931262
C4    C     C_R   0.497828 0.503762 0.405749 0.924842
Zn1   Zn    Zn3+2 0.306940 0.517990 0.505620 1.188783
Zn2   Zn    Zn3+2 0.693060 0.482010 0.494380 1.164679
C5    C     C_R   0.710340 0.530770 0.814933 0.589821
C6    C     C_R   0.611732 0.385764 0.180573 0.616641
O9    O     O_2   0.796711 0.634302 0.785060 -0.470705
O10   O     O_2   0.593583 0.261875 0.210202 -0.472259
N1    N     N_R   0.593995 0.424650 0.796309 -0.343589
N2    N     N_R   0.615292 0.532166 0.200040 -0.338301
C7    C     C_R   0.511460 0.312167 0.824658 0.626938
C8    C     C_R   0.659951 0.658287 0.171519 0.608235
C9    C     C_R   0.642228 0.346631 0.711753 -0.077107
C10   C     C_R   0.684883 0.617435 0.282431 -0.057726
C11   C     C_R   0.623497 0.368882 0.662393 -0.145632
C12   C     C_R   0.652822 0.609523 0.332547 -0.164205
C13   C     C_R   0.420243 0.568029 0.681072 0.187898
C14   C     C_R   0.380033 0.465603 0.321025 0.191398
C15   C     C_R   0.440858 0.546212 0.731460 0.261017
C16   C     C_R   0.406849 0.484503 0.269945 0.264708
C17   C     C_R   0.553981 0.435699 0.746193 0.133751
C18   C     C_R   0.565623 0.551341 0.250908 0.124876
C19   C     C_R   0.642745 0.427215 0.895693 -0.047461
C20   C     C_R   0.659934 0.492803 0.099757 -0.048258
C21   C     C_R   0.736680 0.534546 0.865104 -0.032892
C22   C     C_R   0.621687 0.364172 0.129956 -0.015524
C23   C     C_R   0.851101 0.644850 0.885452 -0.067475
C24   C     C_R   0.587724 0.218407 0.109005 -0.097569
C25   C     C_R   0.534267 0.311275 0.875145 -0.098898
C26   C     C_R   0.690586 0.639681 0.120832 -0.076958
C27   C     C_R   0.515048 0.479967 0.646647 -0.181439
C28   C     C_R   0.504950 0.528348 0.352495 -0.187056
H1    H     H_    0.932215 0.722839 0.862522 0.223629
H2    H     H_    0.562706 0.116817 0.131479 0.209834
C29   C     C_R   0.724067 0.598876 0.018054 -0.056600
C30   C     C_R   0.567570 0.325938 0.977552 -0.056243
C31   C     C_R   0.599628 0.332940 0.028055 0.094000
C32   C     C_R   0.745978 0.568118 0.967221 0.079476
C33   C     C_R   0.662923 0.474710 0.048500 0.054043
C34   C     C_R   0.653433 0.439254 0.946898 0.059645
C35   C     C_R   0.756225 0.747686 0.039741 0.292262
C36   C     C_R   0.452306 0.213072 0.956448 0.309173
C37   C     C_R   0.739146 0.765486 0.090696 -0.174406
C38   C     C_R   0.441515 0.204698 0.905588 -0.133209
O11   O     O_2   0.670098 0.800905 0.191822 -0.506928
O12   O     O_2   0.404176 0.204890 0.804199 -0.482334
C39   C     C_R   0.857321 0.660052 0.935983 -0.094721
C40   C     C_R   0.573321 0.203551 0.058753 -0.055031
H3    H     H_    0.749503 0.660370 0.355981 0.225497
H4    H     H_    0.694323 0.298697 0.636270 0.226849
H5    H     H_    0.806847 0.668584 0.268155 0.212717
H6    H     H_    0.729704 0.263062 0.723396 0.195721
H7    H     H_    0.757998 0.879998 0.106522 0.212143
H8    H     H_    0.351294 0.120039 0.890140 0.227715
H9    H     H_    0.949465 0.744829 0.950229 0.207350
H10   H     H_    0.543236 0.089382 0.044417 0.204030
C41   C     C_2   0.568755 0.955473 0.501500 0.000041
C42   C     C_2   0.430953 0.044628 0.500022 0.005038
N3    N     N_2   0.950320 0.457960 0.486880 0.038672
N4    N     N_2   0.049680 0.542040 0.513120 0.045948
N5    N     N_R   0.306318 0.680064 0.665221 0.257790
O13   O     O_R   0.148552 0.679644 0.683174 -0.237813
O14   O     O_R   0.361390 0.785923 0.634023 -0.325558
N6    N     N_R   0.236888 0.370191 0.339896 0.262547
O15   O     O_R   0.083540 0.387601 0.324613 -0.261573
O16   O     O_R   0.264954 0.248503 0.365080 -0.295756
N7    N     N_R   0.008333 0.441033 0.438826 0.314181
O17   O     O_R   0.033958 0.564168 0.412099 -0.342162
O18   O     O_R   0.969075 0.310356 0.417281 -0.235751
N8    N     N_R   0.984647 0.562631 0.560612 0.314639
O19   O     O_R   0.993282 0.452881 0.592267 -0.340332
O20   O     O_R   0.951118 0.700607 0.576023 -0.253868
N9    N     N_R   0.355910 0.641540 0.767436 0.236309
O21   O     O_R   0.357647 0.790408 0.761763 -0.265068
O22   O     O_R   0.282250 0.580953 0.806950 -0.370514
N10   N     N_R   0.280112 0.425895 0.236901 0.230213
O23   O     O_R   0.223989 0.281727 0.238571 -0.253454
O24   O     O_R   0.237275 0.511227 0.201115 -0.370241
N11   N     N_R   0.781854 0.885431 0.011048 0.171633
O25   O     O_R   0.678173 0.911195 0.976493 -0.391623
O26   O     O_R   0.890417 0.995792 0.024327 -0.326139
N12   N     N_R   0.326033 0.123156 0.985607 0.203076
O27   O     O_R   0.232574 0.190551 0.019395 -0.332920
O28   O     O_R   0.283517 0.981393 0.972967 -0.333490
N13   N     N_R   0.740743 0.015334 0.509721 0.244871
O29   O     O_R   0.856541 0.017714 0.473844 -0.241483
O30   O     O_R   0.783388 0.057815 0.553506 -0.305378
N14   N     N_R   0.258524 0.984767 0.492457 0.243627
O31   O     O_R   0.145532 0.978691 0.529055 -0.228997
O32   O     O_R   0.212379 0.947019 0.448602 -0.276048

loop_
_geom_bond_atom_site_label_1
_geom_bond_atom_site_label_2
_geom_bond_distance
_ccdc_geom_bond_type
C10   H5    1.083020 S    
C13   C15   1.410996 A    
N3    N7    1.377641 S    
N13   O29   1.299941 A    
C1    C41   1.406461 S    
N1    C17   1.425457 S    
C32   C39   1.408785 A    
C31   C33   1.417216 A    
N7    O17   1.301850 A    
C5    N1    1.366304 A    
C19   C25   1.406030 A    
N6    O16   1.301389 A    
O1    C1    1.277767 A    
N1    C7    1.365729 A    
C10   C12   1.382877 A    
C15   N9    1.438174 S    
N10   O24   1.301241 A    
C25   C38   1.398032 A    
Zn1   N4    2.027187 S    
C29   C35   1.427869 A    
C30   C36   1.426329 A    
C14   C28   1.411847 A    
O4    Zn1   2.000698 S    
C4    C28   1.472173 S    
C24   C40   1.387846 A    
C40   H10   1.077956 S    
C9    H6    1.083150 S    
C11   H4    1.083748 S    
C16   N10   1.438042 S    
C12   H3    1.083776 S    
C6    N2    1.369977 A    
C2    C42   1.405377 S    
C14   N6    1.430146 S    
C41   N13   1.436401 S    
O2    C2    1.278060 A    
C6    C22   1.393451 A    
C5    C21   1.396595 A    
C36   C38   1.398043 A    
N7    O18   1.298737 A    
N6    O15   1.301882 A    
N4    N8    1.384241 S    
C41   C42   1.360374 D    
N8    O20   1.299906 A    
C11   C27   1.401487 A    
N5    O14   1.301405 A    
N10   O23   1.301503 A    
C19   C34   1.408856 A    
C35   C37   1.400727 A    
C9    C17   1.391385 A    
C23   H1    1.083370 S    
O5    C3    1.300554 A    
O7    Zn2   2.004706 S    
C10   C18   1.392806 A    
C24   H2    1.083442 S    
C13   C27   1.412082 A    
N9    O21   1.301276 A    
C7    C25   1.400524 A    
C29   C33   1.415917 A    
O6    C4    1.292751 A    
C8    C26   1.403880 A    
N12   O28   1.301953 A    
O7    C3    1.297492 A    
O3    Zn2   2.000698 S    
O8    C4    1.312029 A    
O4    C2    1.293378 A    
N9    O22   1.301033 A    
N2    C8    1.369999 A    
N14   O31   1.300115 A    
N14   O32   1.301193 A    
Zn2   N3    2.027187 S    
C20   C26   1.404434 A    
C36   N12   1.436792 S    
N11   O26   1.301129 A    
C22   C24   1.398294 A    
C13   N5    1.436699 S    
C12   C28   1.406230 A    
N2    C18   1.435881 S    
C29   C32   1.416170 A    
C5    O9    1.350045 S    
C30   C31   1.415100 A    
C20   C33   1.407656 A    
O6    Zn2   1.965494 S    
C21   C23   1.399233 A    
C39   H9    1.080746 S    
N8    O19   1.300849 A    
O3    C1    1.293988 A    
O8    Zn1   2.004706 S    
C7    O12   1.349697 S    
N13   O30   1.301257 A    
C8    O11   1.349249 S    
C30   C34   1.416802 A    
C14   C16   1.412382 A    
N5    O13   1.301250 A    
C15   C17   1.412913 A    
C35   N11   1.436241 S    
C31   C40   1.409159 A    
C16   C18   1.414729 A    
C37   H7    1.083554 S    
C38   H8    1.083650 S    
C32   C34   1.417755 A    
N12   O27   1.302090 A    
C19   C21   1.408678 A    
C3    C27   1.457838 S    
C20   C22   1.405644 A    
C9    C11   1.381514 A    
N3    N4    1.273898 D    
O2    Zn2   1.983605 S    
C42   N14   1.436134 S    
O5    Zn1   1.965493 S    
O1    Zn1   1.983605 S    
C6    O10   1.350307 S    
C26   C37   1.399062 A    
N11   O25   1.301629 A    
C23   C39   1.389281 A    
