data_str_m2_o10_o29_f0_pcu.sym.143
_audit_creation_date              2012-12-10T16:51:13-0500
_audit_creation_method            fapswitch 2.2
_symmetry_space_group_name_H-M    P1
_symmetry_Int_Tables_number       1
_space_group_crystal_system       triclinic
_cell_length_a                    27.778197
_cell_length_b                    8.67224
_cell_length_c                    7.433134
_cell_angle_alpha                 102.9715
_cell_angle_beta                  93.964158
_cell_angle_gamma                 92.401918
_cell_volume                      1737.72756977

loop_
_atom_site_label
_atom_site_type_symbol
_atom_type_description
_atom_site_fract_x
_atom_site_fract_y
_atom_site_fract_z
_atom_type_partial_charge
C1    C     C_R   0.498543 0.199658 0.453207 0.892472
C2    C     C_R   0.501457 0.800342 0.546793 0.892472
C3    C     C_R   0.102257 0.498585 0.515798 -0.043161
C4    C     C_R   0.897741 0.501489 0.484175 -0.043158
C5    C     C_R   0.125204 0.354276 0.479198 -0.020728
C6    C     C_R   0.874793 0.645796 0.520783 -0.020743
C7    C     C_R   0.097322 0.211427 0.437470 -0.151792
C8    C     C_R   0.902675 0.788645 0.562525 -0.151789
C9    C     C_R   0.130784 0.642183 0.559185 -0.021413
C10   C     C_R   0.869215 0.357890 0.440783 -0.021427
C11   C     C_R   0.354641 0.498853 0.509230 -0.036432
C12   C     C_R   0.645359 0.501155 0.490768 -0.036427
C13   C     C_R   0.971505 0.353733 0.455011 0.043939
C14   C     C_R   0.028493 0.646342 0.544957 0.043940
C15   C     C_R   0.977192 0.647082 0.536068 0.045152
C16   C     C_R   0.022806 0.352993 0.463908 0.045155
C17   C     C_R   0.949046 0.500768 0.491653 0.068575
C18   C     C_R   0.050952 0.499308 0.508319 0.068571
C19   C     C_R   0.941535 0.211921 0.410057 -0.215932
C20   C     C_R   0.058464 0.788155 0.589898 -0.215930
C21   C     C_R   0.891543 0.214372 0.403456 -0.143729
C22   C     C_R   0.108456 0.785703 0.596501 -0.143730
C23   C     C_R   0.407493 0.499648 0.502834 0.798820
C24   C     C_R   0.592507 0.500351 0.497166 0.798833
C25   C     C_R   0.047259 0.210382 0.430116 -0.214142
C26   C     C_R   0.952739 0.789692 0.569876 -0.214142
C27   C     C_2   0.497843 0.031741 0.426807 -0.362818
C28   C     C_2   0.502157 0.968259 0.573193 -0.362816
C29   C     C_R   0.175826 0.356282 0.484054 0.535482
C30   C     C_R   0.824171 0.643786 0.515930 0.535511
C31   C     C_R   0.181300 0.638860 0.562851 0.539208
C32   C     C_R   0.818699 0.361212 0.437121 0.539219
C33   C     C_R   0.283667 0.519493 0.684677 -0.098344
C34   C     C_R   0.716340 0.481066 0.315356 -0.098334
C35   C     C_R   0.333777 0.520226 0.679591 -0.212840
C36   C     C_R   0.666230 0.480297 0.320450 -0.212770
C37   C     C_R   0.324495 0.476253 0.344386 -0.204605
C38   C     C_R   0.675498 0.523267 0.655558 -0.204551
C39   C     C_R   0.274473 0.475027 0.349917 -0.102201
C40   C     C_R   0.725520 0.524511 0.650019 -0.102217
C41   C     C_R   0.253995 0.496791 0.519840 0.363725
C42   C     C_R   0.746005 0.503268 0.480140 0.363826
Cu1   Cu    Cu3+1 0.505380 0.517380 0.684380 0.956545
Cu2   Cu    Cu3+1 0.494620 0.482620 0.315620 0.956548
H1    H     H_    0.339480 0.459391 0.211114 0.158343
H2    H     H_    0.660508 0.539714 0.788794 0.158298
H3    H     H_    0.462193 0.378196 0.948560 0.225791
H4    H     H_    0.537807 0.621803 0.051440 0.225780
H5    H     H_    0.114112 0.098859 0.409420 0.186532
H6    H     H_    0.885885 0.901211 0.590588 0.186534
H7    H     H_    0.643921 0.463105 0.191347 0.158655
H8    H     H_    0.356094 0.537812 0.808736 0.158728
H9    H     H_    0.732151 0.464555 0.183692 0.134579
H10   H     H_    0.267863 0.536412 0.816376 0.134703
H11   H     H_    0.870390 0.102346 0.368986 0.193174
H12   H     H_    0.129609 0.897730 0.630962 0.193173
H13   H     H_    0.955247 0.095633 0.378485 0.138542
H14   H     H_    0.044752 0.904445 0.621456 0.138535
H15   H     H_    0.029026 0.094518 0.397016 0.135514
H16   H     H_    0.970971 0.905556 0.602993 0.135520
H17   H     H_    0.493777 0.960046 0.285777 0.179853
H18   H     H_    0.506223 0.039954 0.714223 0.179856
N1    N     N_R   0.202605 0.497274 0.524353 -0.473930
N2    N     N_R   0.797394 0.502794 0.475623 -0.473948
N3    N     N_2   0.486510 0.456430 0.038510 -0.218484
N4    N     N_2   0.513490 0.543570 0.961490 -0.218489
O1    O     O_R   0.503500 0.286120 0.619780 -0.583112
O2    O     O_R   0.496500 0.713880 0.380220 -0.583113
O3    O     O_R   0.494410 0.256780 0.308360 -0.583332
O4    O     O_R   0.505590 0.743220 0.691640 -0.583332
O5    O     O_R   0.434810 0.514700 0.655690 -0.591939
O6    O     O_R   0.565190 0.485300 0.344310 -0.591930
O7    O     O_R   0.425720 0.485350 0.344280 -0.584418
O8    O     O_R   0.574280 0.514650 0.655720 -0.584421
O9    O     O_2   0.198158 0.218674 0.448342 -0.515371
O10   O     O_2   0.801837 0.781390 0.551663 -0.515341
O11   O     O_2   0.791068 0.224239 0.397303 -0.512356
O12   O     O_2   0.208931 0.775834 0.602655 -0.512388
H19   H     H_    0.251546 0.457825 0.222266 0.136035
H20   H     H_    0.748442 0.541326 0.777627 0.135938

loop_
_geom_bond_atom_site_label_1
_geom_bond_atom_site_label_2
_ccdc_geom_bond_type
C29   N1    A    
C30   N2    A    
C8    C26   A    
C14   C18   A    
C34   C42   A    
C39   C41   A    
C19   H13   S    
C19   C21   A    
C2    O2    A    
C9    C22   A    
C33   H10   S    
C3    C18   A    
C11   C37   A    
C27   H17   S    
C1    O1    A    
C32   O11   S    
C40   H20   S    
C12   C36   A    
Cu1   O8    S    
C40   C42   A    
Cu2   N3    S    
C23   O7    A    
C5    C29   A    
C10   C21   A    
C13   C19   A    
C14   C20   A    
C7    H5    S    
C4    C6    A    
C21   H11   S    
C15   C26   A    
C6    C8    A    
C1    O3    A    
C39   H19   S    
Cu1   Cu2   S    
C3    C9    A    
C23   O5    A    
C30   O10   S    
Cu2   O3    S    
C32   N2    A    
C36   H7    S    
C4    C17   A    
C16   C18   A    
C6    C30   A    
C20   C22   A    
Cu1   O4    S    
Cu2   O2    S    
C41   N1    S    
C20   H14   S    
C42   N2    S    
C35   H8    S    
C24   O6    A    
C31   O12   S    
C5    C7    A    
C16   C25   A    
C15   C17   A    
Cu1   O5    S    
C4    C10   A    
C3    C5    A    
C22   H12   S    
C29   O9    S    
C31   N1    A    
C12   C24   S    
C7    C25   A    
C13   C17   A    
C33   C41   A    
C11   C35   A    
C37   C39   A    
C38   C40   A    
C24   O8    A    
C26   H16   S    
Cu1   N4    S    
C11   C23   S    
C33   C35   A    
Cu2   O6    S    
C8    H6    S    
C34   C36   A    
C12   C38   A    
Cu2   O7    S    
C38   H2    S    
C9    C31   A    
C10   C32   A    
C34   H9    S    
Cu1   O1    S    
N3    N4    D    
C13   C16   A    
C27   C28   D    
C1    C27   S    
C14   C15   A    
C2    C28   S    
C25   H15   S    
H4    N4    S    
C2    O4    A    
C37   H1    S    
H3    N3    S    
C28   H18   S    
