data_str_m3_o10_o14_f0_pcu.sym.107
_audit_creation_date              2012-12-10T16:50:01-0500
_audit_creation_method            fapswitch 2.2
_symmetry_space_group_name_H-M    P1
_symmetry_Int_Tables_number       1
_space_group_crystal_system       triclinic
_cell_length_a                    7.815873
_cell_length_b                    8.598664
_cell_length_c                    10.542423
_cell_angle_alpha                 91.289695
_cell_angle_beta                  84.574521
_cell_angle_gamma                 93.626888
_cell_volume                      703.830557574

loop_
_atom_site_label
_atom_site_type_symbol
_atom_type_description
_atom_site_fract_x
_atom_site_fract_y
_atom_site_fract_z
_atom_type_partial_charge
C1    C     C_R   0.544861 0.794294 0.492610 0.976062
C2    C     C_R   0.454216 0.205881 0.498091 0.906592
C3    C     C_R   0.500399 0.505428 0.258735 0.864563
C4    C     C_R   0.155953 0.453386 0.908158 0.056743
C5    C     C_R   0.028573 0.543867 0.967960 -0.210378
C6    C     C_R   0.065062 0.638893 0.072245 -0.148831
C7    C     C_R   0.223189 0.632270 0.123253 -0.154144
C8    C     C_R   0.349199 0.534941 0.065677 0.063192
C9    C     C_1   0.112746 0.330947 0.818216 0.144355
C10   C     C_R   0.324323 0.469831 0.946621 0.044137
C11   C     C_R   0.470847 0.423848 0.870253 -0.137381
C12   C     C_R   0.603342 0.362582 0.928312 0.064894
C13   C     C_R   0.614534 0.396324 0.056788 -0.247236
C14   C     C_R   0.494924 0.491412 0.123331 -0.141221
C15   C     C_2   0.565570 0.957900 0.489814 -0.391529
C16   C     C_2   0.428841 0.043511 0.481094 -0.069130
C17   C     C_R   0.492503 0.468959 0.736968 0.891003
H1    H     H_    0.986429 0.618253 0.595586 0.195357
H2    H     H_    0.233514 0.032987 0.366382 0.169423
H3    H     H_    0.170367 0.007088 0.523045 0.210982
H4    H     H_    0.902865 0.542175 0.933375 0.156259
H5    H     H_    0.968121 0.711937 0.117187 0.151830
H6    H     H_    0.245413 0.703746 0.206531 0.163448
H7    H     H_    0.714320 0.346408 0.104769 0.172217
H8    H     H_    0.693025 0.008873 0.505303 0.160422
H9    H     H_    0.013608 0.381600 0.404562 0.192044
H10   H     H_    0.782253 0.306206 0.787664 0.222337
H11   H     H_    0.791270 0.206533 0.922155 0.187243
N1    N     N_2   0.950330 0.457950 0.466250 -0.174533
N2    N     N_2   0.049670 0.542050 0.533750 -0.170982
N3    N     N_3   0.707666 0.250147 0.861801 -0.450561
N4    N     N_1   0.083497 0.231573 0.746053 -0.217321
N5    N     N_3   0.262960 0.979622 0.449124 -0.416588
O1    O     O_R   0.389250 0.738570 0.508280 -0.575746
O2    O     O_R   0.678390 0.711630 0.486650 -0.631292
O3    O     O_R   0.355400 0.513470 0.694050 -0.612015
O4    O     O_R   0.644540 0.486530 0.672420 -0.629330
O5    O     O_R   0.321610 0.288370 0.513350 -0.625112
O6    O     O_R   0.610750 0.261430 0.491720 -0.629061
O7    O     O_R   0.355460 0.513470 0.327580 -0.630610
O8    O     O_R   0.644600 0.486530 0.305950 -0.619632
Zn1   Zn    Zn3+2 0.306930 0.517990 0.514440 0.955138
Zn2   Zn    Zn3+2 0.693070 0.482010 0.485560 0.934392

loop_
_geom_bond_atom_site_label_1
_geom_bond_atom_site_label_2
_ccdc_geom_bond_type
O4    Zn2   S    
C8    C14   A    
C11   C12   A    
C6    C7    A    
C1    C15   S    
C17   O3    A    
C16   N5    S    
C2    C16   S    
C2    O5    A    
O3    Zn1   S    
O1    Zn1   S    
O7    Zn1   S    
C4    C9    S    
C5    H4    S    
C7    C8    A    
C17   O4    A    
C13   C14   A    
N1    Zn2   S    
O8    Zn2   S    
N1    N2    D    
C3    C14   S    
C7    H6    S    
H3    N5    S    
C1    O1    A    
O5    Zn1   S    
C12   N3    S    
C5    C6    A    
C15   H8    S    
C10   C11   A    
H1    N2    S    
C4    C10   A    
C15   C16   D    
C6    H5    S    
O2    Zn2   S    
C12   C13   A    
C1    O2    A    
H9    N1    S    
C8    C10   A    
H2    N5    S    
N2    Zn1   S    
O6    Zn2   S    
C9    N4    T    
C3    O7    A    
H10   N3    S    
C2    O6    A    
H11   N3    S    
C3    O8    A    
C13   H7    S    
C4    C5    A    
C11   C17   S    
