data_str_m9_o2_o19_f0_sra.sym.45
_audit_creation_date              2012-12-11T16:28:27-0500
_audit_creation_method            fapswitch 2.2
_symmetry_space_group_name_H-M    P1
_symmetry_Int_Tables_number       1
_space_group_crystal_system       triclinic
_cell_length_a                    16.657988
_cell_length_b                    7.255592
_cell_length_c                    15.11208
_cell_angle_alpha                 90.000143
_cell_angle_beta                  94.703846
_cell_angle_gamma                 89.999932
_cell_volume                      1820.34799271

loop_
_atom_site_label
_atom_site_type_symbol
_atom_type_description
_atom_site_fract_x
_atom_site_fract_y
_atom_site_fract_z
_atom_type_partial_charge
O1    O     O_R   0.663460 0.361760 0.165970 -0.532355
O2    O     O_R   0.336540 0.638240 0.834030 -0.532354
O3    O     O_R   0.836540 0.861760 0.334030 -0.532355
O4    O     O_R   0.163460 0.138240 0.665970 -0.532354
O5    O     O_R   0.827100 0.689870 0.163730 -0.531556
O6    O     O_R   0.172900 0.310130 0.836270 -0.531556
O7    O     O_R   0.672900 0.189870 0.336270 -0.531556
O8    O     O_R   0.327100 0.810130 0.663730 -0.531556
H1    H     H_    0.205336 0.123011 0.504771 0.113821
H2    H     H_    0.794665 0.876981 0.495229 0.113823
H3    H     H_    0.294664 0.623015 0.995229 0.113822
H4    H     H_    0.705335 0.376980 0.004771 0.113823
C1    C     C_R   0.853179 0.522962 0.143458 0.706600
C2    C     C_R   0.146821 0.477038 0.856542 0.706599
C3    C     C_R   0.646821 0.022962 0.356542 0.706601
C4    C     C_R   0.353179 0.977037 0.643458 0.706599
O9    O     O_R   0.663490 0.691370 0.155500 -0.535862
O10   O     O_R   0.336510 0.308630 0.844500 -0.535862
O11   O     O_R   0.836510 0.191370 0.344500 -0.535862
O12   O     O_R   0.163490 0.808630 0.655500 -0.535862
O13   O     O_R   0.671770 0.863320 0.325740 -0.536485
O14   O     O_R   0.328230 0.136680 0.674260 -0.536485
O15   O     O_R   0.828230 0.363320 0.174260 -0.536485
O16   O     O_R   0.171770 0.636680 0.825740 -0.536485
C5    C     C_R   0.636465 0.522834 0.133354 0.682388
C6    C     C_R   0.363535 0.477166 0.866646 0.682388
C7    C     C_R   0.863535 0.022834 0.366646 0.682388
C8    C     C_R   0.136465 0.977166 0.633353 0.682388
O17   O     O_3   0.752910 0.528800 0.305860 -0.373398
O18   O     O_3   0.247090 0.471200 0.694140 -0.373398
O19   O     O_3   0.747090 0.028800 0.194140 -0.373398
O20   O     O_3   0.252910 0.971200 0.805860 -0.373398
V1    V     V_3+5 0.749460 0.803010 0.239640 1.419585
V2    V     V_3+5 0.250540 0.196990 0.760360 1.419586
V3    V     V_3+5 0.750540 0.303010 0.260360 1.419585
V4    V     V_3+5 0.249460 0.696990 0.739640 1.419585
C9    C     C_1   0.468726 0.994707 0.529978 -0.001773
C10   C     C_1   0.531273 0.005293 0.470022 -0.001774
C11   C     C_1   0.031273 0.494707 0.970022 -0.001772
C12   C     C_1   0.968727 0.505293 0.029978 -0.001774
H5    H     H_    0.778800 0.738319 0.636528 0.128765
H6    H     H_    0.221202 0.261664 0.363470 0.128766
H7    H     H_    0.721200 0.238319 0.863471 0.128765
H8    H     H_    0.278797 0.761667 0.136529 0.128766
C13   C     C_R   0.021369 0.159814 0.332415 -0.205623
C14   C     C_R   0.978631 0.840183 0.667585 -0.205624
C15   C     C_R   0.478630 0.659811 0.167586 -0.205621
C16   C     C_R   0.521369 0.340184 0.832414 -0.205623
C17   C     C_R   0.096400 0.227924 0.312261 0.182713
C18   C     C_R   0.903601 0.772065 0.687738 0.182700
C19   C     C_R   0.403600 0.727922 0.187740 0.182713
C20   C     C_R   0.596399 0.272066 0.812261 0.182704
C21   C     C_R   0.161921 0.213087 0.376316 -0.114571
C22   C     C_R   0.838081 0.786900 0.623683 -0.114568
C23   C     C_R   0.338079 0.713089 0.123684 -0.114571
C24   C     C_R   0.661919 0.286900 0.876317 -0.114571
C25   C     C_R   0.152287 0.133381 0.458720 -0.185654
C26   C     C_R   0.847714 0.866611 0.541280 -0.185655
C27   C     C_R   0.347713 0.633384 0.041280 -0.185655
C28   C     C_R   0.652286 0.366611 0.958720 -0.185655
C29   C     C_R   0.076489 0.067893 0.480685 0.069743
C30   C     C_R   0.923512 0.932104 0.519315 0.069743
C31   C     C_R   0.423511 0.567894 0.019315 0.069743
C32   C     C_R   0.576488 0.432104 0.980685 0.069743
C33   C     C_R   0.009630 0.081119 0.416105 0.048368
C34   C     C_R   0.990370 0.918880 0.583894 0.048371
C35   C     C_R   0.490369 0.581118 0.083895 0.048368
C36   C     C_R   0.509630 0.418881 0.916105 0.048370
C37   C     C_R   0.067011 0.986879 0.564751 -0.157551
C38   C     C_R   0.932989 0.013121 0.435249 -0.157552
C39   C     C_R   0.432989 0.486879 0.935249 -0.157551
C40   C     C_R   0.567010 0.513120 0.064751 -0.157551
C41   C     C_1   0.415825 0.986098 0.581242 -0.208211
C42   C     C_1   0.584174 0.013902 0.418758 -0.208210
C43   C     C_1   0.084175 0.486098 0.918758 -0.208211
C44   C     C_1   0.915825 0.513902 0.081242 -0.208209
H9    H     H_    0.972245 0.169362 0.281153 0.115057
H10   H     H_    0.027756 0.830637 0.718847 0.115057
H11   H     H_    0.527754 0.669356 0.218849 0.115056
H12   H     H_    0.472245 0.330640 0.781152 0.115057
C45   C     C_3   0.102146 0.314262 0.221466 -0.355714
C46   C     C_3   0.184230 0.394464 0.204088 -0.764181
H13   H     H_    0.202156 0.502347 0.253823 0.223521
H14   H     H_    0.230593 0.284577 0.205982 0.223292
H15   H     H_    0.180488 0.458436 0.137105 0.222473
H16   H     H_    0.085595 0.208927 0.169742 0.183214
H17   H     H_    0.057176 0.427414 0.213298 0.183392
C47   C     C_3   0.897855 0.685722 0.778532 -0.355691
C48   C     C_3   0.815776 0.605485 0.795905 -0.764164
H18   H     H_    0.769404 0.715353 0.794010 0.223287
H19   H     H_    0.797858 0.497598 0.746169 0.223517
H20   H     H_    0.819518 0.541505 0.862887 0.222465
H21   H     H_    0.942835 0.572589 0.786702 0.183387
H22   H     H_    0.914398 0.791065 0.830255 0.183207
C49   C     C_3   0.397852 0.814254 0.278537 -0.355715
C50   C     C_3   0.315770 0.894462 0.295914 -0.764182
H23   H     H_    0.297846 0.002351 0.246181 0.223522
H24   H     H_    0.269405 0.784578 0.294015 0.223292
H25   H     H_    0.319511 0.958426 0.362899 0.222473
H26   H     H_    0.414401 0.708914 0.330258 0.183214
H27   H     H_    0.442825 0.927402 0.286708 0.183392
C51   C     C_3   0.602146 0.185725 0.721466 -0.355699
C52   C     C_3   0.684224 0.105487 0.704093 -0.764173
H28   H     H_    0.730596 0.215354 0.705988 0.223289
H29   H     H_    0.702141 0.997600 0.753829 0.223520
H30   H     H_    0.680481 0.041508 0.637111 0.222467
H31   H     H_    0.557166 0.072592 0.713295 0.183389
H32   H     H_    0.585604 0.291069 0.669743 0.183209

loop_
_geom_bond_atom_site_label_1
_geom_bond_atom_site_label_2
_ccdc_geom_bond_type
C26   C30   A    
C23   C27   A    
C49   C50   S    
O10   C6    A    
C15   H11   S    
O6    V2    S    
C45   C46   S    
C20   C51   S    
O16   V4    S    
C32   C36   A    
H2    C26   S    
C14   C34   A    
C16   C20   A    
H6    C21   S    
C10   C42   T    
C34   C37   A    
O13   V1    S    
O3    V1    S    
C2    O16   A    
C33   C38   A    
C50   H25   S    
O2    V4    S    
C30   C38   A    
C35   C40   A    
O8    V4    S    
C17   C45   S    
C8    C37   S    
C50   H24   S    
C49   H27   S    
O19   V1    S    
C51   H32   S    
C11   C43   T    
C48   H19   S    
O11   C7    A    
O5    C1    A    
C45   H16   S    
C18   C47   S    
O7    C3    A    
O8    C4    A    
O1    C5    A    
C6    C39   S    
O9    V1    S    
H3    C27   S    
C15   C35   A    
O4    C8    A    
C1    O15   A    
C14   C18   A    
O4    V2    S    
O14   V2    S    
C31   C35   A    
C30   C34   A    
C4    C41   S    
C52   H29   S    
C11   C12   S    
C14   H10   S    
C21   C25   A    
C49   H26   S    
C15   C19   A    
O12   C8    A    
C19   C23   A    
C12   C44   T    
O5    V1    S    
O20   V2    S    
C9    C10   S    
O6    C2    A    
C1    C44   S    
C13   C17   A    
C50   H23   S    
C51   H31   S    
O2    C6    A    
C5    C40   S    
C18   C22   A    
C16   C36   A    
C48   H20   S    
O10   V2    S    
C45   H17   S    
C7    C38   S    
H4    C28   S    
C31   C39   A    
C46   H14   S    
C13   C33   A    
O1    V3    S    
C22   C26   A    
C29   C37   A    
C9    C41   T    
C47   H21   S    
C4    O14   A    
O7    V3    S    
C25   C29   A    
C46   H15   S    
O17   V3    S    
C27   C31   A    
O18   V4    S    
C28   C32   A    
O9    C5    A    
C2    C43   S    
C16   H12   S    
O3    C7    A    
O11   V3    S    
H8    C23   S    
C36   C39   A    
C17   C21   A    
C52   H30   S    
H1    C25   S    
C32   C40   A    
C51   C52   S    
O15   V3    S    
H5    C22   S    
O12   V4    S    
C29   C33   A    
H7    C24   S    
C3    O13   A    
C3    C42   S    
C24   C28   A    
C47   C48   S    
C46   H13   S    
C52   H28   S    
C47   H22   S    
C13   H9    S    
C48   H18   S    
C20   C24   A    
C19   C49   S    
