data_str_m9_o11_o16_f0_sra.sym.76
_audit_creation_date              2012-12-11T14:17:48-0500
_audit_creation_method            fapswitch 2.2
_symmetry_space_group_name_H-M    P1
_symmetry_Int_Tables_number       1
_space_group_crystal_system       triclinic
_cell_length_a                    6.945656
_cell_length_b                    13.665471
_cell_length_c                    20.423341
_cell_angle_alpha                 102.007203
_cell_angle_beta                  90.426526
_cell_angle_gamma                 90.63662
_cell_volume                      1895.87209716

loop_
_atom_site_label
_atom_site_type_symbol
_atom_type_description
_atom_site_fract_x
_atom_site_fract_y
_atom_site_fract_z
_atom_type_partial_charge
O1    O     O_R   0.506860 0.599390 0.449240 -0.546408
O2    O     O_R   0.180220 0.594600 0.586780 -0.544592
O3    O     O_R   0.004500 0.400610 0.550760 -0.533134
C1    C     C_R   0.349855 0.615707 0.613467 0.765245
O4    O     O_R   0.177490 0.611290 0.451970 -0.548678
O5    O     O_R   0.001750 0.417420 0.414990 -0.550845
C2    C     C_R   0.346423 0.638115 0.435316 0.675168
O6    O     O_R   0.509610 0.582580 0.585010 -0.536559
O7    O     O_3   0.337420 0.436370 0.488020 -0.363974
V1    V     V_3+5 0.064680 0.511800 0.502220 1.491478
O8    O     O_R   0.671710 0.405400 0.413220 -0.521909
C3    C     C_R   0.839223 0.381923 0.387382 0.740342
O9    O     O_R   0.674440 0.388710 0.548030 -0.533014
C4    C     C_R   0.842978 0.361842 0.564624 0.829740
V2    V     V_3+5 0.564010 0.488200 0.497780 1.533995
O10   O     O_3   0.841140 0.563630 0.511980 -0.382515
C5    C     C_R   0.809182 0.112131 0.615620 -0.195490
H1    H     H_    0.818520 0.988182 0.698973 0.137944
H2    H     H_    0.790019 0.033498 0.592839 0.151360
C6    C     C_R   0.849295 0.284383 0.605007 -0.187125
C7    C     C_R   0.854741 0.319210 0.931330 -0.084726
C8    C     C_R   0.835379 0.395208 0.893973 -0.033595
C9    C     C_R   0.818360 0.367884 0.824141 -0.164061
C10   C     C_R   0.846674 0.269066 0.788661 0.078113
C11   C     C_R   0.855491 0.192637 0.826128 0.058287
C12   C     C_R   0.853551 0.242953 0.716788 0.045739
C13   C     C_R   0.830077 0.140727 0.685160 0.108752
C14   C     C_R   0.830606 0.066634 0.723020 -0.170777
C15   C     C_R   0.850453 0.091824 0.792046 -0.171504
C16   C     C_R   0.884211 0.313321 0.674868 -0.088106
C17   C     C_R   0.812766 0.182779 0.575037 -0.049540
C18   C     C_R   0.861825 0.217969 0.897033 -0.162926
H3    H     H_    0.777818 0.425296 0.798016 0.175333
H4    H     H_    0.854350 0.031061 0.818537 0.150493
C19   C     C_2   0.993275 0.292333 0.283274 -0.165167
C20   C     C_2   0.840924 0.303444 0.325108 0.153593
H5    H     H_    0.118963 0.340495 0.296855 0.130511
C21   C     C_2   0.007815 0.215460 0.220020 -0.077744
C22   C     C_2   0.859710 0.190484 0.176733 -0.274576
H6    H     H_    0.148690 0.183954 0.206912 0.154545
H7    H     H_    0.722425 0.227148 0.187284 0.183968
C23   C     C_2   0.198754 0.784317 0.782066 0.278232
C24   C     C_2   0.358498 0.821144 0.817732 -0.328803
H8    H     H_    0.498190 0.807015 0.794776 0.155149
C25   C     C_2   0.205663 0.725332 0.712003 -0.177131
C26   C     C_2   0.362528 0.680462 0.681243 -0.316554
H9    H     H_    0.068898 0.715383 0.685181 0.169402
H10   H     H_    0.501590 0.687362 0.706288 0.167383
C27   C     C_R   0.353326 0.888522 0.386736 -0.134526
H11   H     H_    0.344638 0.838896 0.479702 0.115533
H12   H     H_    0.362476 0.013054 0.303174 0.174774
H13   H     H_    0.349778 0.966733 0.411484 0.150924
C28   C     C_R   0.354941 0.714900 0.395030 -0.040226
C29   C     C_R   0.341815 0.681910 0.070032 -0.093832
C30   C     C_R   0.338542 0.606673 0.107624 0.344465
C31   C     C_R   0.347066 0.631147 0.177249 -0.213382
C32   C     C_R   0.356607 0.731440 0.212684 0.033479
C33   C     C_R   0.359610 0.808338 0.175134 0.050097
C34   C     C_R   0.359181 0.757791 0.284287 0.100659
C35   C     C_R   0.358647 0.860505 0.316597 0.112129
C36   C     C_R   0.362129 0.934609 0.278811 -0.168187
C37   C     C_R   0.364359 0.909229 0.209377 -0.153026
C38   C     C_R   0.360178 0.685877 0.325238 -0.207477
C39   C     C_R   0.350405 0.816093 0.425681 -0.153853
C40   C     C_R   0.355192 0.783141 0.104003 -0.194126
H14   H     H_    0.363885 0.606621 0.304891 0.100150
H15   H     H_    0.340777 0.569096 0.202088 0.146372
H16   H     H_    0.366744 0.969990 0.182796 0.120171
O11   O     O_R   0.203230 0.917310 0.915020 -0.508075
O12   O     O_R   0.535500 0.888690 0.048040 -0.548413
O13   O     O_R   0.711080 0.082610 0.085000 -0.545357
C41   C     C_R   0.366419 0.862410 0.065117 0.729974
O14   O     O_R   0.532630 0.905370 0.913230 -0.535736
O15   O     O_R   0.708190 0.099410 0.949230 -0.547895
C42   C     C_R   0.362999 0.884647 0.886266 0.801782
O16   O     O_R   0.206120 0.900510 0.050790 -0.527126
O17   O     O_3   0.375360 0.063570 0.011990 -0.376203
V3    V     V_3+5 0.648170 0.988200 0.997780 1.528623
O18   O     O_R   0.038240 0.111390 0.951940 -0.521455
C43   C     C_R   0.869680 0.138142 0.935437 0.733533
O19   O     O_R   0.041120 0.094710 0.086750 -0.539353
C44   C     C_R   0.872983 0.116624 0.112984 0.746321
V4    V     V_3+5 0.148810 0.011930 0.002180 1.566435
O20   O     O_3   0.871750 0.936430 0.988010 -0.350848
C45   C     C_2   0.789296 0.146269 0.501303 0.770376
O21   O     O_2   0.850650 0.195478 0.462203 -0.557484
O22   O     O_R   0.701589 0.053211 0.476324 -0.670024
H17   H     H_    0.697515 0.035709 0.425579 0.313462
Br1   Br    Br    0.625367 0.210441 0.312962 -0.583994
Br2   Br    Br    0.942302 0.804382 0.817082 -0.599953
C46   C     C_2   0.326224 0.654760 0.995707 0.841811
O23   O     O_2   0.419422 0.585542 0.964297 -0.510835
O24   O     O_R   0.202729 0.707458 0.961584 -0.655624
H18   H     H_    0.202737 0.680846 0.911394 0.312166
Br3   Br    Br    0.308575 0.467579 0.067017 -0.419988
C47   C     C_2   0.977055 0.412387 0.700889 0.732291
O25   O     O_2   0.129696 0.417454 0.731740 -0.536781
O26   O     O_R   0.887256 0.499612 0.691649 -0.663981
H19   H     H_    0.958939 0.562179 0.715012 0.313980
C48   C     C_2   0.852953 0.343205 0.005837 0.857950
O27   O     O_2   0.732467 0.399746 0.035494 -0.501588
O28   O     O_R   0.986486 0.299546 0.042096 -0.647070
H20   H     H_    0.972015 0.323122 0.092229 0.302595
C49   C     C_2   0.841948 0.504497 0.924831 0.910497
O29   O     O_2   0.914542 0.534807 0.980129 -0.522244
O30   O     O_R   0.773601 0.573818 0.888786 -0.639151
H21   H     H_    0.788932 0.645558 0.914317 0.331945

loop_
_geom_bond_atom_site_label_1
_geom_bond_atom_site_label_2
_ccdc_geom_bond_type
C20   Br1   S    
C33   C37   A    
C21   H6    S    
O22   H17   S    
O24   H18   S    
C17   C45   S    
O12   V3    S    
H11   C39   S    
C19   C20   D    
H12   C36   S    
C1    O6    A    
C49   O30   S    
O19   C44   A    
C22   H7    S    
C29   C40   A    
C6    C16   A    
O17   V3    S    
C12   C13   A    
C27   C35   A    
C14   C15   A    
C19   H5    S    
C10   C12   A    
O5    C3    A    
C21   C22   D    
C28   C39   A    
C32   C34   A    
C46   O24   S    
O30   H21   S    
O17   V4    S    
V2    O10   S    
C8    C49   S    
C31   C32   A    
C16   C47   S    
O8    V2    S    
C9    H3    S    
C47   O26   S    
C9    C10   A    
O1    V2    S    
C3    C20   S    
O7    V1    S    
C41   O16   A    
O13   C44   A    
C11   C18   A    
C25   H9    S    
C38   H14   S    
C34   C35   A    
C27   C39   A    
O15   C43   A    
O9    C4    A    
C24   C42   S    
O14   C42   A    
C36   C37   A    
O16   V4    S    
C49   O29   D    
O19   V4    S    
C45   O22   S    
C11   C15   A    
C7    C18   A    
C26   H10   S    
C5    C13   A    
C4    C6    S    
C19   C21   S    
H1    C14   S    
C10   C11   A    
C30   Br3   S    
C46   O23   D    
O4    C2    A    
C7    C48   S    
C1    C26   S    
C45   O21   D    
C15   H4    S    
C35   C36   A    
C23   Br2   S    
C23   C25   S    
O2    C1    A    
C24   H8    S    
O11   V4    S    
V3    O20   S    
C18   C43   S    
C33   C40   A    
V4    O20   S    
O14   V3    S    
C27   H13   S    
C47   O25   D    
C30   C31   A    
C48   O28   S    
O3    C4    A    
C31   H15   S    
C12   C16   A    
O6    V2    S    
O9    V2    S    
C5    C17   A    
C23   C24   D    
C2    C28   S    
O2    V1    S    
C29   C30   A    
O1    C2    A    
C22   C44   S    
O5    V1    S    
O8    C3    A    
C40   C41   S    
C34   C38   A    
C37   H16   S    
O7    V2    S    
O4    V1    S    
O3    V1    S    
V1    O10   S    
O18   V4    S    
C28   C38   A    
C32   C33   A    
C48   O27   D    
C5    H2    S    
O11   C42   A    
O28   H20   S    
O18   C43   A    
C25   C26   D    
C29   C46   S    
O26   H19   S    
O15   V3    S    
C13   C14   A    
C8    C9    A    
O12   C41   A    
C7    C8    A    
O13   V3    S    
C6    C17   A    
