data_str_m9_o13_o18_f0_sra.sym.75
_audit_creation_date              2012-12-11T14:45:33-0500
_audit_creation_method            fapswitch 2.2
_symmetry_space_group_name_H-M    P1
_symmetry_Int_Tables_number       1
_space_group_crystal_system       triclinic
_cell_length_a                    24.984152
_cell_length_b                    7.180491
_cell_length_c                    14.475785
_cell_angle_alpha                 89.958885
_cell_angle_beta                  103.426977
_cell_angle_gamma                 88.672758
_cell_volume                      2525.22360399

loop_
_atom_site_label
_atom_site_type_symbol
_atom_type_description
_atom_site_fract_x
_atom_site_fract_y
_atom_site_fract_z
_atom_type_partial_charge
O1    O     O_R   0.319150 0.364170 0.330530 -0.526485
O2    O     O_R   0.680850 0.635830 0.669470 -0.542197
O3    O     O_R   0.180850 0.864170 0.169470 -0.528342
O4    O     O_R   0.819150 0.135830 0.830530 -0.532151
O5    O     O_R   0.210330 0.696850 0.354180 -0.545532
O6    O     O_R   0.789670 0.303150 0.645820 -0.537281
O7    O     O_R   0.289670 0.196850 0.145820 -0.531655
O8    O     O_R   0.710330 0.803150 0.854180 -0.541110
C1    C     C_R   0.196911 0.526824 0.377248 0.728874
C2    C     C_R   0.802449 0.473568 0.621787 0.638921
C3    C     C_R   0.302657 0.024250 0.122326 0.740709
C4    C     C_R   0.697523 0.975807 0.877927 0.643321
O9    O     O_R   0.320550 0.694110 0.341970 -0.544325
O10   O     O_R   0.679450 0.305890 0.658030 -0.545036
O11   O     O_R   0.179450 0.194110 0.158030 -0.528122
O12   O     O_R   0.820550 0.805890 0.841970 -0.543798
O13   O     O_R   0.291860 0.861000 0.157170 -0.543968
O14   O     O_R   0.708140 0.139000 0.842830 -0.534693
O15   O     O_R   0.208140 0.361000 0.342830 -0.536056
O16   O     O_R   0.791860 0.639000 0.657170 -0.536613
C5    C     C_R   0.341651 0.522305 0.363192 0.705688
C6    C     C_R   0.658373 0.477649 0.636741 0.713337
C7    C     C_R   0.158238 0.026373 0.137131 0.701572
C8    C     C_R   0.841769 0.973449 0.863067 0.715581
O17   O     O_3   0.240460 0.529330 0.189380 -0.372989
O18   O     O_3   0.759540 0.470670 0.810620 -0.374066
O19   O     O_3   0.259540 0.029330 0.310620 -0.383125
O20   O     O_3   0.740460 0.970670 0.689380 -0.378136
V1    V     V_3+5 0.251770 0.805510 0.261240 1.484913
V2    V     V_3+5 0.748230 0.194490 0.738760 1.447243
V3    V     V_3+5 0.248230 0.305510 0.238760 1.522536
V4    V     V_3+5 0.751770 0.694490 0.761240 1.432512
C9    C     C_R   0.103302 0.014502 0.071604 -0.111121
C10   C     C_R   0.896750 0.984046 0.928910 -0.145475
C11   C     C_R   0.397172 0.496986 0.426859 -0.129693
C12   C     C_R   0.602931 0.502570 0.572807 -0.151569
C13   C     C_R   0.955757 0.113525 0.071929 0.493693
C14   C     C_R   0.044389 0.881704 0.929249 0.486838
C15   C     C_R   0.534476 0.715075 0.473845 0.497116
C16   C     C_R   0.465721 0.283006 0.525205 0.511977
C17   C     C_R   0.903211 0.085824 0.013338 -0.244193
C18   C     C_R   0.096963 0.911262 0.987780 -0.246016
C19   C     C_R   0.588808 0.672750 0.523930 -0.262008
C20   C     C_R   0.411240 0.326574 0.475619 -0.227735
C21   C     C_R   0.943701 0.912162 0.902564 -0.181878
C22   C     C_R   0.056312 0.083746 0.098424 -0.158368
C23   C     C_R   0.562196 0.371259 0.570019 -0.154415
C24   C     C_R   0.437999 0.627652 0.429192 -0.198143
C25   C     C_R   0.996998 0.945959 0.958043 -0.004447
C26   C     C_R   0.003093 0.049021 0.043097 -0.023378
C27   C     C_R   0.507060 0.412173 0.523238 0.004067
C28   C     C_R   0.493076 0.586385 0.475916 -0.011732
H1    H     H_    0.061384 0.157506 0.164626 0.178198
H2    H     H_    0.938560 0.836474 0.836833 0.187279
H3    H     H_    0.427140 0.757347 0.390337 0.201254
H4    H     H_    0.573179 0.241447 0.608711 0.191278
H5    H     H_    0.132956 0.852440 0.967832 0.142184
H6    H     H_    0.867384 0.144432 0.033933 0.152134
H7    H     H_    0.379685 0.224479 0.471739 0.135924
H8    H     H_    0.620032 0.776168 0.527896 0.140515
C29   C     C_R   0.664271 0.989842 0.948899 -0.170200
C30   C     C_R   0.336329 0.010957 0.052045 -0.139378
C31   C     C_R   0.833909 0.476816 0.547684 -0.168622
C32   C     C_R   0.162690 0.525633 0.447187 -0.147205
C33   C     C_R   0.657524 0.073166 0.107750 -0.110958
C34   C     C_R   0.343560 0.926657 0.893614 -0.099173
C35   C     C_R   0.839441 0.435460 0.384194 -0.091444
C36   C     C_R   0.153455 0.563295 0.608514 -0.112395
C37   C     C_R   0.690084 0.020466 0.045040 -0.040585
C38   C     C_R   0.310742 0.977364 0.956099 -0.072698
C39   C     C_R   0.808752 0.426944 0.453519 -0.042069
C40   C     C_R   0.186019 0.572309 0.542401 -0.071145
C41   C     C_R   0.606205 0.999156 0.918163 -0.051859
C42   C     C_R   0.394576 0.007835 0.082796 -0.031704
C43   C     C_R   0.889842 0.526388 0.571694 -0.048824
C44   C     C_R   0.105888 0.485437 0.417665 -0.030195
C45   C     C_R   0.573710 0.014402 0.986824 0.040127
C46   C     C_R   0.427103 0.991813 0.014118 -0.035482
C47   C     C_R   0.922972 0.498636 0.504771 0.046039
C48   C     C_R   0.071312 0.503799 0.483325 -0.022668
C49   C     C_R   0.599892 0.076214 0.078766 -0.028664
C50   C     C_R   0.401143 0.927358 0.922469 -0.012007
C51   C     C_R   0.895731 0.474816 0.408524 -0.032877
C52   C     C_R   0.097703 0.518615 0.581059 -0.033286
C53   C     C_R   0.516243 0.975475 0.967529 0.033212
C54   C     C_R   0.484619 0.031241 0.033345 -0.021273
C55   C     C_R   0.981941 0.493339 0.529554 0.014849
C56   C     C_R   0.011951 0.506047 0.457260 -0.030632
C57   C     C_R   0.510851 0.134146 0.113383 -0.285362
C58   C     C_R   0.490229 0.872863 0.887358 -0.195031
C59   C     C_R   0.981239 0.528584 0.362473 -0.268898
C60   C     C_R   0.011579 0.463240 0.623926 -0.171930
C61   C     C_R   0.567966 0.148616 0.138866 0.417645
C62   C     C_R   0.433215 0.856108 0.862287 0.412148
C63   C     C_R   0.924582 0.498526 0.337330 0.437350
C64   C     C_R   0.068217 0.483061 0.650625 0.420087
H9    H     H_    0.677267 0.111337 0.179791 0.230066
H10   H     H_    0.324003 0.886603 0.821768 0.227795
H11   H     H_    0.819196 0.410696 0.310684 0.213557
H12   H     H_    0.171845 0.592021 0.682318 0.202387
H13   H     H_    0.487769 0.204945 0.157784 0.155680
H14   H     H_    0.513505 0.804864 0.842333 0.129838
H15   H     H_    0.000046 0.566544 0.305717 0.171329
H16   H     H_    0.991343 0.423695 0.679022 0.146015
O21   O     O_3   0.960873 0.212056 0.155343 -0.530890
C65   C     C_3   0.955103 0.086560 0.227161 -0.195021
H17   H     H_    0.983539 0.963204 0.232179 0.095329
H18   H     H_    0.911623 0.044131 0.216064 0.159921
H19   H     H_    0.966154 0.156793 0.296748 0.167977
O22   O     O_3   0.039050 0.782980 0.845711 -0.532049
C66   C     C_3   0.056512 0.895890 0.779091 -0.115313
H20   H     H_    0.102102 0.904569 0.796779 0.140972
H21   H     H_    0.036561 0.037278 0.773111 0.107623
H22   H     H_    0.044213 0.832053 0.708034 0.197852
O23   O     O_3   0.519327 0.888409 0.431551 -0.540596
C67   C     C_3   0.555961 0.945508 0.376789 -0.168881
H23   H     H_    0.568068 0.829705 0.334041 0.099437
H24   H     H_    0.592675 0.010441 0.422338 0.152170
H25   H     H_    0.534657 0.054540 0.326488 0.199303
O24   O     O_3   0.481493 0.109723 0.567693 -0.541281
C68   C     C_3   0.441574 0.035105 0.610936 -0.100669
H26   H     H_    0.409183 0.965178 0.557542 0.127533
H27   H     H_    0.423503 0.141837 0.651368 0.120459
H28   H     H_    0.462112 0.926249 0.662129 0.200998
O25   O     O_3   0.592649 0.230806 0.224118 -0.559931
C69   C     C_3   0.589371 0.425972 0.211906 -0.195697
H29   H     H_    0.545943 0.478609 0.196134 0.116180
H30   H     H_    0.609898 0.470588 0.155259 0.146723
H31   H     H_    0.611167 0.491102 0.279232 0.176032
O26   O     O_3   0.408697 0.773008 0.777196 -0.566662
C70   C     C_3   0.412858 0.577901 0.789487 -0.213739
H32   H     H_    0.391073 0.511969 0.722376 0.177502
H33   H     H_    0.392839 0.531920 0.846551 0.148320
H34   H     H_    0.456486 0.527443 0.804719 0.147059
O27   O     O_3   0.898021 0.476142 0.242859 -0.531616
C71   C     C_3   0.889187 0.651158 0.197426 -0.177145
H35   H     H_    0.870528 0.754650 0.238745 0.133602
H36   H     H_    0.859770 0.635047 0.127748 0.168521
H37   H     H_    0.928070 0.701866 0.183020 0.132151
O28   O     O_3   0.093541 0.473568 0.746528 -0.538476
C72   C     C_3   0.124705 0.305480 0.767342 -0.190138
H38   H     H_    0.169100 0.332807 0.776003 0.168461
H39   H     H_    0.112647 0.194271 0.713217 0.107667
H40   H     H_    0.119457 0.250956 0.836346 0.158535
C73   C     C_2   0.420815 0.982443 0.185879 0.316332
H41   H     H_    0.457038 0.892053 0.207115 0.061768
O29   O     O_2   0.403617 0.064894 0.247271 -0.523848
C74   C     C_2   0.581626 0.029323 0.814953 0.350497
H42   H     H_    0.598739 0.958253 0.761815 0.048477
O30   O     O_2   0.543415 0.140715 0.788654 -0.532148
C75   C     C_2   0.085526 0.398063 0.323633 0.330656
H43   H     H_    0.059413 0.278237 0.318083 0.057989
O31   O     O_2   0.095614 0.463502 0.251800 -0.525757
C76   C     C_2   0.909954 0.633541 0.660088 0.379042
H44   H     H_    0.898873 0.594321 0.725472 0.038274
O32   O     O_2   0.937557 0.771241 0.659132 -0.535700
C77   C     C_2   0.249716 0.983206 0.921818 0.378097
H45   H     H_    0.223626 0.025938 0.968705 -0.007808
O33   O     O_2   0.227693 0.941433 0.840290 -0.530021
C78   C     C_2   0.751074 0.009922 0.079164 0.392756
H46   H     H_    0.776839 0.966535 0.031849 0.001223
O34   O     O_2   0.773420 0.048452 0.161002 -0.524823
C79   C     C_2   0.245229 0.618858 0.575129 0.396502
H47   H     H_    0.272417 0.613762 0.526640 0.010985
O35   O     O_2   0.264614 0.663443 0.657301 -0.516369
C80   C     C_2   0.749547 0.378738 0.425210 0.403811
H48   H     H_    0.723719 0.386449 0.475879 0.023977
O36   O     O_2   0.728670 0.329668 0.344353 -0.519514

loop_
_geom_bond_atom_site_label_1
_geom_bond_atom_site_label_2
_ccdc_geom_bond_type
C64   O28   S    
O17   V3    S    
C24   H3    S    
C55   C56   A    
O1    C5    A    
C69   H29   S    
C50   C62   A    
O19   V1    S    
C1    C32   S    
O13   V1    S    
C42   C73   S    
O3    C7    A    
C79   H47   S    
C60   C64   A    
C48   C52   A    
C70   H34   S    
O15   V3    S    
C2    C31   S    
C47   C55   A    
C73   H41   S    
O27   C71   S    
C14   C25   A    
C34   C38   A    
C53   C54   A    
O7    C3    A    
C62   O26   S    
C65   H18   S    
C9    C18   A    
O9    V1    S    
C79   O35   D    
C74   O30   D    
C17   H6    S    
C14   C18   A    
C72   H39   S    
O4    C8    A    
C65   H17   S    
C20   H7    S    
O23   C67   S    
O1    V3    S    
C37   C78   S    
C67   H23   S    
C30   C38   A    
C12   C23   A    
O2    V4    S    
C52   C64   A    
O3    V1    S    
O22   C66   S    
C58   H14   S    
C68   H28   S    
C1    O15   A    
C77   H45   S    
C66   H20   S    
C2    O16   A    
C7    C9    S    
C39   C80   S    
O2    C6    A    
C75   H43   S    
O14   V2    S    
C45   C49   A    
C14   O22   S    
C16   C20   A    
C76   O32   D    
C35   H11   S    
C57   H13   S    
C46   C54   A    
O11   C7    A    
C15   C28   A    
C45   C53   A    
O12   C8    A    
C55   C60   A    
C80   O36   D    
C9    C22   A    
C10   C17   A    
O10   V2    S    
C71   H37   S    
C11   C24   A    
C18   H5    S    
C73   O29   D    
C58   C62   A    
O5    V1    S    
O7    V3    S    
C41   C74   S    
C27   C28   A    
C36   C52   A    
O28   C72   S    
C71   H36   S    
C72   H40   S    
O18   V4    S    
C15   C19   A    
C44   C75   S    
C29   C41   A    
C13   O21   S    
C57   C61   A    
C8    C10   S    
C36   C40   A    
O8    V4    S    
C36   H12   S    
O5    C1    A    
C34   C50   A    
C49   C61   A    
C46   C50   A    
C33   C49   A    
C56   C59   A    
C21   C25   A    
O8    C4    A    
C51   C63   A    
C63   O27   S    
C32   C44   A    
O9    C5    A    
C66   H21   S    
C10   C21   A    
C35   C51   A    
C74   H42   S    
C11   C20   A    
C76   H44   S    
C19   H8    S    
O6    V2    S    
C31   C39   A    
C21   H2    S    
C15   O23   S    
C80   H48   S    
C70   H32   S    
O24   C68   S    
O16   V4    S    
C29   C37   A    
C3    O13   A    
C69   H30   S    
C16   O24   S    
C44   C48   A    
C59   H15   S    
C71   H35   S    
C70   H33   S    
C54   C57   A    
O6    C2    A    
C23   C27   A    
C53   C58   A    
C68   H26   S    
O11   V3    S    
C5    C11   S    
O12   V4    S    
C16   C27   A    
C6    C12   S    
O21   C65   S    
C22   C26   A    
C3    C30   S    
C69   H31   S    
C67   H25   S    
C38   C77   S    
C78   H46   S    
C34   H10   S    
O20   V2    S    
O26   C70   S    
C33   H9    S    
C48   C56   A    
C72   H38   S    
C47   C51   A    
C4    C29   S    
C43   C76   S    
O10   C6    A    
O25   C69   S    
C31   C43   A    
C33   C37   A    
C22   H1    S    
C13   C26   A    
C40   C79   S    
C67   H24   S    
C66   H22   S    
C35   C39   A    
C75   O31   D    
C13   C17   A    
C61   O25   S    
C68   H27   S    
C60   H16   S    
C59   C63   A    
C24   C28   A    
C77   O33   D    
C25   C26   A    
C42   C46   A    
C4    O14   A    
C41   C45   A    
C30   C42   A    
C12   C19   A    
C43   C47   A    
O4    V2    S    
C32   C40   A    
C78   O34   D    
C23   H4    S    
C65   H19   S    
