data_str_m4_o22_o22_f0_acs.sym.78
_audit_creation_date              2012-12-11T15:07:07-0500
_audit_creation_method            fapswitch 2.2
_symmetry_space_group_name_H-M    P1
_symmetry_Int_Tables_number       1
_space_group_crystal_system       triclinic
_cell_length_a                    19.863708
_cell_length_b                    11.396253
_cell_length_c                    18.717598
_cell_angle_alpha                 90.271629
_cell_angle_beta                  89.577668
_cell_angle_gamma                 89.45807
_cell_volume                      4236.7834718

loop_
_atom_site_label
_atom_site_type_symbol
_atom_type_description
_atom_site_fract_x
_atom_site_fract_y
_atom_site_fract_z
_atom_type_partial_charge
C1    C     C_R   0.770780 0.487232 0.632248 0.533027
C2    C     C_R   0.237452 0.518567 0.362520 0.539854
C3    C     C_R   0.270780 0.987230 0.632248 0.533028
C4    C     C_R   0.737451 0.018562 0.362521 0.539860
C5    C     C_3   0.817671 0.103428 0.451972 -0.029111
C6    C     C_3   0.186428 0.075803 0.546700 0.000014
C7    C     C_3   0.317673 0.603428 0.451973 -0.029114
C8    C     C_3   0.686430 0.575812 0.546701 0.000017
C9    C     C_3   0.747019 0.049452 0.439111 0.070855
C10   C     C_3   0.259113 0.021826 0.555330 0.058913
C11   C     C_3   0.247020 0.549456 0.439110 0.070858
C12   C     C_3   0.759113 0.521828 0.555330 0.058912
C13   C     C_3   0.762288 0.090000 0.575580 0.071316
C14   C     C_3   0.239511 0.084891 0.422693 0.076492
C15   C     C_3   0.262288 0.590001 0.575580 0.071314
C16   C     C_3   0.739510 0.584891 0.422693 0.076491
C17   C     C_3   0.764242 0.956804 0.564587 -0.127727
C18   C     C_3   0.235853 0.950115 0.426128 -0.111205
C19   C     C_3   0.264239 0.456805 0.564585 -0.127729
C20   C     C_3   0.735849 0.450115 0.426130 -0.111204
C21   C     C_3   0.822709 0.134889 0.531220 -0.188126
C22   C     C_3   0.184168 0.134241 0.473745 -0.197188
C23   C     C_3   0.322709 0.634886 0.531221 -0.188126
C24   C     C_3   0.684169 0.634245 0.473745 -0.197182
C25   C     C_3   0.995845 0.206979 0.456947 -0.237501
C26   C     C_3   0.996002 0.204958 0.539440 -0.228914
C27   C     C_3   0.495842 0.706980 0.456945 -0.237499
C28   C     C_3   0.495997 0.704959 0.539439 -0.228914
C29   C     C_3   0.071188 0.381436 0.471978 -0.212349
C30   C     C_3   0.943399 0.413162 0.529669 -0.207709
C31   C     C_3   0.571189 0.881431 0.471977 -0.212345
C32   C     C_3   0.443401 0.913168 0.529669 -0.207710
C33   C     C_3   0.949684 0.407391 0.448479 -0.264095
C34   C     C_3   0.062686 0.380491 0.554204 -0.266623
C35   C     C_3   0.449685 0.907395 0.448479 -0.264094
C36   C     C_3   0.562687 0.880483 0.554203 -0.266623
C37   C     C_3   0.010840 0.332689 0.430579 0.052616
C38   C     C_3   0.993568 0.332046 0.569966 0.055961
C39   C     C_3   0.510840 0.832689 0.430578 0.052618
C40   C     C_3   0.493567 0.832047 0.569966 0.055958
C41   C     C_3   0.813696 0.015226 0.044273 -0.234499
C42   C     C_3   0.181919 0.029808 0.952703 -0.238830
C43   C     C_3   0.313696 0.515226 0.044273 -0.234499
C44   C     C_3   0.681920 0.529808 0.952703 -0.238830
C45   C     C_R   0.775590 0.123540 0.649383 0.544226
C46   C     C_R   0.223380 0.126679 0.351535 0.540175
C47   C     C_R   0.275589 0.623539 0.649383 0.544226
C48   C     C_R   0.723380 0.626678 0.351535 0.540176
C49   C     C_3   0.812497 0.019405 0.964140 -0.252216
C50   C     C_3   0.180758 0.036018 0.032686 -0.242645
C51   C     C_3   0.312497 0.519405 0.964140 -0.252216
C52   C     C_3   0.680758 0.536018 0.032686 -0.242645
C53   C     C_3   0.684846 0.047619 0.035034 -0.192065
C54   C     C_3   0.309086 0.021023 0.966503 -0.193619
C55   C     C_3   0.184846 0.547620 0.035034 -0.192065
C56   C     C_3   0.809086 0.521023 0.966503 -0.193619
C57   C     C_3   0.759881 0.206421 0.067032 -0.260373
C58   C     C_3   0.251357 0.206207 0.935553 -0.255954
C59   C     C_3   0.259881 0.706422 0.067032 -0.260373
C60   C     C_3   0.751357 0.706207 0.935553 -0.255953
C61   C     C_3   0.749825 0.075634 0.076956 0.055601
C62   C     C_3   0.250304 0.074511 0.923281 0.051610
C63   C     C_3   0.249825 0.575634 0.076956 0.055601
C64   C     C_3   0.750304 0.574511 0.923281 0.051610
C65   C     C_3   0.760733 0.113240 0.938091 0.073701
C66   C     C_3   0.239363 0.111973 0.062214 0.074237
C67   C     C_3   0.260733 0.613240 0.938091 0.073701
C68   C     C_3   0.739363 0.611973 0.062214 0.074237
C69   C     C_3   0.689565 0.068285 0.952968 -0.113886
C70   C     C_3   0.304098 0.040568 0.049122 -0.118824
C71   C     C_3   0.189565 0.568285 0.952968 -0.113886
C72   C     C_3   0.804098 0.540568 0.049122 -0.118825
C73   C     C_3   0.768237 0.225671 0.985381 -0.224929
C74   C     C_3   0.248462 0.227320 0.017374 -0.214328
C75   C     C_3   0.268237 0.725671 0.985381 -0.224929
C76   C     C_3   0.748462 0.727320 0.017374 -0.214328
C77   C     C_3   0.019567 0.468795 0.035220 -0.231751
C78   C     C_3   0.006937 0.469675 0.955909 -0.240382
C79   C     C_3   0.519567 0.968795 0.035220 -0.231751
C80   C     C_3   0.506937 0.969675 0.955909 -0.240382
C81   C     C_3   0.061337 0.259706 0.026118 -0.215604
C82   C     C_3   0.933529 0.297494 0.973521 -0.218344
C83   C     C_3   0.561337 0.759706 0.026118 -0.215604
C84   C     C_3   0.433529 0.797493 0.973521 -0.218344
C85   C     C_3   0.943500 0.301253 0.055200 -0.254562
C86   C     C_3   0.052896 0.268020 0.943756 -0.253583
C87   C     C_3   0.443500 0.801253 0.055200 -0.254562
C88   C     C_3   0.552896 0.768020 0.943756 -0.253583
C89   C     C_R   0.971674 0.341471 0.646440 0.524684
C90   C     C_R   0.029715 0.342297 0.354053 0.530166
C91   C     C_R   0.471674 0.841471 0.646439 0.524682
C92   C     C_R   0.529715 0.842297 0.354052 0.530164
C93   C     C_3   0.014047 0.346029 0.067933 0.058557
C94   C     C_3   0.991754 0.346268 0.929120 0.054896
C95   C     C_3   0.514047 0.846029 0.067933 0.058557
C96   C     C_3   0.491754 0.846268 0.929120 0.054896
C97   C     C_R   0.759615 0.535768 0.847424 0.536176
C98   C     C_R   0.240221 0.535780 0.152407 0.533665
C99   C     C_R   0.259615 0.035768 0.847424 0.536176
C100  C     C_R   0.740221 0.035780 0.152407 0.533666
C101  C     C_R   0.775684 0.138023 0.860448 0.539331
C102  C     C_R   0.224306 0.137725 0.139757 0.535293
C103  C     C_R   0.275684 0.638023 0.860448 0.539331
C104  C     C_R   0.724306 0.637725 0.139757 0.535294
C105  C     C_R   0.969410 0.352062 0.852949 0.529166
C106  C     C_R   0.033371 0.352514 0.145157 0.531004
C107  C     C_R   0.469410 0.852062 0.852949 0.529166
C108  C     C_R   0.533371 0.852514 0.145157 0.531004
C109  C     C_3   0.692310 0.137259 0.466177 -0.278307
C110  C     C_3   0.311280 0.115798 0.531210 -0.269193
C111  C     C_3   0.192311 0.637264 0.466176 -0.278307
C112  C     C_3   0.811282 0.615796 0.531209 -0.269195
C113  C     C_3   0.693163 0.140052 0.547969 -0.245898
C114  C     C_3   0.309827 0.127001 0.449524 -0.251929
C115  C     C_3   0.193163 0.640057 0.547967 -0.245901
C116  C     C_3   0.809827 0.626996 0.449522 -0.251932
C117  C     C_3   0.741299 0.936650 0.486697 -0.219462
C118  C     C_3   0.264966 0.917041 0.500129 -0.243376
C119  C     C_3   0.241297 0.436653 0.486695 -0.219459
C120  C     C_3   0.764963 0.417041 0.500131 -0.243374
Cr1   Cr    Cr6+3 0.885690 0.492860 0.745310 0.989019
Cr2   Cr    Cr6+3 0.114310 0.492860 0.254690 0.990594
Cr3   Cr    Cr6+3 0.385690 0.992860 0.745310 0.989018
Cr4   Cr    Cr6+3 0.614310 0.992860 0.254690 0.990594
Cr5   Cr    Cr6+3 0.729880 0.332270 0.748190 0.980401
Cr6   Cr    Cr6+3 0.270120 0.332270 0.251810 0.981808
Cr7   Cr    Cr6+3 0.229880 0.832270 0.748190 0.980401
Cr8   Cr    Cr6+3 0.770120 0.832270 0.251810 0.981808
Cr9   Cr    Cr6+3 0.888120 0.178590 0.753010 0.986492
Cr10  Cr    Cr6+3 0.111880 0.178590 0.246990 0.988183
Cr11  Cr    Cr6+3 0.388120 0.678590 0.753010 0.986492
Cr12  Cr    Cr6+3 0.611880 0.678590 0.246990 0.988183
H1    H     H_    0.641345 0.116536 0.447863 0.131464
H2    H     H_    0.362586 0.095835 0.548479 0.131084
H3    H     H_    0.141346 0.616541 0.447861 0.131465
H4    H     H_    0.862587 0.595831 0.548478 0.131083
H5    H     H_    0.866427 0.087047 0.551497 0.162382
H6    H     H_    0.133744 0.125474 0.450773 0.159061
H7    H     H_    0.366425 0.587037 0.551499 0.162384
H8    H     H_    0.633744 0.625484 0.450775 0.159057
H9    H     H_    0.767776 0.862407 0.462447 0.112278
H10   H     H_    0.242618 0.840351 0.522298 0.106169
H11   H     H_    0.267771 0.362408 0.462445 0.112278
H12   H     H_    0.742614 0.340353 0.522300 0.106166
H13   H     H_    0.816511 0.921044 0.568686 0.145285
H14   H     H_    0.182148 0.923239 0.424443 0.167633
H15   H     H_    0.316507 0.421040 0.568685 0.145278
H16   H     H_    0.682142 0.423243 0.424449 0.167642
H17   H     H_    0.029900 0.138896 0.434760 0.147554
H18   H     H_    0.957285 0.150113 0.561420 0.141106
H19   H     H_    0.529897 0.638896 0.434760 0.147557
H20   H     H_    0.457278 0.650120 0.561418 0.141106
H21   H     H_    0.945924 0.184575 0.437585 0.158747
H22   H     H_    0.042597 0.160295 0.557334 0.142737
H23   H     H_    0.445921 0.684579 0.437583 0.158742
H24   H     H_    0.542589 0.660289 0.557334 0.142736
H25   H     H_    0.612390 0.825118 0.454082 0.103904
H26   H     H_    0.393439 0.894775 0.550837 0.109645
H27   H     H_    0.112389 0.325122 0.454084 0.103906
H28   H     H_    0.893437 0.394763 0.550837 0.109642
H29   H     H_    0.601788 0.824300 0.578736 0.105499
H30   H     H_    0.405139 0.866978 0.424429 0.095423
H31   H     H_    0.101790 0.324317 0.578739 0.105494
H32   H     H_    0.905139 0.366971 0.424429 0.095426
H33   H     H_    0.955018 0.497460 0.426611 0.132494
H34   H     H_    0.066590 0.470209 0.576720 0.119602
H35   H     H_    0.455020 0.997464 0.426611 0.132495
H36   H     H_    0.566595 0.970198 0.576721 0.119599
H37   H     H_    0.954991 0.505545 0.544016 0.138411
H38   H     H_    0.080063 0.472421 0.455841 0.139544
H39   H     H_    0.454996 0.005550 0.544016 0.138410
H40   H     H_    0.580064 0.972418 0.455842 0.139543
H41   H     H_    0.822035 0.924947 0.060991 0.137917
H42   H     H_    0.170088 0.938529 0.937885 0.132258
H43   H     H_    0.322035 0.424947 0.060991 0.137917
H44   H     H_    0.670088 0.438529 0.937885 0.132258
H45   H     H_    0.700866 0.224253 0.444039 0.113467
H46   H     H_    0.299102 0.201732 0.555992 0.123369
H47   H     H_    0.200868 0.724258 0.444037 0.113462
H48   H     H_    0.799107 0.701731 0.555989 0.123366
H49   H     H_    0.859418 0.060556 0.063908 0.115671
H50   H     H_    0.140554 0.083060 0.930138 0.120843
H51   H     H_    0.359418 0.560556 0.063908 0.115671
H52   H     H_    0.640554 0.583060 0.930138 0.120843
H53   H     H_    0.865099 0.036664 0.947057 0.139869
H54   H     H_    0.130900 0.066457 0.049236 0.139252
H55   H     H_    0.365099 0.536664 0.947057 0.139869
H56   H     H_    0.630900 0.566457 0.049236 0.139252
H57   H     H_    0.799312 0.932740 0.941875 0.113328
H58   H     H_    0.184358 0.945870 0.054836 0.109958
H59   H     H_    0.299312 0.432740 0.941875 0.113328
H60   H     H_    0.684358 0.445870 0.054836 0.109958
H61   H     H_    0.670152 0.957077 0.045941 0.092458
H62   H     H_    0.304484 0.929669 0.954901 0.089219
H63   H     H_    0.170152 0.457077 0.045941 0.092458
H64   H     H_    0.804484 0.429669 0.954901 0.089219
H65   H     H_    0.683095 0.982305 0.925455 0.111202
H66   H     H_    0.298935 0.953944 0.075630 0.116419
H67   H     H_    0.183095 0.482305 0.925455 0.111202
H68   H     H_    0.798935 0.453944 0.075630 0.116419
H69   H     H_    0.716091 0.257279 0.088375 0.112608
H70   H     H_    0.298497 0.242090 0.912229 0.116853
H71   H     H_    0.216092 0.757279 0.088375 0.112608
H72   H     H_    0.798497 0.742091 0.912229 0.116853
H73   H     H_    0.804871 0.236752 0.096596 0.101166
H74   H     H_    0.208537 0.250247 0.908683 0.101055
H75   H     H_    0.304871 0.736752 0.096596 0.101166
H76   H     H_    0.708538 0.750247 0.908683 0.101055
H77   H     H_    0.817989 0.251171 0.977110 0.105916
H78   H     H_    0.213128 0.295587 0.031684 0.094831
H79   H     H_    0.317989 0.751171 0.977110 0.105916
H80   H     H_    0.713128 0.795587 0.031684 0.094831
H81   H     H_    0.734693 0.296489 0.969089 0.115282
H82   H     H_    0.297405 0.263285 0.030167 0.123404
H83   H     H_    0.234693 0.796489 0.969089 0.115282
H84   H     H_    0.797405 0.763285 0.030167 0.123404
H85   H     H_    0.646362 0.108418 0.058231 0.135442
H86   H     H_    0.357365 0.051876 0.944191 0.137805
H87   H     H_    0.146362 0.608418 0.058231 0.135442
H88   H     H_    0.857365 0.551876 0.944191 0.137805
H89   H     H_    0.678050 0.226608 0.569085 0.131859
H90   H     H_    0.323671 0.216585 0.433801 0.129296
H91   H     H_    0.178051 0.726613 0.569084 0.131864
H92   H     H_    0.823673 0.716580 0.433798 0.129298
H93   H     H_    0.068616 0.499109 0.043783 0.127325
H94   H     H_    0.966653 0.534582 0.944896 0.133918
H95   H     H_    0.568616 0.999109 0.043783 0.127325
H96   H     H_    0.466653 0.034582 0.944896 0.133918
H97   H     H_    0.989096 0.534011 0.063609 0.129787
H98   H     H_    0.051608 0.495443 0.925894 0.130056
H99   H     H_    0.489096 0.034011 0.063609 0.129787
H100  H     H_    0.551607 0.995443 0.925894 0.130056
H101  H     H_    0.613068 0.774393 0.041697 0.115632
H102  H     H_    0.394502 0.858279 0.961071 0.112653
H103  H     H_    0.113068 0.274393 0.041697 0.115631
H104  H     H_    0.894502 0.358279 0.961071 0.112653
H105  H     H_    0.598614 0.805161 0.918499 0.100537
H106  H     H_    0.405246 0.857766 0.081441 0.109461
H107  H     H_    0.098614 0.305161 0.918499 0.100537
H108  H     H_    0.905246 0.357766 0.081441 0.109461
H109  H     H_    0.937578 0.212143 0.078123 0.108309
H110  H     H_    0.044173 0.179546 0.920618 0.118800
H111  H     H_    0.437578 0.712143 0.078123 0.108309
H112  H     H_    0.544173 0.679546 0.920618 0.118800
H113  H     H_    0.922354 0.206561 0.956174 0.131021
H114  H     H_    0.046771 0.169976 0.042107 0.124179
H115  H     H_    0.422354 0.706561 0.956173 0.131021
H116  H     H_    0.546771 0.669976 0.042107 0.124179
H117  H     H_    0.651926 0.085034 0.567719 0.116173
H118  H     H_    0.349774 0.071609 0.425238 0.123638
H119  H     H_    0.151924 0.585042 0.567716 0.116169
H120  H     H_    0.849773 0.571601 0.425235 0.123639
H121  H     H_    0.689380 0.916530 0.491027 0.121394
H122  H     H_    0.315854 0.893029 0.487810 0.114610
H123  H     H_    0.189378 0.416536 0.491025 0.121393
H124  H     H_    0.815851 0.393028 0.487810 0.114612
H125  H     H_    0.823789 0.185216 0.421759 0.124441
H126  H     H_    0.177590 0.142202 0.588582 0.133488
H127  H     H_    0.323793 0.685216 0.421761 0.124437
H128  H     H_    0.677595 0.642217 0.588581 0.133479
H129  H     H_    0.832893 0.228003 0.540761 0.076645
H130  H     H_    0.194500 0.226348 0.482629 0.067318
H131  H     H_    0.332897 0.727999 0.540763 0.076650
H132  H     H_    0.694504 0.726352 0.482628 0.067322
O1    O     O_R   0.957210 0.449410 0.665480 -0.536155
O2    O     O_R   0.042790 0.449410 0.334520 -0.532641
O3    O     O_R   0.457210 0.949410 0.665480 -0.536154
O4    O     O_R   0.542790 0.949410 0.334520 -0.532642
O5    O     O_R   0.736260 0.212010 0.826560 -0.510969
O6    O     O_R   0.263740 0.212010 0.173440 -0.517773
O7    O     O_R   0.236260 0.712010 0.826560 -0.510969
O8    O     O_R   0.763740 0.712010 0.173440 -0.517773
O9    O     O_R   0.832520 0.095300 0.836000 -0.536807
O10   O     O_R   0.167480 0.095300 0.164000 -0.536996
O11   O     O_R   0.332520 0.595300 0.836000 -0.536807
O12   O     O_R   0.667480 0.595300 0.164000 -0.536995
O13   O     O_R   0.946380 0.253940 0.826940 -0.513958
O14   O     O_R   0.053620 0.253940 0.173060 -0.512888
O15   O     O_R   0.446380 0.753940 0.826940 -0.513958
O16   O     O_R   0.553620 0.753940 0.173060 -0.512888
O17   O     O_3   0.834560 0.334570 0.748840 -0.286779
O18   O     O_3   0.165440 0.334570 0.251160 -0.278694
O19   O     O_3   0.334560 0.834570 0.748840 -0.286778
O20   O     O_3   0.665440 0.834570 0.251160 -0.278696
O21   O     O_R   0.820730 0.541240 0.668250 -0.511757
O22   O     O_R   0.179270 0.541240 0.331750 -0.517639
O23   O     O_R   0.320730 0.041240 0.668250 -0.511758
O24   O     O_R   0.679270 0.041240 0.331750 -0.517640
O25   O     O_R   0.714240 0.455060 0.663710 -0.525684
O26   O     O_R   0.285760 0.455060 0.336290 -0.530886
O27   O     O_R   0.214240 0.955060 0.663710 -0.525684
O28   O     O_R   0.785760 0.955060 0.336290 -0.530887
O29   O     O_R   0.736780 0.204870 0.675910 -0.523804
O30   O     O_R   0.263220 0.204870 0.324090 -0.516977
O31   O     O_R   0.236780 0.704870 0.675910 -0.523804
O32   O     O_R   0.763220 0.704870 0.324090 -0.516979
O33   O     O_R   0.833070 0.087590 0.673490 -0.539182
O34   O     O_R   0.166930 0.087590 0.326510 -0.538900
O35   O     O_R   0.333070 0.587590 0.673490 -0.539181
O36   O     O_R   0.666930 0.587590 0.326510 -0.538898
O37   O     O_R   0.946890 0.246800 0.676300 -0.516041
O38   O     O_R   0.053110 0.246800 0.323700 -0.515296
O39   O     O_R   0.446890 0.746800 0.676300 -0.516041
O40   O     O_R   0.553110 0.746800 0.323700 -0.515297
O41   O     O_R   0.956650 0.457120 0.827980 -0.534248
O42   O     O_R   0.043350 0.457120 0.172020 -0.534707
O43   O     O_R   0.456650 0.957120 0.827980 -0.534247
O44   O     O_R   0.543350 0.957120 0.172020 -0.534707
O45   O     O_R   0.820220 0.548390 0.818890 -0.509181
O46   O     O_R   0.179780 0.548390 0.181110 -0.513756
O47   O     O_R   0.320220 0.048390 0.818890 -0.509181
O48   O     O_R   0.679780 0.048390 0.181110 -0.513755
O49   O     O_R   0.713680 0.462770 0.826210 -0.533038
O50   O     O_R   0.286320 0.462770 0.173790 -0.534734
O51   O     O_R   0.213680 0.962770 0.826210 -0.533038
O52   O     O_R   0.786320 0.962770 0.173790 -0.534733
C121  C     C_3   0.633536 0.153413 0.925054 -0.403888
H133  H     H_    0.616528 0.123429 0.871644 0.139964
H134  H     H_    0.589857 0.160920 0.961931 0.102722
H135  H     H_    0.648785 0.244690 0.917049 0.154272
C122  C     C_3   0.367946 0.099098 0.080113 -0.417639
H136  H     H_    0.393013 0.039118 0.118067 0.129245
H137  H     H_    0.401905 0.129731 0.037224 0.106153
H138  H     H_    0.359462 0.179578 0.111454 0.167391
C123  C     C_3   0.133536 0.653413 0.925054 -0.403888
H139  H     H_    0.116528 0.623429 0.871644 0.139963
H140  H     H_    0.089857 0.660920 0.961931 0.102723
H141  H     H_    0.148785 0.744690 0.917049 0.154272
C124  C     C_3   0.867946 0.599098 0.080113 -0.417639
H142  H     H_    0.893013 0.539118 0.118067 0.129245
H143  H     H_    0.901905 0.629731 0.037224 0.106153
H144  H     H_    0.859462 0.679578 0.111454 0.167391
C125  C     C_3   0.724607 0.892776 0.623189 -0.428955
H145  H     H_    0.714819 0.803895 0.606119 0.109568
H146  H     H_    0.755199 0.886761 0.672505 0.158434
H147  H     H_    0.676749 0.937286 0.637852 0.131554
C126  C     C_3   0.270018 0.889481 0.360366 -0.429239
H148  H     H_    0.263395 0.794136 0.360178 0.113507
H149  H     H_    0.245465 0.916248 0.309973 0.166769
H150  H     H_    0.323650 0.911966 0.354779 0.124508
C127  C     C_3   0.224601 0.392779 0.623186 -0.428932
H151  H     H_    0.214790 0.303906 0.606097 0.109558
H152  H     H_    0.255205 0.386727 0.672498 0.158425
H153  H     H_    0.176751 0.437318 0.637863 0.131563
C128  C     C_3   0.770010 0.389476 0.360368 -0.429250
H154  H     H_    0.763386 0.294134 0.360180 0.113508
H155  H     H_    0.745457 0.416239 0.309978 0.166772
H156  H     H_    0.823640 0.411955 0.354777 0.124509
N1    N     N_3   0.874364 0.024753 0.431890 -0.679363
H157  H     H_    0.866581 0.936760 0.443958 0.250285
H158  H     H_    0.887234 0.034253 0.377977 0.258234
N2    N     N_3   0.129767 0.993154 0.552711 -0.666421
H159  H     H_    0.142487 0.906426 0.541982 0.238426
H160  H     H_    0.108361 0.996949 0.603899 0.250878
N3    N     N_3   0.374365 0.524749 0.431891 -0.679360
H161  H     H_    0.366580 0.436756 0.443959 0.250285
H162  H     H_    0.387235 0.534249 0.377978 0.258233
N4    N     N_3   0.629767 0.493168 0.552716 -0.666412
H163  H     H_    0.642489 0.406435 0.542002 0.238435
H164  H     H_    0.608357 0.496981 0.603902 0.250866

loop_
_geom_bond_atom_site_label_1
_geom_bond_atom_site_label_2
_ccdc_geom_bond_type
C78   H94   S    
C97   O49   A    
C82   C94   S    
C119  H11   S    
C7    H127  S    
C120  H12   S    
C21   H5    S    
C53   C69   S    
C18   C126  S    
C17   C125  S    
C126  H148  S    
C43   C63   S    
C125  H145  S    
C44   C64   S    
C84   H115  S    
C112  H4    S    
C63   C98   S    
C35   C39   S    
C31   H40   S    
C28   C40   S    
Cr12  O12   S    
C36   H36   S    
C30   C38   S    
C69   C121  S    
C43   H43   S    
C56   C72   S    
C98   O46   A    
C106  O14   A    
C41   C61   S    
C20   C128  S    
C18   C118  S    
C81   C86   S    
Cr4   O20   S    
C83   C88   S    
C87   H106  S    
C74   H82   S    
C111  H47   S    
C91   O3    A    
C41   C49   S    
C54   H86   S    
C109  H1    S    
Cr1   O1    S    
C18   H14   S    
C26   C38   S    
C14   C114  S    
Cr4   O4    S    
C24   H8    S    
C111  H3    S    
C121  H135  S    
C15   C19   S    
C30   H37   S    
C88   H112  S    
N3    H161  S    
C54   C70   S    
C23   H131  S    
C68   C72   S    
C75   H79   S    
N2    H159  S    
C1    O25   A    
C98   O50   A    
C102  O10   A    
C128  H156  S    
C113  H89   S    
C31   H25   S    
C64   C97   S    
C36   H29   S    
C15   C115  S    
Cr6   O50   S    
C126  H150  S    
Cr7   O31   S    
C125  H147  S    
Cr8   O32   S    
Cr1   O41   S    
C59   C63   S    
Cr6   O6    S    
C46   O34   A    
C57   C61   S    
C82   C85   S    
C77   H97   S    
C60   C64   S    
Cr3   O3    S    
C13   C45   S    
C66   C70   S    
C101  O5    A    
C78   C94   S    
C43   H51   S    
Cr9   O33   S    
C95   C108  S    
C62   C99   S    
C92   O4    A    
C5    C21   S    
C108  O44   A    
C122  H136  S    
C110  H46   S    
C31   C36   S    
C73   H81   S    
C48   O36   A    
C55   C71   S    
Cr6   O30   S    
Cr7   O51   S    
Cr2   O2    S    
N1    H157  S    
C54   H62   S    
C65   C101  S    
C43   C51   S    
Cr11  O19   S    
C67   C103  S    
C37   C90   S    
Cr10  O34   S    
C73   H77   S    
C22   H130  S    
C100  O48   A    
C115  H119  S    
C66   C74   S    
C113  H117  S    
C25   H17   S    
C57   C73   S    
C123  H140  S    
C53   C61   S    
C60   H72   S    
C83   H101  S    
C56   H88   S    
C55   C63   S    
C56   C64   S    
C10   C110  S    
C47   O31   A    
C104  O12   A    
C48   O32   A    
C89   O37   A    
C112  H48   S    
C76   H80   S    
C91   O39   A    
C70   H66   S    
Cr6   O26   S    
Cr8   O8    S    
C1    C12   S    
Cr1   O17   S    
C80   H100  S    
C2    C11   S    
C7    C11   S    
C127  H152  S    
C53   H85   S    
Cr12  O16   S    
C42   H42   S    
C55   H87   S    
C25   C26   S    
C8    N4    S    
C87   C95   S    
C103  O7    A    
C8    H128  S    
C84   H102  S    
C5    C9    S    
C59   H71   S    
C93   C106  S    
C8    C12   S    
C122  H138  S    
C5    H125  S    
C51   C67   S    
N4    H164  S    
C58   H70   S    
C42   C50   S    
C70   C122  S    
N3    H162  S    
Cr5   O17   S    
C110  H2    S    
C61   C100  S    
C67   C75   S    
Cr8   O20   S    
C50   H54   S    
C112  C116  S    
C51   H59   S    
C58   C74   S    
C59   H75   S    
C41   H41   S    
Cr12  O36   S    
C81   H114  S    
C33   H33   S    
C44   H44   S    
C68   C76   S    
C107  O15   A    
C13   C17   S    
C85   H108  S    
C14   C22   S    
C99   O51   A    
C103  O11   A    
C13   C21   S    
C7    C23   S    
C8    C24   S    
C89   O1    A    
C40   C91   S    
Cr5   O25   S    
Cr4   O44   S    
Cr8   O28   S    
C49   H53   S    
Cr1   O45   S    
C57   H69   S    
Cr2   O42   S    
Cr3   O47   S    
C46   O30   A    
C4    C9    S    
C92   O40   A    
C86   H110  S    
C58   C62   S    
C88   C96   S    
C94   C105  S    
C77   H93   S    
C82   H104  S    
C53   H61   S    
Cr9   O9    S    
C12   C112  S    
Cr11  O35   S    
C1    O21   A    
C14   C46   S    
C77   C78   S    
C42   H50   S    
C3    O23   A    
Cr9   O37   S    
C115  H91   S    
C6    N2    S    
C58   H74   S    
C6    C22   S    
C9    C117  S    
C121  H134  S    
C14   C18   S    
C126  H149  S    
C56   H64   S    
C19   C127  S    
C20   C120  S    
N2    H160  S    
C5    N1    S    
C15   C47   S    
Cr10  O10   S    
Cr11  O15   S    
C82   H113  S    
C17   C117  S    
C42   C62   S    
C19   C119  S    
Cr10  O38   S    
C27   H23   S    
C41   H49   S    
C81   H103  S    
C16   C116  S    
C100  O52   A    
C125  H146  S    
C9    C109  S    
C117  H9    S    
C25   H21   S    
C26   H18   S    
C60   H76   S    
C54   C62   S    
C107  O43   A    
C11   C111  S    
C29   C34   S    
C19   H15   S    
C45   O33   A    
C116  H92   S    
C47   O35   A    
C4    O28   A    
C79   C95   S    
C111  C115  S    
C90   O38   A    
C85   H109  S    
C86   H107  S    
Cr1   O21   S    
C80   H96   S    
Cr2   O18   S    
C7    N3    S    
Cr4   O24   S    
Cr12  O20   S    
C32   H39   S    
C71   C123  S    
C39   C92   S    
Cr11  O39   S    
C27   H19   S    
C102  O6    A    
C68   C104  S    
C119  H123  S    
C17   H13   S    
C6    C10   S    
C71   H67   S    
C78   H98   S    
C22   H6    S    
C6    H126  S    
C2    O26   A    
C65   C69   S    
Cr6   O18   S    
C77   C93   S    
C60   C76   S    
Cr4   O48   S    
C67   C71   S    
C123  H139  S    
C50   H58   S    
C33   C37   S    
C51   H55   S    
C109  H45   S    
Cr12  O40   S    
C29   C37   S    
C34   H34   S    
C55   H63   S    
C97   O45   A    
C105  O13   A    
C124  H142  S    
C66   C102  S    
C99   O47   A    
C84   C87   S    
C3    O27   A    
C11   C119  S    
C16   C48   S    
C104  O8    A    
C29   H27   S    
C127  H151  S    
C30   H28   S    
C38   C89   S    
C4    O24   A    
C49   C65   S    
C74   H78   S    
C23   H7    S    
C90   O2    A    
C84   C96   S    
C49   H57   S    
C114  H118  S    
C57   H73   S    
Cr2   O46   S    
C65   C73   S    
Cr3   O43   S    
C52   H60   S    
Cr7   O19   S    
C76   H84   S    
C86   C94   S    
C25   C37   S    
C12   C120  S    
C27   C39   S    
C72   C124  S    
C122  H137  S    
C83   H116  S    
C35   H35   S    
Cr9   O13   S    
C29   H38   S    
C80   C96   S    
C118  H122  S    
C44   H52   S    
C52   C68   S    
C16   C20   S    
C2    O22   A    
C15   C23   S    
C16   C24   S    
C69   H65   S    
C101  O9    A    
N4    H163  S    
C85   C93   S    
C79   H95   S    
C106  O42   A    
C32   H26   S    
C35   H30   S    
C117  H121  S    
C32   C35   S    
C36   C40   S    
C33   H32   S    
Cr5   O49   S    
C34   H31   S    
Cr7   O27   S    
C116  H120  S    
Cr8   O52   S    
C114  H90   S    
Cr5   O5    S    
Cr10  O14   S    
C123  H141  S    
C120  H124  S    
Cr11  O11   S    
C10   C118  S    
C72   H68   S    
C81   C93   S    
C87   H111  S    
C79   H99   S    
C24   H132  S    
C20   H16   S    
C124  H143  S    
C83   C95   S    
Cr9   O17   S    
C50   C66   S    
Cr3   O23   S    
C21   H129  S    
C28   H20   S    
C124  H144  S    
C26   H22   S    
C59   C75   S    
C127  H153  S    
C110  C114  S    
C30   C33   S    
C34   C38   S    
C45   O29   A    
C96   C107  S    
C118  H10   S    
Cr5   O29   S    
C109  C113  S    
C52   H56   S    
Cr2   O22   S    
Cr10  O18   S    
C3    C10   S    
Cr3   O19   S    
C44   C52   S    
C128  H155  S    
C88   H105  S    
C75   H83   S    
C31   C39   S    
C32   C40   S    
C121  H133  S    
C79   C80   S    
N1    H158  S    
C27   C28   S    
C28   H24   S    
Cr7   O7    S    
C128  H154  S    
C108  O16   A    
C13   C113  S    
C105  O41   A    
