data_str_m12_o9_o24_f0_bcu.sym.39
_audit_creation_date              2012-12-11T17:47:28-0500
_audit_creation_method            fapswitch 2.2
_symmetry_space_group_name_H-M    P1
_symmetry_Int_Tables_number       1
_space_group_crystal_system       triclinic
_cell_length_a                    14.890828
_cell_length_b                    14.940344
_cell_length_c                    14.793102
_cell_angle_alpha                 108.844437
_cell_angle_beta                  108.845298
_cell_angle_gamma                 109.245632
_cell_volume                      2578.62959579

loop_
_atom_site_label
_atom_site_type_symbol
_atom_type_description
_atom_site_fract_x
_atom_site_fract_y
_atom_site_fract_z
_atom_type_partial_charge
C1    C     C_R   0.908935 0.197109 0.998288 0.469806
C2    C     C_R   0.838939 0.958124 0.928635 -0.167174
C3    C     C_R   0.169557 0.058463 0.763198 -0.129752
C4    C     C_R   0.652326 0.783937 0.045791 -0.060366
C5    C     C_R   0.074227 0.003171 0.764083 -0.187511
C6    C     C_R   0.744139 0.825376 0.034809 -0.201554
C7    C     C_R   0.757747 0.197904 0.255519 -0.089911
C8    C     C_R   0.373927 0.823103 0.916082 -0.106148
C9    C     C_R   0.853201 0.291998 0.336855 -0.147015
C10   C     C_R   0.324958 0.724656 0.821986 -0.234122
C11   C     C_R   0.953625 0.298243 0.352881 0.109982
C12   C     C_R   0.019282 0.742337 0.928417 0.566376
C13   C     C_R   0.255701 0.709546 0.721672 0.122510
C14   C     C_R   0.958711 0.209398 0.289705 -0.214921
C15   C     C_R   0.249586 0.799260 0.714537 -0.093906
C16   C     C_R   0.297944 0.800576 0.206039 0.505162
C17   C     C_R   0.685777 0.240015 0.775556 0.580781
C18   C     C_R   0.863054 0.116873 0.205593 -0.156136
C19   C     C_R   0.308334 0.900623 0.806938 -0.153311
C20   C     C_R   0.762512 0.110562 0.188995 0.086097
C21   C     C_R   0.368683 0.913052 0.909223 -0.084257
C22   C     C_R   0.085504 0.405266 0.540701 -0.214913
C23   C     C_R   0.301230 0.860524 0.300961 -0.114995
C24   C     C_R   0.171655 0.589703 0.524047 -0.241062
C25   C     C_R   0.129061 0.505000 0.630679 0.045154
C26   C     C_R   0.092577 0.492576 0.428931 0.059133
C27   C     C_R   0.186120 0.599749 0.625985 0.031983
C28   C     C_R   0.052501 0.397958 0.438651 0.031002
C29   C     C_R   0.070093 0.032467 0.862249 0.142148
C30   C     C_R   0.735894 0.794244 0.931170 0.140641
C31   C     C_R   0.260651 0.166214 0.959428 -0.115899
C32   C     C_R   0.542695 0.676891 0.849641 -0.142699
C33   C     C_R   0.127361 0.044343 0.294588 -0.166318
C34   C     C_R   0.677687 0.212924 0.672425 -0.110707
C35   C     C_R   0.805704 0.962990 0.598104 -0.158327
C36   C     C_R   0.228707 0.048412 0.321689 -0.090405
C37   C     C_R   0.717357 0.981167 0.590062 -0.092491
C38   C     C_R   0.287041 0.053121 0.422381 -0.133889
C39   C     C_R   0.685238 0.028182 0.524366 -0.156033
C40   C     C_R   0.224616 0.407364 0.973079 -0.132158
C41   C     C_R   0.788657 0.588849 0.097632 -0.135527
C42   C     C_R   0.241792 0.055466 0.494050 0.515256
C43   C     C_R   0.741677 0.053478 0.466753 0.532427
C44   C     C_R   0.142641 0.055487 0.465725 -0.139557
C45   C     C_R   0.325397 0.496975 0.047478 0.008245
C46   C     C_R   0.829371 0.034602 0.477770 -0.146339
C47   C     C_R   0.085227 0.048539 0.366327 -0.230392
C48   C     C_R   0.861221 0.989837 0.542836 -0.236768
C49   C     C_R   0.487137 0.136996 0.540265 -0.253574
C50   C     C_R   0.491483 0.953724 0.417248 -0.223104
C51   C     C_R   0.583507 0.130717 0.569393 0.109312
C52   C     C_R   0.394897 0.957494 0.390733 0.080537
C53   C     C_R   0.586242 0.039523 0.504730 0.102940
C54   C     C_R   0.390877 0.049436 0.450279 0.108045
C55   C     C_R   0.262780 0.140036 0.860713 -0.103681
C56   C     C_R   0.700216 0.497877 0.072267 -0.007118
C57   C     C_R   0.551082 0.712335 0.953262 -0.117958
C58   C     C_R   0.825335 0.857921 0.918489 -0.011139
C59   C     C_R   0.969957 0.972937 0.864136 0.002303
C60   C     C_R   0.164623 0.113105 0.960315 -0.128894
C61   C     C_R   0.635017 0.717955 0.838471 -0.124374
C62   C     C_R   0.888090 0.817824 0.884405 0.074411
C63   C     C_R   0.918722 0.021867 0.912131 0.079272
C64   C     C_R   0.060087 0.588465 0.314653 -0.113834
C65   C     C_R   0.015539 0.412317 0.705872 -0.111885
C66   C     C_3   0.504596 0.394656 0.052394 -0.181025
C67   C     C_R   0.045865 0.495907 0.325822 0.065317
C68   C     C_3   0.531742 0.594840 0.107285 -0.169851
C69   C     C_3   0.437675 0.425896 0.977429 -0.162141
C70   C     C_3   0.599070 0.563722 0.182424 -0.140246
C71   C     C_3   0.428111 0.495001 0.072629 0.178698
C72   C     C_3   0.607091 0.495009 0.086025 0.180527
C73   C     C_3   0.493293 0.463252 0.148191 -0.135748
C74   C     C_3   0.540559 0.525604 0.011348 -0.125262
C75   C     C_R   0.314827 0.589036 0.064132 -0.137303
C76   C     C_R   0.701308 0.409010 0.008710 -0.073456
C77   C     C_R   0.975990 0.407805 0.222211 -0.174301
C78   C     C_R   0.084581 0.503428 0.707476 0.031158
C79   C     C_R   0.102592 0.590306 0.794787 -0.138052
C80   C     C_R   0.208928 0.800203 0.301314 -0.197008
C81   C     C_R   0.781606 0.251783 0.686299 -0.207607
C82   C     C_R   0.001508 0.198431 0.907772 -0.243510
C83   C     C_R   0.924445 0.739561 0.016811 -0.199502
C84   C     C_R   0.945729 0.135655 0.942975 -0.016899
C85   C     C_R   0.935626 0.761919 0.934965 -0.075500
C86   C     C_2   0.662226 0.012860 0.103022 0.959866
C87   C     C_2   0.423659 0.018814 0.008652 1.053534
C88   C     C_2   0.270420 0.048018 0.242895 1.013404
C89   C     C_R   0.937252 0.864954 0.833586 -0.149617
C90   C     C_2   0.659299 0.946392 0.648173 1.024550
H1    H     H_    0.171705 0.036082 0.687156 0.168916
H2    H     H_    0.197006 0.790756 0.638310 0.104650
H3    H     H_    0.868083 0.051513 0.153234 0.121068
H4    H     H_    0.302339 0.967893 0.798831 0.135092
H5    H     H_    0.052763 0.331166 0.544496 0.128223
H6    H     H_    0.214041 0.660450 0.518616 0.128654
H7    H     H_    0.004096 0.937029 0.688626 0.104261
H8    H     H_    0.821689 0.882234 0.107097 0.098110
H9    H     H_    0.471190 0.437363 0.203815 0.123280
H10   H     H_    0.561399 0.544729 0.952094 0.140011
H11   H     H_    0.163876 0.134337 0.037249 0.134158
H12   H     H_    0.659905 0.810843 0.126321 0.131415
H13   H     H_    0.627065 0.694525 0.757772 0.128023
H14   H     H_    0.007445 0.046176 0.344691 0.139807
H15   H     H_    0.928679 0.974859 0.549169 0.134997
H16   H     H_    0.081131 0.039854 0.218154 0.155607
H17   H     H_    0.831452 0.926828 0.646842 0.163260
H18   H     H_    0.108211 0.057934 0.520142 0.118432
H19   H     H_    0.872871 0.054300 0.434717 0.133130
H20   H     H_    0.486379 0.208089 0.589823 0.144816
H21   H     H_    0.492906 0.881760 0.370290 0.135037
H22   H     H_    0.966999 0.826953 0.785166 0.144566
H23   H     H_    0.332964 0.227464 0.035506 0.144510
H24   H     H_    0.787484 0.984694 0.951274 0.244772
H25   H     H_    0.370932 0.370051 0.892456 0.124577
H26   H     H_    0.667667 0.620026 0.266346 0.117016
H27   H     H_    0.498626 0.314031 0.031950 0.158926
H28   H     H_    0.541938 0.677318 0.134044 0.113407
H29   H     H_    0.205470 0.323677 0.938749 0.123200
H30   H     H_    0.815153 0.671388 0.153609 0.103732
H31   H     H_    0.109522 0.671614 0.378093 0.094443
H32   H     H_    0.993861 0.329407 0.657608 0.097679
H33   H     H_    0.378559 0.671885 0.114722 0.151716
H34   H     H_    0.464521 0.619502 0.778035 0.125392
H35   H     H_    0.649699 0.326357 0.985802 0.164459
H36   H     H_    0.954458 0.325185 0.197545 0.147453
H37   H     H_    0.158965 0.672751 0.828486 0.195187
H38   H     H_    0.181566 0.826448 0.359266 0.132042
H39   H     H_    0.806215 0.246000 0.624556 0.149304
H40   H     H_    0.020421 0.171142 0.842974 0.150366
H41   H     H_    0.868513 0.744586 0.046097 0.141865
H42   H     H_    0.336979 0.180780 0.859484 0.137324
H43   H     H_    0.479822 0.681627 0.962383 0.114607
H44   H     H_    0.797987 0.212172 0.030946 0.325933
H45   H     H_    0.680369 0.193616 0.243382 0.165333
H46   H     H_    0.015329 0.713990 0.793582 0.279907
H47   H     H_    0.571520 0.905334 0.942253 0.327547
H48   H     H_    0.474008 0.106905 0.938357 0.293139
H49   H     H_    0.410230 0.914885 0.209100 0.371882
H50   H     H_    0.535125 0.156447 0.733233 0.331822
H51   H     H_    0.234653 0.001648 0.085823 0.356704
H52   H     H_    0.630302 0.855978 0.721880 0.330912
H53   H     H_    0.342625 0.029110 0.590448 0.319582
H54   H     H_    0.657324 0.114624 0.403154 0.332239
H55   H     H_    0.415152 0.827978 0.993715 0.211755
H56   H     H_    0.849239 0.360174 0.387234 0.126393
H57   H     H_    0.328913 0.656054 0.828870 0.123812
H58   H     H_    0.036225 0.213939 0.302277 0.134810
N1    N     N_R   0.947560 0.293820 0.002910 -0.103990
N2    N     N_R   0.789450 0.443190 0.997090 -0.052074
N3    N     N_R   0.945970 0.443180 0.152110 -0.053486
N4    N     N_R   0.054030 0.556820 0.847890 -0.054186
N5    N     N_R   0.151530 0.706170 0.208880 -0.065766
N6    N     N_R   0.848470 0.293830 0.791120 -0.067387
N7    N     N_R   0.004980 0.293810 0.946140 -0.059811
N8    N     N_R   0.995020 0.706190 0.053860 -0.066655
N9    N     N_R   0.052440 0.706180 0.997090 -0.069334
N10   N     N_R   0.208960 0.706170 0.152110 -0.072242
N11   N     N_R   0.791040 0.293830 0.847890 -0.081199
N12   N     N_R   0.154330 0.443160 0.946140 -0.039253
N13   N     N_R   0.845670 0.556840 0.053860 -0.045907
N14   N     N_R   0.002190 0.556820 0.208880 -0.038027
N15   N     N_R   0.997810 0.443180 0.791120 -0.048392
N16   N     N_R   0.210550 0.556810 0.002910 -0.034413
Ni1   Ni    Ni4+2 0.869690 0.369690 0.000000 0.234436
Ni2   Ni    Ni4+2 0.130310 0.630310 0.000000 0.274739
Ni3   Ni    Ni4+2 0.001390 0.369680 0.869810 0.196936
Ni4   Ni    Ni4+2 0.998610 0.630320 0.130190 0.200454
O1    O     O_3   0.821263 0.156657 0.013758 -0.763098
O2    O     O_R   0.197229 0.997532 0.131828 -0.809052
O3    O     O_2   0.599247 0.980656 0.665553 -0.635805
O4    O     O_R   0.673822 0.873626 0.683717 -0.822324
O5    O     O_3   0.289688 0.055136 0.590894 -0.807877
O6    O     O_3   0.714611 0.096715 0.399097 -0.758682
O7    O     O_3   0.070068 0.766139 0.870954 -0.780730
O8    O     O_2   0.597836 0.964755 0.126852 -0.642783
O9    O     O_R   0.641123 0.975842 0.995021 -0.788124
O10   O     O_2   0.427962 0.021527 0.093322 -0.559844
O11   O     O_R   0.472113 0.116423 0.008543 -0.816688
O12   O     O_3   0.358035 0.837061 0.159320 -0.762410
O13   O     O_3   0.604825 0.204250 0.801419 -0.774735
O14   O     O_2   0.367961 0.093028 0.274488 -0.614973

loop_
_geom_bond_atom_site_label_1
_geom_bond_atom_site_label_2
_ccdc_geom_bond_type
C58   C62   A    
C21   C87   S    
C16   O12   S    
C56   C76   A    
C41   N13   A    
C45   C71   S    
C2    H24   S    
C22   H5    S    
C14   C18   A    
C8    H55   S    
C67   C77   A    
C24   C27   A    
C77   N3    A    
C80   N5    A    
C36   C88   S    
C1    C84   A    
C15   C19   A    
C73   H9    S    
C49   H20   S    
C89   H22   S    
C34   C51   S    
C37   C90   S    
C75   H33   S    
C26   C67   S    
C6    H8    S    
N8    N9    A    
C61   H13   S    
C24   C26   A    
C32   C61   A    
C38   C42   A    
C24   H6    S    
C43   O6    S    
C66   C69   S    
H48   O11   S    
C68   C74   S    
C64   H31   S    
C62   C89   A    
C14   H58   S    
C9    H56   S    
C33   C36   A    
C64   N14   A    
C3    H1    S    
C59   C89   A    
N12   Ni3   S    
C1    O1    S    
N5    N10   A    
C69   C71   S    
C32   H34   S    
H51   O2    S    
H49   O12   S    
C68   H28   S    
C15   H2    S    
C3    C55   A    
C66   C72   S    
C29   C59   S    
N7    Ni3   S    
C56   C72   S    
H44   O1    S    
C20   C86   S    
C4    C57   A    
C50   C52   A    
C10   C13   A    
C1    N1    A    
C65   C78   A    
C34   C81   A    
C12   N9    A    
C82   H40   S    
C86   O8    D    
C44   C47   A    
C10   H57   S    
H46   O7    S    
C22   C28   A    
C76   H35   S    
C57   H43   S    
C42   C44   A    
C32   C57   A    
C35   C48   A    
C52   C54   A    
C5    C29   A    
C44   H18   S    
C40   C45   A    
C62   C85   S    
C46   C48   A    
C50   C53   A    
C88   O2    S    
C16   N10   A    
C25   C78   S    
N4    N15   A    
C64   C67   A    
N1    Ni1   S    
C72   C74   S    
C71   C73   S    
C78   C79   A    
C74   H10   S    
C83   N8    A    
C80   H38   S    
C49   C51   A    
N3    Ni1   S    
C66   C73   S    
C22   C25   A    
C86   O9    S    
C81   N6    A    
N11   Ni1   S    
C4    H12   S    
C75   N16   A    
C51   C53   A    
C31   C60   A    
C90   O3    D    
N15   Ni3   S    
C41   C56   A    
C7    H45   S    
N4    Ni2   S    
C88   O14   D    
C48   H15   S    
C38   C54   S    
C29   C60   A    
C76   N2    A    
N3    N14   A    
C65   N15   A    
C70   C73   S    
C8    C21   A    
C69   C74   S    
C65   H32   S    
C9    C11   A    
C19   H4    S    
C12   O7    S    
N14   Ni4   S    
C82   N7    A    
C12   C85   A    
C4    C6    A    
C83   C85   A    
C5    H7    S    
C7    C20   A    
C16   C23   A    
C82   C84   A    
C13   C15   A    
N5    Ni4   S    
C81   H39   S    
C23   C80   A    
N6    Ni3   S    
C46   H19   S    
C17   C34   A    
H53   O5    S    
H54   O6    S    
C60   H11   S    
N12   N16   A    
C2    C63   A    
N10   Ni2   S    
H52   O4    S    
C35   C37   A    
C7    C9    A    
N2    N13   A    
C79   H37   S    
C69   H25   S    
C47   H14   S    
C66   H27   S    
C6    C30   A    
C26   C28   A    
C40   N12   A    
C8    C10   A    
C33   H16   S    
C3    C5    A    
C42   O5    S    
N9    Ni2   S    
C39   C43   A    
C2    C58   A    
C25   C27   A    
C59   C63   A    
H50   O13   S    
C63   C84   S    
C45   C75   A    
C70   H26   S    
C36   C38   A    
C83   H41   S    
N1    N7    A    
N6    N11   A    
C37   C39   A    
C87   O10   D    
N2    Ni1   S    
C23   C52   S    
C39   C53   S    
C11   C28   S    
C68   C71   S    
C33   C47   A    
C30   C58   S    
N16   Ni2   S    
C50   H21   S    
C11   C14   A    
C18   C20   A    
C41   H30   S    
C17   N11   A    
C43   C46   A    
N13   Ni4   S    
C35   H17   S    
C87   O11   S    
C17   O13   S    
C40   H29   S    
H47   O9    S    
C68   C70   S    
C55   H42   S    
C30   C61   A    
C90   O4    S    
C18   H3    S    
N8    Ni4   S    
C13   C27   S    
C70   C72   S    
C31   C55   A    
C31   H23   S    
C77   H36   S    
C49   C54   A    
C79   N4    A    
C19   C21   A    
