data_str_m9_o12_o2_f0_sra.sym.179
_audit_creation_date              2012-12-11T14:39:27-0500
_audit_creation_method            fapswitch 2.2
_symmetry_space_group_name_H-M    P1
_symmetry_Int_Tables_number       1
_space_group_crystal_system       triclinic
_cell_length_a                    7.21651
_cell_length_b                    14.079854
_cell_length_c                    16.302609
_cell_angle_alpha                 90.000025
_cell_angle_beta                  97.322665
_cell_angle_gamma                 89.999946
_cell_volume                      1642.95586275

loop_
_atom_site_label
_atom_site_type_symbol
_atom_type_description
_atom_site_fract_x
_atom_site_fract_y
_atom_site_fract_z
_atom_type_partial_charge
O1    O     O_R   0.525340 0.338340 0.164530 -0.538756
O2    O     O_R   0.474660 0.661660 0.835470 -0.538755
O3    O     O_R   0.974660 0.838340 0.835470 -0.538755
O4    O     O_R   0.025340 0.161660 0.164530 -0.538755
O5    O     O_R   0.253520 0.352000 0.336710 -0.543773
O6    O     O_R   0.746480 0.648000 0.663290 -0.543773
O7    O     O_R   0.246480 0.852000 0.663290 -0.543772
O8    O     O_R   0.753520 0.148000 0.336710 -0.543772
O9    O     O_R   0.083330 0.168380 0.337300 -0.533153
O10   O     O_R   0.916670 0.831620 0.662700 -0.533153
O11   O     O_R   0.416670 0.668380 0.662700 -0.533152
O12   O     O_R   0.583330 0.331620 0.337300 -0.533152
C1    C     C_R   0.432275 0.368783 0.363633 0.693958
C2    C     C_R   0.567725 0.631216 0.636367 0.693958
C3    C     C_R   0.067724 0.868783 0.636366 0.693959
C4    C     C_R   0.932275 0.131217 0.363633 0.693958
O13   O     O_R   0.195840 0.349670 0.165140 -0.543425
O14   O     O_R   0.804160 0.650330 0.834860 -0.543425
O15   O     O_R   0.304160 0.849670 0.834860 -0.543425
O16   O     O_R   0.695840 0.150330 0.165140 -0.543425
C5    C     C_R   0.357222 0.372050 0.137733 0.740132
C6    C     C_R   0.642778 0.627950 0.862267 0.740132
C7    C     C_R   0.142778 0.872050 0.862267 0.740133
C8    C     C_R   0.857222 0.127950 0.137733 0.740133
O17   O     O_3   0.387830 0.193120 0.250910 -0.375359
O18   O     O_3   0.612170 0.806880 0.749090 -0.375359
O19   O     O_3   0.112170 0.693120 0.749090 -0.375360
O20   O     O_3   0.887830 0.306880 0.250910 -0.375360
V1    V     V_3+5 0.113010 0.264540 0.250910 1.422433
V2    V     V_3+5 0.886990 0.735460 0.749090 1.422433
V3    V     V_3+5 0.386990 0.764540 0.749090 1.422434
V4    V     V_3+5 0.613010 0.235460 0.250910 1.422434
C9    C     C_R   0.068068 0.196376 0.527644 -0.192961
C10   C     C_R   0.931932 0.803624 0.472356 -0.192961
C11   C     C_R   0.431952 0.696377 0.472356 -0.192962
C12   C     C_R   0.568048 0.303623 0.527644 -0.192962
C13   C     C_R   0.133208 0.230008 0.606379 -0.104798
C14   C     C_R   0.866792 0.769992 0.393621 -0.104798
C15   C     C_R   0.366815 0.730011 0.393621 -0.104800
C16   C     C_R   0.633185 0.269989 0.606379 -0.104800
C17   C     C_R   0.166024 0.167240 0.673046 0.049332
C18   C     C_R   0.833975 0.832760 0.326954 0.049332
C19   C     C_R   0.333995 0.667243 0.326954 0.049337
C20   C     C_R   0.666005 0.332757 0.673046 0.049337
C21   C     C_R   0.132597 0.070127 0.659876 -0.200828
C22   C     C_R   0.867403 0.929873 0.340124 -0.200828
C23   C     C_R   0.367418 0.570130 0.340123 -0.200829
C24   C     C_R   0.632582 0.429870 0.659877 -0.200829
C25   C     C_R   0.067768 0.034194 0.580207 0.062986
C26   C     C_R   0.932232 0.965806 0.419792 0.062986
C27   C     C_R   0.432241 0.534195 0.419792 0.062983
C28   C     C_R   0.567759 0.465805 0.580208 0.062983
C29   C     C_R   0.035029 0.098368 0.512954 0.054039
C30   C     C_R   0.964971 0.901632 0.487046 0.054039
C31   C     C_R   0.464982 0.598369 0.487046 0.054039
C32   C     C_R   0.535018 0.401631 0.512954 0.054039
C33   C     C_R   0.032531 0.936017 0.567014 -0.156428
C34   C     C_R   0.967469 0.063983 0.432985 -0.156427
C35   C     C_R   0.467468 0.436017 0.432985 -0.156425
C36   C     C_R   0.532532 0.563983 0.567015 -0.156425
H1    H     H_    0.042990 0.248421 0.478675 0.126669
H2    H     H_    0.957010 0.751579 0.521325 0.126669
H3    H     H_    0.457034 0.748422 0.521325 0.126669
H4    H     H_    0.542966 0.251577 0.478675 0.126669
H5    H     H_    0.157242 0.305501 0.615062 0.158018
H6    H     H_    0.842758 0.694499 0.384938 0.158018
H7    H     H_    0.342786 0.805504 0.384939 0.158017
H8    H     H_    0.657214 0.194495 0.615061 0.158017
H9    H     H_    0.156786 0.023172 0.712738 0.094420
H10   H     H_    0.843214 0.976828 0.287262 0.094420
H11   H     H_    0.343226 0.523175 0.287261 0.094418
H12   H     H_    0.656774 0.476824 0.712739 0.094418
H13   H     H_    0.137859 0.066803 0.056131 0.156877
H14   H     H_    0.862141 0.933197 0.943869 0.156876
H15   H     H_    0.362140 0.566801 0.943867 0.156877
H16   H     H_    0.637860 0.433198 0.056133 0.156877
C37   C     C_2   0.149869 0.942281 0.930407 -0.324883
C38   C     C_2   0.850131 0.057719 0.069593 -0.324883
C39   C     C_2   0.350130 0.442281 0.069593 -0.324883
C40   C     C_2   0.649870 0.557719 0.930407 -0.324883
C41   C     C_2   0.996174 0.965543 0.965579 -0.098910
C42   C     C_2   0.003826 0.034457 0.034420 -0.098910
C43   C     C_2   0.503826 0.465543 0.034421 -0.098911
C44   C     C_2   0.496173 0.534457 0.965579 -0.098911
H17   H     H_    0.716481 0.025433 0.047085 0.128008
H18   H     H_    0.283519 0.974567 0.952915 0.128008
H19   H     H_    0.783520 0.525435 0.952917 0.128008
H20   H     H_    0.216479 0.474565 0.047083 0.128008
C45   C     C_2   0.765823 0.798061 0.242868 0.420079
H21   H     H_    0.740079 0.847945 0.191902 0.048354
O21   O     O_2   0.737966 0.713612 0.229331 -0.542035
C46   C     C_2   0.234177 0.201939 0.757132 0.420079
H22   H     H_    0.259921 0.152055 0.808098 0.048355
O22   O     O_2   0.262033 0.286388 0.770669 -0.542035
C47   C     C_2   0.734159 0.298056 0.757131 0.420083
H23   H     H_    0.759905 0.347939 0.808098 0.048355
O23   O     O_2   0.762016 0.213606 0.770667 -0.542034
C48   C     C_2   0.265841 0.701944 0.242869 0.420083
H24   H     H_    0.240094 0.652061 0.191902 0.048355
O24   O     O_2   0.237984 0.786393 0.229333 -0.542034

loop_
_geom_bond_atom_site_label_1
_geom_bond_atom_site_label_2
_ccdc_geom_bond_type
O1    C5    A    
O13   V1    S    
O3    C7    A    
C47   H23   S    
C19   C48   S    
C40   C44   D    
O15   V3    S    
C41   C42   S    
C26   C30   A    
O20   V1    S    
O9    C4    A    
C14   C18   A    
C40   H19   S    
O10   C3    A    
O4    C8    A    
O11   C2    A    
H15   C44   S    
C10   H2    S    
C25   C33   A    
C18   C22   A    
O10   V2    S    
C28   C36   A    
C14   H6    S    
C13   H5    S    
O2    C6    A    
O14   V2    S    
C37   C41   D    
C45   O21   D    
O5    C1    A    
O4    V1    S    
O9    V1    S    
O17   V4    S    
O7    C3    A    
O11   V3    S    
O18   V3    S    
O8    C4    A    
C10   C14   A    
C31   C36   A    
O12   V4    S    
O19   V2    S    
C3    C33   S    
C24   H12   S    
H16   C43   S    
C39   H20   S    
O5    V1    S    
C9    C29   A    
O7    V3    S    
C21   H9    S    
O8    V4    S    
O16   C8    A    
C12   C16   A    
C24   C28   A    
O15   C7    A    
C23   C27   A    
C11   C31   A    
O1    V4    S    
O13   C5    A    
O2    V3    S    
C26   C34   A    
O3    V2    S    
C11   C15   A    
C12   C32   A    
O6    C2    A    
C38   C42   D    
C43   C44   S    
C21   C25   A    
C5    C39   S    
C46   O22   D    
C4    C34   S    
C7    C37   S    
C23   H11   S    
C38   H17   S    
C8    C38   S    
O6    V2    S    
C37   H18   S    
C10   C30   A    
C48   O24   D    
C27   C35   A    
H14   C41   S    
H13   C42   S    
O16   V4    S    
O14   C6    A    
C15   H7    S    
C15   C19   A    
C29   C34   A    
C47   O23   D    
C1    C35   S    
C2    C36   S    
C22   C26   A    
C32   C35   A    
C18   C45   S    
C6    C40   S    
C20   C47   S    
C39   C43   D    
C25   C29   A    
C46   H22   S    
C27   C31   A    
C13   C17   A    
C9    C13   A    
C22   H10   S    
C28   C32   A    
C16   C20   A    
C17   C46   S    
O12   C1    A    
C9    H1    S    
C48   H24   S    
C16   H8    S    
C17   C21   A    
C11   H3    S    
C45   H21   S    
C12   H4    S    
C19   C23   A    
C20   C24   A    
C30   C33   A    
