data_str_m2_o9_o21_f0_pcu.sym.82
_audit_creation_date              2013-03-05T16:48:55-0500
_audit_creation_method            fapswitch 2.2
_symmetry_space_group_name_H-M    P1
_symmetry_Int_Tables_number       1
_space_group_crystal_system       triclinic
_cell_length_a                    10.923971
_cell_length_b                    10.88707
_cell_length_c                    12.733432
_cell_angle_alpha                 92.016678
_cell_angle_beta                  91.317292
_cell_angle_gamma                 88.90126
_cell_volume                      1512.79391721

loop_
_atom_site_label
_atom_site_type_symbol
_atom_site_description
_atom_site_fract_x
_atom_site_fract_y
_atom_site_fract_z
_atom_type_partial_charge
O1    O     O_R   0.313000 0.493330 0.412070 -0.576655
O2    O     O_R   0.687000 0.506670 0.587930 -0.576674
O3    O     O_R   0.326280 0.506660 0.587930 -0.586788
O4    O     O_R   0.673720 0.493340 0.412070 -0.586789
C1    C     C_R   0.261946 0.498207 0.502095 0.789556
C2    C     C_R   0.738054 0.501788 0.497906 0.789582
O5    O     O_R   0.493370 0.312980 0.412070 -0.582202
O6    O     O_R   0.506630 0.687020 0.587930 -0.582199
O7    O     O_R   0.506650 0.326310 0.587930 -0.575131
O8    O     O_R   0.493350 0.673690 0.412070 -0.575128
C3    C     C_R   0.502548 0.261920 0.501354 0.798221
C4    C     C_R   0.497445 0.738080 0.498646 0.798229
Cu1   Cu    Cu3+1 0.492140 0.492110 0.395880 0.980168
Cu2   Cu    Cu3+1 0.507860 0.507890 0.604120 0.980145
H1    H     H_    0.727624 0.260922 0.950534 0.151701
H2    H     H_    0.272415 0.738964 0.049480 0.151699
C5    C     C_R   0.753283 0.228948 0.784256 0.367004
C6    C     C_R   0.246743 0.770968 0.215752 0.367074
C7    C     C_R   0.701801 0.178418 0.690965 -0.189491
C8    C     C_R   0.298195 0.821543 0.309036 -0.189468
H3    H     H_    0.750711 0.181818 0.618077 0.165170
H4    H     H_    0.249282 0.818133 0.381922 0.165138
C9    C     C_R   0.587551 0.122424 0.690964 -0.021564
C10   C     C_R   0.412429 0.877572 0.309036 -0.021584
C11   C     C_R   0.525060 0.114482 0.785348 -0.143204
C12   C     C_R   0.474918 0.885523 0.214650 -0.143184
H5    H     H_    0.437971 0.068542 0.786098 0.160320
H6    H     H_    0.561991 0.931492 0.213898 0.160321
C13   C     C_R   0.575137 0.163735 0.879269 0.419709
C14   C     C_R   0.424862 0.836235 0.120733 0.419713
C15   C     C_R   0.688673 0.222830 0.878099 -0.314280
C16   C     C_R   0.311352 0.777089 0.121909 -0.314291
C17   C     C_R   0.533465 0.935982 0.589158 -0.225092
C18   C     C_R   0.466508 0.064019 0.410843 -0.225098
H7    H     H_    0.562592 0.886827 0.658317 0.173718
H8    H     H_    0.437383 0.113175 0.341684 0.173715
C19   C     C_R   0.496187 0.871805 0.497030 -0.092679
C20   C     C_R   0.503792 0.128196 0.502970 -0.092679
C21   C     C_R   0.461710 0.936801 0.406736 0.044630
C22   C     C_R   0.538263 0.063200 0.593265 0.044615
H9    H     H_    0.220179 0.492462 0.998979 0.164548
H10   H     H_    0.779833 0.507277 0.001015 0.164495
C23   C     C_R   0.218018 0.397024 0.847857 -0.121837
C24   C     C_R   0.782026 0.602823 0.152089 -0.121904
H11   H     H_    0.263825 0.315325 0.876396 0.140473
H12   H     H_    0.736251 0.684516 0.123507 0.140453
C25   C     C_R   0.180437 0.401368 0.742389 0.032232
C26   C     C_R   0.819597 0.598541 0.257563 0.032225
H13   H     H_    0.196333 0.322064 0.690377 0.128578
H14   H     H_    0.803723 0.677883 0.309536 0.128627
C27   C     C_R   0.118762 0.506235 0.705247 0.142430
C28   C     C_R   0.881239 0.493684 0.294759 0.142435
C29   C     C_R   0.096245 0.606633 0.774753 -0.171312
C30   C     C_R   0.903726 0.393233 0.225306 -0.171208
H15   H     H_    0.046801 0.687263 0.747911 0.135470
H16   H     H_    0.953145 0.312608 0.252191 0.135467
C31   C     C_R   0.133498 0.601768 0.880023 -0.092388
C32   C     C_R   0.866477 0.398033 0.120032 -0.092367
H17   H     H_    0.113171 0.678683 0.933108 0.168544
H18   H     H_    0.886780 0.321072 0.066989 0.168545
C33   C     C_R   0.193611 0.496812 0.916844 -0.068890
C34   C     C_R   0.806400 0.502979 0.083154 -0.068989
C35   C     C_R   0.935202 0.509814 0.592335 -0.136301
C36   C     C_R   0.064798 0.490171 0.407669 -0.136296
H19   H     H_    0.885720 0.515841 0.665256 0.194728
H20   H     H_    0.114280 0.484134 0.334747 0.194836
C37   C     C_R   0.871660 0.503638 0.495426 -0.124342
C38   C     C_R   0.128340 0.496349 0.504577 -0.124386
C39   C     C_R   0.937745 0.494996 0.401455 0.007071
C40   C     C_R   0.062256 0.504980 0.598549 0.007116
N1    N     N_1   0.480320 0.480250 0.239400 -0.162735
N2    N     N_1   0.519680 0.519750 0.760600 -0.162745
C41   C     C_2   0.475646 0.458985 0.031886 -0.294453
C42   C     C_2   0.524365 0.541007 0.968114 -0.294479
C43   C     C_1   0.521414 0.527327 0.852532 0.222812
C44   C     C_1   0.478591 0.472669 0.147468 0.222883
H21   H     H_    0.568420 0.621389 0.002827 0.189885
H22   H     H_    0.431593 0.378601 0.997173 0.189881
N3    N     N_R   0.872492 0.282208 0.783775 0.114560
O9    O     O_R   0.910434 0.353115 0.861703 -0.408791
O10   O     O_R   0.945646 0.256874 0.706446 -0.408036
N4    N     N_R   0.127564 0.717649 0.216237 0.114518
O11   O     O_R   0.089779 0.646457 0.138433 -0.408876
O12   O     O_R   0.054319 0.743125 0.293476 -0.408038
O13   O     O_3   0.512661 0.150068 0.970891 -0.717118
H23   H     H_    0.561789 0.185713 0.030528 0.321769
O14   O     O_3   0.487332 0.849915 0.029111 -0.717110
H24   H     H_    0.438216 0.814246 0.969476 0.321773

loop_
_geom_bond_atom_site_label_1
_geom_bond_atom_site_label_2
_geom_bond_distance
_ccdc_geom_bond_type
C32   C34   1.396959 A    
C20   C22   1.411239 A    
O14   H24   0.991861 S    
C35   H19   1.084485 S    
C41   C42   1.352467 D    
H9    C33   1.081340 S    
C25   H13   1.083287 S    
O13   H23   0.991860 S    
O5    C3    1.284016 A    
O4    Cu1   1.989790 S    
O1    C1    1.285261 A    
C36   C38   1.401995 A    
C7    H3    1.083616 S    
C10   C12   1.401865 A    
N2    C43   1.170356 T    
N1    C44   1.170357 T    
C17   H7    1.084850 S    
C31   H17   1.080443 S    
C32   H18   1.080429 S    
C9    C22   1.476258 S    
C5    N3    1.435842 S    
C10   C21   1.476269 S    
C4    C19   1.456537 S    
C28   C39   1.479009 S    
C5    C7    1.401854 A    
C8    C10   1.399465 A    
C28   C30   1.403596 A    
C42   H21   1.082578 S    
C41   H22   1.082582 S    
C27   C40   1.479034 S    
H10   C34   1.081342 S    
C13   O13   1.379034 S    
C26   H14   1.083280 S    
Cu1   Cu2   2.652956 S    
C13   C15   1.408736 A    
O2    C2    1.285256 A    
C1    C38   1.461119 S    
C24   H12   1.082086 S    
C30   H16   1.083322 S    
C29   H15   1.083327 S    
C11   C13   1.397525 A    
C35   C37   1.402001 A    
C17   C22   1.386124 A    
C42   C43   1.473731 S    
C18   C21   1.386131 A    
O4    C2    1.287267 A    
N3    O10   1.301101 A    
C29   C31   1.394385 A    
C25   C27   1.405320 A    
Cu1   N1    1.993543 S    
C24   C34   1.398383 A    
C17   C19   1.400518 A    
C27   C29   1.403617 A    
C36   H20   1.084486 S    
C3    C20   1.456531 S    
C7    C9    1.399456 A    
O7    Cu2   1.980631 S    
O7    C3    1.285803 A    
C35   C40   1.388463 A    
O5    Cu1   1.968026 S    
O6    C4    1.284020 A    
C36   C39   1.388452 A    
H1    C15   1.079611 S    
C23   H11   1.082097 S    
O3    Cu2   1.989793 S    
O8    C4    1.285801 A    
C2    C37   1.461119 S    
C8    H4    1.083619 S    
C12   C14   1.397535 A    
N4    O12   1.301118 A    
C11   H5    1.083664 S    
C5    C15   1.405937 A    
C41   C44   1.473732 S    
O1    Cu1   1.972201 S    
C23   C33   1.398391 A    
C30   C32   1.394373 A    
O6    Cu2   1.968026 S    
C18   C20   1.400523 A    
Cu2   N2    1.993543 S    
O3    C1    1.287261 A    
O8    Cu1   1.980631 S    
C31   C33   1.396965 A    
H2    C16   1.079628 S    
C12   H6    1.083666 S    
C19   C21   1.411246 A    
C14   C16   1.408744 A    
C6    N4    1.435818 S    
C18   H8    1.084851 S    
C6    C8    1.401845 A    
C9    C11   1.401859 A    
O2    Cu2   1.972200 S    
N3    O9    1.300703 A    
C26   C28   1.405305 A    
C6    C16   1.405924 A    
C38   C40   1.411031 A    
N4    O11   1.300789 A    
C37   C39   1.411022 A    
C14   O14   1.379034 S    
C23   C25   1.397395 A    
C24   C26   1.397391 A    
