data_str_m9_o2_o23_f0_sra.sym.78
_audit_creation_date              2012-12-11T16:31:33-0500
_audit_creation_method            fapswitch 2.2
_symmetry_space_group_name_H-M    P1
_symmetry_Int_Tables_number       1
_space_group_crystal_system       triclinic
_cell_length_a                    7.069431
_cell_length_b                    18.676244
_cell_length_c                    19.824508
_cell_angle_alpha                 68.296978
_cell_angle_beta                  90.673672
_cell_angle_gamma                 91.131382
_cell_volume                      2431.39385212

loop_
_atom_site_label
_atom_site_type_symbol
_atom_type_description
_atom_site_fract_x
_atom_site_fract_y
_atom_site_fract_z
_atom_type_partial_charge
O1    O     O_R   0.488990 0.443920 0.942160 -0.533056
O2    O     O_R   0.823840 0.406530 0.087600 -0.537460
O3    O     O_R   0.999650 0.556080 0.057840 -0.533442
C1    C     C_R   0.654831 0.383476 0.114446 0.687437
O4    O     O_R   0.818390 0.434590 0.944530 -0.543079
O5    O     O_R   0.994160 0.584350 0.913750 -0.533106
C2    C     C_R   0.648840 0.419298 0.925825 0.717129
O6    O     O_R   0.494480 0.415650 0.086250 -0.535683
O7    O     O_3   0.662600 0.549100 0.990070 -0.370091
V1    V     V_3+5 0.935320 0.490890 0.001840 1.416875
O8    O     O_R   0.324240 0.593470 0.912400 -0.538935
C3    C     C_R   0.155938 0.614196 0.883594 0.689850
O9    O     O_R   0.329690 0.565410 0.055470 -0.539458
C4    C     C_R   0.162727 0.578344 0.076574 0.716612
V2    V     V_3+5 0.435990 0.509110 0.998160 1.419972
O10   O     O_3   0.158840 0.450900 0.009930 -0.370261
C5    C     C_3   0.924090 0.714571 0.226962 -0.076447
C6    C     C_3   0.240164 0.663370 0.286719 0.314569
C7    C     C_3   0.220657 0.713584 0.335428 0.138571
H1    H     H_    0.860910 0.726752 0.330873 0.133184
H2    H     H_    0.390906 0.660240 0.274294 0.135748
H3    H     H_    0.132360 0.680797 0.383663 0.097417
C8    C     C_1   0.105229 0.875785 0.377854 -0.193150
C9    C     C_3   0.136997 0.703313 0.212221 -0.013907
C10   C     C_3   0.911278 0.764040 0.276417 -0.083669
C11   C     C_3   0.112864 0.790239 0.293142 0.000368
C12   C     C_3   0.222049 0.834860 0.221654 0.316677
C13   C     C_3   0.228168 0.785542 0.172426 0.151533
C14   C     C_1   0.105597 0.837670 0.339635 0.054665
C15   C     C_1   0.152163 0.657924 0.163962 0.033744
C16   C     C_1   0.158280 0.621810 0.124009 -0.215371
H4    H     H_    0.140956 0.815733 0.122906 0.102297
H5    H     H_    0.865374 0.748743 0.172683 0.126216
H6    H     H_    0.366086 0.844268 0.238974 0.123637
C17   C     C_R   0.217531 0.769425 0.877734 -0.134135
C18   C     C_R   0.243111 0.843698 0.877173 -0.121704
C19   C     C_R   0.229251 0.906546 0.812348 -0.121886
C20   C     C_R   0.190239 0.896271 0.747905 -0.138688
C21   C     C_R   0.162388 0.821763 0.746545 0.056589
C22   C     C_R   0.176464 0.756938 0.812803 0.077201
C23   C     C_R   0.113519 0.812061 0.680943 -0.181990
C24   C     C_R   0.070459 0.736752 0.681887 -0.026103
C25   C     C_R   0.098294 0.671419 0.747541 -0.003179
C26   C     C_R   0.146594 0.681629 0.813421 -0.144158
C27   C     C_R   0.998569 0.723521 0.619759 0.376870
C28   C     C_R   0.985225 0.648943 0.620034 -0.197720
C29   C     C_R   0.024835 0.585396 0.681979 0.136451
C30   C     C_R   0.076202 0.596542 0.745973 -0.213063
H7    H     H_    0.228148 0.722303 0.929637 0.094324
H8    H     H_    0.272207 0.852591 0.927218 0.098458
H9    H     H_    0.245714 0.964069 0.811235 0.115479
H10   H     H_    0.178055 0.947835 0.699632 0.097373
H11   H     H_    0.936612 0.641357 0.571122 0.137105
H12   H     H_    0.098646 0.546027 0.794535 0.106545
H13   H     H_    0.397864 0.458751 0.305744 0.143545
C31   C     C_R   0.796098 0.234237 0.125925 -0.135129
C32   C     C_R   0.873150 0.164493 0.130631 -0.141249
C33   C     C_R   0.864972 0.101327 0.195431 -0.141032
C34   C     C_R   0.778072 0.107052 0.255806 -0.141089
C35   C     C_R   0.705610 0.178019 0.253820 0.071421
C36   C     C_R   0.715643 0.243152 0.187438 0.073086
C37   C     C_R   0.623197 0.184637 0.316273 -0.186469
C38   C     C_R   0.557741 0.257282 0.312885 0.070159
C39   C     C_R   0.569134 0.322484 0.246627 0.070634
C40   C     C_R   0.644647 0.315160 0.183531 -0.184756
C41   C     C_R   0.487193 0.267310 0.375358 -0.127362
C42   C     C_R   0.428554 0.339183 0.372488 -0.126617
C43   C     C_R   0.440593 0.402704 0.307920 -0.131967
C44   C     C_R   0.510583 0.394881 0.245814 -0.133323
H14   H     H_    0.801754 0.280829 0.073575 0.109023
H15   H     H_    0.938916 0.159307 0.083645 0.107276
H16   H     H_    0.926112 0.047488 0.199022 0.134338
H17   H     H_    0.770149 0.055119 0.303850 0.111927
H18   H     H_    0.479688 0.220351 0.427457 0.109036
H19   H     H_    0.375802 0.345755 0.420884 0.103835
H20   H     H_    0.521231 0.446771 0.197760 0.112532
O11   O     O_R   0.770890 0.084490 0.414040 -0.536849
O12   O     O_R   0.445980 0.065450 0.555510 -0.541652
O13   O     O_R   0.270670 0.915620 0.586180 -0.548354
C45   C     C_R   0.615437 0.076859 0.578175 0.718379
O14   O     O_R   0.441480 0.093500 0.412450 -0.537214
O15   O     O_R   0.266140 0.943870 0.442100 -0.541213
C46   C     C_R   0.610803 0.116197 0.385321 0.689873
O16   O     O_R   0.775410 0.056240 0.558120 -0.534718
O17   O     O_3   0.602660 0.950990 0.510100 -0.385905
V3    V     V_3+5 0.329740 0.009100 0.498130 1.403323
O18   O     O_R   0.936120 0.934420 0.444240 -0.531894
C47   C     C_R   0.102970 0.921220 0.423533 0.767724
O19   O     O_R   0.940610 0.906370 0.587310 -0.521134
C48   C     C_R   0.108611 0.881337 0.612491 0.781508
V4    V     V_3+5 0.829110 0.990690 0.501470 1.419772
O20   O     O_3   0.106080 0.049010 0.489880 -0.373335
C49   C     C_3   0.829091 0.242735 0.709454 -0.422971
C50   C     C_3   0.483020 0.251250 0.701548 -0.417566
C51   C     C_3   0.492859 0.301041 0.749916 -0.049375
H21   H     H_    0.834261 0.355872 0.718880 0.176026
H22   H     H_    0.833765 0.281304 0.651169 0.154446
H23   H     H_    0.340623 0.223944 0.705216 0.113545
H24   H     H_    0.496838 0.285677 0.642926 0.196130
H25   H     H_    0.377860 0.281107 0.788393 0.143110
C52   C     C_1   0.642601 0.369495 0.884679 -0.226544
C53   C     C_3   0.642983 0.191478 0.723371 0.078312
C54   C     C_3   0.838431 0.294917 0.756387 -0.070202
C55   C     C_3   0.662060 0.279256 0.804589 0.117583
C56   C     C_3   0.657768 0.190744 0.854423 0.249602
C57   C     C_3   0.616662 0.138147 0.807894 0.507876
C58   C     C_1   0.651206 0.328086 0.849861 0.010013
C59   C     C_1   0.634311 0.148221 0.672927 -0.025033
C60   C     C_1   0.626344 0.115927 0.629584 -0.196305
H26   H     H_    0.801858 0.175689 0.878082 0.091543
H27   H     H_    0.958466 0.208683 0.715608 0.141264
C61   C     C_3   0.752532 0.824072 0.252456 -0.265646
C62   C     C_3   0.758667 0.886851 0.176071 -0.635109
H28   H     H_    0.809635 0.942043 0.178828 0.230705
H29   H     H_    0.844121 0.871999 0.136941 0.230726
H30   H     H_    0.614836 0.897591 0.153114 0.196814
H31   H     H_    0.625248 0.788503 0.254756 0.236086
H32   H     H_    0.733729 0.851269 0.293186 0.170377
C63   C     C_3   0.991817 0.505383 0.682307 -0.350479
C64   C     C_3   0.051379 0.495541 0.612165 -0.811756
H33   H     H_    0.946005 0.521312 0.568308 0.218850
H34   H     H_    0.192273 0.522813 0.594242 0.239107
H35   H     H_    0.058625 0.433295 0.621402 0.216438
H36   H     H_    0.072878 0.464644 0.727449 0.176690
H37   H     H_    0.839546 0.490598 0.692018 0.182731
O21   O     O_3   0.937722 0.782354 0.557941 -0.569848
C65   C     C_3   0.737497 0.779532 0.555340 -0.163361
H38   H     H_    0.675789 0.795882 0.598876 0.146956
H39   H     H_    0.679890 0.722193 0.559635 0.076598
H40   H     H_    0.689298 0.821001 0.502127 0.168583
C66   C     C_3   0.798389 0.638946 0.251094 -0.237413
C67   C     C_3   0.749119 0.600078 0.331717 -0.749792
H41   H     H_    0.871901 0.592200 0.368224 0.256694
H42   H     H_    0.647310 0.635083 0.347330 0.228500
H43   H     H_    0.684842 0.542415 0.341491 0.206751
H44   H     H_    0.663069 0.652280 0.220368 0.175681
H45   H     H_    0.862422 0.594444 0.234384 0.205068
C68   C     C_3   0.471973 0.390769 0.706232 -0.314876
C69   C     C_3   0.527943 0.423766 0.625744 -0.794605
H46   H     H_    0.666772 0.402873 0.616263 0.229541
H47   H     H_    0.417933 0.409472 0.592071 0.219114
H48   H     H_    0.537938 0.487616 0.606807 0.212712
H49   H     H_    0.324942 0.406967 0.708696 0.188514
H50   H     H_    0.551289 0.424997 0.732608 0.172380
O22   O     O_3   0.725073 0.069108 0.833495 -0.548487
C70   C     C_3   0.912198 0.072636 0.810273 -0.289081
H51   H     H_    0.997507 0.113249 0.826484 0.121129
H52   H     H_    0.921945 0.082081 0.751949 0.152295
H53   H     H_    0.971797 0.014983 0.839079 0.173469
C71   C     C_3   0.408981 0.105066 0.822434 -0.243063
C72   C     C_3   0.384265 0.035078 0.894600 -0.652735
H54   H     H_    0.444686 0.045270 0.941874 0.250376
H55   H     H_    0.232513 0.020832 0.906105 0.167555
H56   H     H_    0.454803 0.983685 0.891898 0.229334
H57   H     H_    0.310805 0.149675 0.823514 0.144761
H58   H     H_    0.361865 0.086809 0.777577 0.129169
C73   C     C_3   0.030129 0.287371 0.794469 -0.417068
C74   C     C_3   0.061222 0.323856 0.851557 -0.714041
H59   H     H_    0.003009 0.382382 0.834170 0.215519
H60   H     H_    0.997080 0.286632 0.903944 0.223952
H61   H     H_    0.214677 0.328495 0.861734 0.223394
H62   H     H_    0.073084 0.227036 0.819330 0.186256
H63   H     H_    0.120900 0.316916 0.747789 0.185804
O23   O     O_3   0.167351 0.586752 0.319451 -0.551339
C75   C     C_3   0.249459 0.544802 0.387703 -0.304080
H64   H     H_    0.173237 0.554808 0.431907 0.135302
H65   H     H_    0.401514 0.557086 0.390706 0.142489
H66   H     H_    0.232481 0.482477 0.398370 0.163966
O24   O     O_3   0.520790 0.178337 0.910071 -0.558168
C76   C     C_3   0.606850 0.159707 0.979042 -0.276564
H67   H     H_    0.703411 0.206842 0.980264 0.138927
H68   H     H_    0.685136 0.104794 0.994686 0.140590
H69   H     H_    0.494776 0.151886 0.019974 0.168115
O25   O     O_3   0.404207 0.731237 0.355587 -0.577785
C77   C     C_3   0.425742 0.706569 0.431598 -0.325943
H70   H     H_    0.324876 0.735802 0.455110 0.164488
H71   H     H_    0.571244 0.721957 0.443354 0.161576
H72   H     H_    0.408937 0.643042 0.458014 0.138101
O26   O     O_3   0.419594 0.777904 0.155179 -0.571250
C78   C     C_3   0.446415 0.800744 0.079587 -0.292107
H73   H     H_    0.417300 0.862925 0.050987 0.133581
H74   H     H_    0.357222 0.765777 0.056469 0.145812
H75   H     H_    0.596403 0.791530 0.069636 0.164344
O27   O     O_3   0.137039 0.907137 0.184991 -0.558549
C79   C     C_3   0.269152 0.964614 0.145991 -0.312579
H76   H     H_    0.333079 0.950861 0.101579 0.146796
H77   H     H_    0.378822 0.974265 0.182561 0.146054
H78   H     H_    0.193291 0.019602 0.120298 0.166212

loop_
_geom_bond_atom_site_label_1
_geom_bond_atom_site_label_2
_ccdc_geom_bond_type
C31   C36   A    
C52   C58   T    
C56   H26   S    
C75   H64   S    
C57   C71   S    
O18   V4    S    
C5    C66   S    
C6    H2    S    
O24   C76   S    
C17   C18   A    
C4    C16   S    
C1    O6    A    
C49   C54   S    
O22   C70   S    
O17   V4    S    
C77   H71   S    
C27   C28   A    
C59   C60   T    
C30   H12   S    
C11   C12   S    
O21   C65   S    
C57   O22   S    
C56   O24   S    
C6    C9    S    
C8    C14   T    
C18   C19   A    
C70   H51   S    
C68   H49   S    
O5    C3    A    
C20   C21   A    
C19   H9    S    
C69   H48   S    
O12   C45   A    
C79   H77   S    
C20   H10   S    
H1    C10   S    
C50   H23   S    
V2    O10   S    
C41   H18   S    
O27   C79   S    
C44   H20   S    
C35   C37   A    
C6    C7    S    
C23   C24   A    
C72   H56   S    
C7    C11   S    
C12   O27   S    
C61   C62   S    
O13   C48   A    
C10   C61   S    
O25   C77   S    
O8    V2    S    
C73   C74   S    
O11   V4    S    
C76   H67   S    
C77   H70   S    
C64   H34   S    
C67   H41   S    
C45   C60   S    
C17   H7    S    
C72   H54   S    
C53   C59   S    
O1    V2    S    
O16   V4    S    
O19   V4    S    
C25   C30   A    
C73   H63   S    
O14   V3    S    
C74   H61   S    
C64   H35   S    
C45   O16   A    
C62   H30   S    
O12   V3    S    
C29   C63   S    
C41   C42   A    
C38   C41   A    
C34   C35   A    
C75   H65   S    
C71   H58   S    
O9    C4    A    
C74   H60   S    
C6    O23   S    
C55   C56   S    
O14   C46   A    
C78   H74   S    
H13   C43   S    
C77   H72   S    
C70   H52   S    
C12   H6    S    
C5    C9    S    
C42   C43   A    
C13   H4    S    
C7    H3    S    
C21   C23   A    
C66   H44   S    
V4    O20   S    
O4    C2    A    
C51   H25   S    
C43   C44   A    
C79   H78   S    
C10   C11   S    
O15   V3    S    
C38   C39   A    
C35   C36   A    
C24   C27   A    
O18   C47   A    
O2    C1    A    
C25   C26   A    
C65   H39   S    
C19   C20   A    
C66   H45   S    
C70   H53   S    
C29   C30   A    
C27   O21   S    
C69   H46   S    
C37   C38   A    
C5    H5    S    
C39   C44   A    
C32   H15   S    
O17   V3    S    
O3    C4    A    
C49   H27   S    
C63   H37   S    
O6    V2    S    
C31   H14   S    
C71   H57   S    
O9    V2    S    
C74   H59   S    
C42   H19   S    
C24   C25   A    
C66   C67   S    
O2    V1    S    
C49   H22   S    
C21   C22   A    
C18   H8    S    
C64   H33   S    
C62   H28   S    
O7    V1    S    
C31   C32   A    
C34   H17   S    
C28   C29   A    
O23   C75   S    
C51   C68   S    
O1    C2    A    
C54   C73   S    
C9    C13   S    
C49   C53   S    
O5    V1    S    
C63   C64   S    
C78   H75   S    
C37   C46   S    
C75   H66   S    
C56   C57   S    
C79   H76   S    
C61   H31   S    
C8    C47   S    
C5    C10   S    
C39   C40   A    
C17   C22   A    
C33   C34   A    
C7    O25   S    
O4    V1    S    
C3    C26   S    
O3    V1    S    
V1    O10   S    
C51   C55   S    
C61   H32   S    
C69   H47   S    
C15   C16   T    
C33   H16   S    
C32   C33   A    
C1    C40   S    
C76   H68   S    
C50   H24   S    
C68   H50   S    
C67   H43   S    
O15   C47   A    
O13   V3    S    
C28   H11   S    
C53   C57   S    
C63   H36   S    
C72   H55   S    
O7    V2    S    
C50   C51   S    
C13   O26   S    
C9    C15   S    
C65   H40   S    
C68   C69   S    
O26   C78   S    
C36   C40   A    
C22   C26   A    
C50   C53   S    
C11   C14   S    
C67   H42   S    
C2    C52   S    
H21   C54   S    
C54   C55   S    
O11   C46   A    
C71   C72   S    
V3    O20   S    
C62   H29   S    
O19   C48   A    
C73   H62   S    
C55   C58   S    
C78   H73   S    
C65   H38   S    
O8    C3    A    
C23   C48   S    
C12   C13   S    
C76   H69   S    
