data_str_m3_o14_o24_f0_pcu.sym.71
_audit_creation_date              2012-12-10T17:49:43-0500
_audit_creation_method            fapswitch 2.2
_symmetry_space_group_name_H-M    P1
_symmetry_Int_Tables_number       1
_space_group_crystal_system       triclinic
_cell_length_a                    10.49165
_cell_length_b                    10.6713
_cell_length_c                    9.963658
_cell_angle_alpha                 88.580709
_cell_angle_beta                  90.571415
_cell_angle_gamma                 91.279728
_cell_volume                      1114.85670103

loop_
_atom_site_label
_atom_site_type_symbol
_atom_type_description
_atom_site_fract_x
_atom_site_fract_y
_atom_site_fract_z
_atom_type_partial_charge
C1    C     C_R   0.507205 0.261038 0.501532 0.874670
C2    C     C_R   0.602594 0.064891 0.590625 0.140615
C3    C     C_R   0.518265 0.128826 0.502876 -0.130692
C4    C     C_R   0.257555 0.499560 0.499714 0.834979
C5    C     C_R   0.447461 0.067279 0.404942 -0.326187
C6    C     C_R   0.446465 0.939149 0.400166 0.466804
C7    C     C_R   0.520671 0.872526 0.494229 -0.220166
C8    C     C_R   0.304698 0.374789 0.143818 -0.137344
C9    C     C_R   0.190554 0.344315 0.080330 -0.182173
C10   C     C_R   0.183118 0.351681 0.941856 -0.248099
C11   C     C_R   0.294762 0.374300 0.868575 -0.011110
C12   C     C_3   0.957052 0.485125 0.373573 -0.126222
C13   C     C_R   0.401208 0.438065 0.929822 0.147510
C14   C     C_R   0.402882 0.438742 0.073909 0.160808
C15   C     C_R   0.593342 0.558621 0.070546 -0.086217
C16   C     C_R   0.506276 0.739508 0.498338 0.901766
C17   C     C_R   0.593478 0.558410 0.927864 -0.106798
C18   C     C_R   0.742270 0.497729 0.500416 0.826032
C19   C     C_3   0.042416 0.506970 0.627161 -0.151648
C20   C     C_3   0.957166 0.398121 0.576155 -0.183302
C21   C     C_3   0.877306 0.495204 0.500446 0.048925
C22   C     C_3   0.959886 0.603728 0.551247 -0.184889
C23   C     C_3   0.039870 0.388390 0.449470 -0.195322
C24   C     C_3   0.041982 0.593811 0.424658 -0.173122
C25   C     C_3   0.253130 0.891255 0.301217 0.095935
C26   C     C_3   0.192322 0.832090 0.178018 -0.753270
C27   C     C_2   0.310472 0.274445 0.772710 0.549395
C28   C     C_2   0.858513 0.129739 0.854610 0.358422
C29   C     C_3   0.122245 0.497355 0.500189 0.037676
C30   C     C_R   0.688203 0.127843 0.678528 -0.235945
C31   C     C_R   0.772786 0.061297 0.761534 0.064283
C32   C     C_R   0.776028 0.930915 0.753420 -0.125089
C33   C     C_R   0.694775 0.868059 0.665163 -0.214598
C34   C     C_R   0.604831 0.933730 0.584973 0.054555
H1    H     H_    0.918430 0.318239 0.637391 0.114988
H2    H     H_    0.923589 0.691551 0.592650 0.127081
H3    H     H_    0.078608 0.672973 0.362121 0.138390
H4    H     H_    0.918827 0.476193 0.269831 0.143566
H5    H     H_    0.077435 0.301009 0.408163 0.119717
H6    H     H_    0.392365 0.119532 0.330877 0.168038
H7    H     H_    0.693275 0.228837 0.681666 0.148364
H8    H     H_    0.224013 0.990798 0.301404 0.131353
H9    H     H_    0.216607 0.842474 0.393479 0.120502
H10   H     H_    0.218285 0.731903 0.173432 0.253337
H11   H     H_    0.086963 0.838672 0.182433 0.203416
H12   H     H_    0.842753 0.877338 0.813983 0.168370
H13   H     H_    0.226301 0.882103 0.085579 0.276347
H14   H     H_    0.251162 0.270433 0.682939 0.013419
H15   H     H_    0.852595 0.230780 0.861834 0.047827
H16   H     H_    0.706402 0.768149 0.658365 0.152144
H17   H     H_    0.669673 0.607083 0.123159 0.145464
H18   H     H_    0.315109 0.343466 0.245716 0.190214
H19   H     H_    0.111861 0.303806 0.137359 0.161853
H20   H     H_    0.098966 0.311353 0.893976 0.157167
H21   H     H_    0.669832 0.606693 0.874133 0.140513
H22   H     H_    0.080471 0.517074 0.730696 0.149043
N1    N     N_R   0.498800 0.498800 0.142780 -0.118295
N2    N     N_R   0.498760 0.498720 0.857170 -0.122794
O1    O     O_R   0.500000 0.316780 0.614690 -0.607117
O2    O     O_2   0.380531 0.187493 0.800884 -0.563209
O3    O     O_2   0.936371 0.074447 0.924609 -0.583898
O4    O     O_R   0.499990 0.316750 0.385360 -0.639201
O5    O     O_R   0.313960 0.499980 0.614650 -0.648802
O6    O     O_R   0.313940 0.499960 0.385310 -0.635581
O7    O     O_R   0.500010 0.683250 0.614640 -0.619040
O8    O     O_R   0.500000 0.683220 0.385310 -0.554362
O9    O     O_R   0.686060 0.500040 0.614690 -0.645486
O10   O     O_R   0.686040 0.500020 0.385350 -0.629216
O11   O     O_3   0.386566 0.879490 0.293829 -0.573601
Zn1   Zn    Zn3+2 0.500010 0.500020 0.653130 0.943236
Zn2   Zn    Zn3+2 0.499990 0.499980 0.346870 0.956074

loop_
_geom_bond_atom_site_label_1
_geom_bond_atom_site_label_2
_ccdc_geom_bond_type
C19   H22   S    
C25   H8    S    
C6    O11   S    
C20   C23   S    
C30   H7    S    
C6    C7    A    
C13   N2    A    
C15   H17   S    
C8    C9    A    
C18   C21   S    
C11   C13   A    
C28   H15   S    
C17   H21   S    
C25   O11   S    
O8    Zn2   S    
C12   C23   S    
O5    Zn1   S    
C11   C27   S    
C17   N2    A    
C2    C30   A    
O9    Zn1   S    
C32   C33   A    
C25   H9    S    
C19   C20   S    
C2    C3    A    
C18   O9    A    
C26   H10   S    
C21   C22   S    
N1    Zn2   S    
C15   N1    A    
C4    O5    A    
C2    C34   A    
C4    O6    A    
C30   C31   A    
C26   H13   S    
O10   Zn2   S    
C23   H5    S    
C23   C29   S    
C7    C16   S    
C25   C26   S    
O4    Zn2   S    
C33   C34   A    
C27   O2    D    
C1    O1    A    
C27   H14   S    
C12   H4    S    
C5    C6    A    
C10   H20   S    
C7    C34   A    
C22   C24   S    
C5    H6    S    
C16   O8    A    
C10   C11   A    
O1    Zn1   S    
C18   O10   A    
O7    Zn1   S    
C19   C29   S    
C19   C22   S    
C9    H19   S    
C20   C21   S    
C1    O4    A    
C24   H3    S    
C12   C24   S    
C9    C10   A    
O6    Zn2   S    
C15   C17   A    
C14   N1    A    
C8    H18   S    
C24   C29   S    
N2    Zn1   S    
C8    C14   A    
C16   O7    A    
C26   H11   S    
C3    C5    A    
C33   H16   S    
C13   C14   A    
C20   H1    S    
C32   H12   S    
C12   C21   S    
C28   C31   S    
C22   H2    S    
C31   C32   A    
C28   O3    D    
C4    C29   S    
C1    C3    S    
