data_str_m3_o14_o24_f0_pcu.sym.33
_audit_creation_date              2012-12-10T17:49:41-0500
_audit_creation_method            fapswitch 2.2
_symmetry_space_group_name_H-M    P1
_symmetry_Int_Tables_number       1
_space_group_crystal_system       triclinic
_cell_length_a                    10.530015
_cell_length_b                    10.69578
_cell_length_c                    9.895352
_cell_angle_alpha                 89.589389
_cell_angle_beta                  90.321053
_cell_angle_gamma                 91.155156
_cell_volume                      1114.2093562

loop_
_atom_site_label
_atom_site_type_symbol
_atom_type_description
_atom_site_fract_x
_atom_site_fract_y
_atom_site_fract_z
_atom_type_partial_charge
C1    C     C_R   0.514927 0.260746 0.501017 0.863995
C2    C     C_R   0.515219 0.060481 0.627881 0.051007
C3    C     C_R   0.533869 0.126969 0.504694 -0.159718
C4    C     C_R   0.257579 0.499511 0.499541 0.865929
C5    C     C_R   0.546685 0.061256 0.382533 0.078356
C6    C     C_R   0.524059 0.934868 0.382721 -0.201652
C7    C     C_R   0.482126 0.873544 0.499839 -0.168852
C8    C     C_R   0.331990 0.338613 0.140293 -0.197049
C9    C     C_R   0.249790 0.258738 0.070093 -0.209647
C10   C     C_R   0.250424 0.258152 0.930304 -0.176187
C11   C     C_R   0.333217 0.337477 0.859969 -0.154751
C12   C     C_3   0.959162 0.601468 0.437066 -0.230359
C13   C     C_R   0.417651 0.420039 0.927722 0.154802
C14   C     C_R   0.417357 0.420359 0.072412 0.169091
C15   C     C_R   0.578573 0.576594 0.071419 -0.124817
C16   C     C_R   0.490226 0.739739 0.499825 0.883978
C17   C     C_R   0.578414 0.576684 0.928191 -0.130539
C18   C     C_R   0.742377 0.498625 0.500599 0.876779
C19   C     C_3   0.042492 0.392712 0.564127 -0.246299
C20   C     C_3   0.957280 0.397634 0.437733 0.112030
C21   C     C_3   0.877028 0.497410 0.501966 -0.002720
C22   C     C_3   0.962585 0.495749 0.626415 0.155129
C23   C     C_3   0.040054 0.499413 0.370198 -0.131649
C24   C     C_3   0.045217 0.600696 0.564891 -0.227555
C25   C     C_3   0.122999 0.498073 0.498738 -0.018053
C26   C     C_R   0.545910 0.109875 0.756347 -0.180621
C27   C     C_R   0.502086 0.051452 0.873628 -0.225625
C28   C     C_R   0.422760 0.945375 0.865172 0.152187
C29   C     C_R   0.399812 0.890213 0.738384 0.129725
C30   C     C_R   0.463069 0.939702 0.621427 0.021677
H1    H     H_    0.541909 0.884504 0.290217 0.174772
H2    H     H_    0.921707 0.685885 0.385888 0.146833
H3    H     H_    0.075278 0.498802 0.264639 0.152838
H4    H     H_    0.606216 0.192236 0.767643 0.181881
H5    H     H_    0.524910 0.092775 0.970476 0.158688
H6    H     H_    0.981557 0.235816 0.336325 0.177809
H7    H     H_    0.855730 0.234371 0.439690 0.167380
H8    H     H_    0.383852 0.949724 0.067970 0.182486
H9    H     H_    0.404385 0.807085 0.003426 0.180096
H10   H     H_    0.276467 0.779419 0.627800 0.163998
H11   H     H_    0.327569 0.715565 0.776186 0.226797
H12   H     H_    0.642647 0.639246 0.125194 0.145654
H13   H     H_    0.998825 0.488246 0.827890 0.187170
H14   H     H_    0.877782 0.579984 0.784627 0.183965
H15   H     H_    0.516207 0.164070 0.212070 0.211610
H16   H     H_    0.666042 0.180078 0.279461 0.215845
H17   H     H_    0.326450 0.332419 0.247361 0.211340
H18   H     H_    0.185578 0.196552 0.124713 0.152477
H19   H     H_    0.186857 0.195388 0.875808 0.154423
H20   H     H_    0.328681 0.330417 0.752960 0.209367
H21   H     H_    0.642241 0.639509 0.874131 0.148509
H22   H     H_    0.079433 0.308182 0.615563 0.129674
H23   H     H_    0.080871 0.683810 0.620394 0.145966
N1    N     N_R   0.498800 0.498800 0.142780 -0.119362
N2    N     N_R   0.498760 0.498720 0.857170 -0.128565
N3    N     N_3   0.904971 0.288598 0.368149 -0.461832
N4    N     N_3   0.363484 0.893698 0.984078 -0.450271
N5    N     N_3   0.299016 0.797958 0.728576 -0.452040
N6    N     N_3   0.918521 0.493594 0.765724 -0.440264
N7    N     N_3   0.590863 0.117660 0.259000 -0.475598
O1    O     O_R   0.500000 0.316780 0.614690 -0.643473
O2    O     O_R   0.499990 0.316750 0.385360 -0.644649
O3    O     O_R   0.313960 0.499980 0.614650 -0.650278
O4    O     O_R   0.313940 0.499960 0.385310 -0.641170
O5    O     O_R   0.500010 0.683250 0.614640 -0.626933
O6    O     O_R   0.500000 0.683220 0.385310 -0.622824
O7    O     O_R   0.686060 0.500040 0.614690 -0.614020
O8    O     O_R   0.686040 0.500020 0.385350 -0.609399
Zn1   Zn    Zn3+2 0.500010 0.500020 0.653130 0.916183
Zn2   Zn    Zn3+2 0.499990 0.499980 0.346870 0.926322

loop_
_geom_bond_atom_site_label_1
_geom_bond_atom_site_label_2
_ccdc_geom_bond_type
C23   H3    S    
C28   N4    S    
C24   C25   S    
H15   N7    S    
C6    C7    A    
H6    N3    S    
O4    Zn2   S    
C10   H19   S    
C18   C21   S    
C27   H5    S    
C9    C10   A    
C12   C24   S    
C19   C20   S    
N1    Zn2   S    
C20   C23   S    
H13   N6    S    
C20   N3    S    
H16   N7    S    
C1    O2    A    
C17   H21   S    
C2    C3    A    
C24   H23   S    
C8    H17   S    
C2    C26   A    
C11   H20   S    
O6    Zn2   S    
C21   C22   S    
C20   C21   S    
C11   C13   A    
C12   C23   S    
C26   C27   A    
C29   C30   A    
N2    Zn1   S    
O5    Zn1   S    
C17   N2    A    
C19   H22   S    
C4    O3    A    
C28   C29   A    
C14   N1    A    
H11   N5    S    
C6    H1    S    
C1    C3    S    
C23   C25   S    
C5    C6    A    
C19   C25   S    
C22   C24   S    
C16   O6    A    
C2    C30   A    
H14   N6    S    
C18   O8    A    
H8    N4    S    
C15   N1    A    
C4    C25   S    
C27   C28   A    
C19   C22   S    
H10   N5    S    
C29   N5    S    
O2    Zn2   S    
C9    H18   S    
O8    Zn2   S    
C10   C11   A    
O1    Zn1   S    
C22   N6    S    
C15   C17   A    
C4    O4    A    
C7    C16   S    
C8    C14   A    
C16   O5    A    
C3    C5    A    
C5    N7    S    
O7    Zn1   S    
C18   O7    A    
C13   C14   A    
H7    N3    S    
C12   C21   S    
C26   H4    S    
H9    N4    S    
C12   H2    S    
O3    Zn1   S    
C15   H12   S    
C1    O1    A    
C8    C9    A    
C13   N2    A    
C7    C30   A    
