data_str_m3_o13_o15_f0_pcu.sym.31
_audit_creation_date              2012-12-10T17:28:36-0500
_audit_creation_method            fapswitch 2.2
_symmetry_space_group_name_H-M    P1
_symmetry_Int_Tables_number       1
_space_group_crystal_system       triclinic
_cell_length_a                    10.698173
_cell_length_b                    11.929491
_cell_length_c                    12.849776
_cell_angle_alpha                 93.632245
_cell_angle_beta                  90.703194
_cell_angle_gamma                 82.829879
_cell_volume                      1623.82801279

loop_
_atom_site_label
_atom_site_type_symbol
_atom_type_description
_atom_site_fract_x
_atom_site_fract_y
_atom_site_fract_z
_atom_type_partial_charge
C1    C     C_R   0.495123 0.522802 0.700617 0.876703
C2    C     C_R   0.455702 0.551477 0.132618 -0.289640
C3    C     C_R   0.533389 0.452064 0.973825 0.169902
C4    C     C_R   0.466411 0.547925 0.026169 0.169912
C5    C     C_R   0.417564 0.954344 0.380531 -0.336225
C6    C     C_R   0.582520 0.045644 0.619440 -0.335859
C7    C     C_R   0.420255 0.838489 0.395033 0.010244
C8    C     C_R   0.579804 0.161503 0.604943 0.010333
C9    C     C_R   0.530955 0.858330 0.554747 -0.023228
C10   C     C_R   0.469054 0.141666 0.445252 -0.023300
C11   C     C_R   0.528693 0.975773 0.544238 0.077817
C12   C     C_R   0.504847 0.477200 0.299382 0.876557
C13   C     C_R   0.471346 0.024220 0.455753 0.077788
C14   C     C_R   0.741165 0.495075 0.495806 0.890378
C15   C     C_R   0.258825 0.504900 0.504076 0.890111
C16   C     C_R   0.916689 0.309986 0.588555 -0.230922
C17   C     C_R   0.083471 0.689525 0.410519 -0.231569
C18   C     C_R   0.993185 0.246249 0.658439 0.052125
C19   C     C_R   0.006848 0.753340 0.340778 0.052159
C20   C     C_R   0.104970 0.284896 0.693527 -0.189756
C21   C     C_R   0.894848 0.714916 0.306036 -0.189726
C22   C     C_R   0.144999 0.378744 0.651372 -0.155686
C23   C     C_R   0.513516 0.462235 0.188000 -0.105104
C24   C     C_R   0.854791 0.621178 0.348343 -0.155880
C25   C     C_R   0.074446 0.435767 0.572109 0.072219
C26   C     C_R   0.925478 0.564110 0.427500 0.072324
C27   C     C_R   0.953503 0.409553 0.548528 0.066055
C28   C     C_R   0.046524 0.590195 0.450898 0.066130
C29   C     C_R   0.124004 0.516969 0.515064 -0.232804
C30   C     C_R   0.875963 0.482911 0.484556 -0.232946
C31   C     C_R   0.958151 0.137379 0.691618 0.100101
C32   C     C_R   0.916164 0.058195 0.617535 -0.182330
C33   C     C_R   0.887648 0.953783 0.647641 -0.161669
C34   C     C_R   0.486357 0.537766 0.811996 -0.105159
C35   C     C_R   0.898696 0.928000 0.752114 -0.125372
C36   C     C_R   0.939669 0.006112 0.826461 -0.118880
C37   C     C_R   0.969849 0.110167 0.796506 -0.166120
C38   C     C_R   0.041946 0.862114 0.307420 0.100014
C39   C     C_R   0.029971 0.889267 0.202514 -0.166073
C40   C     C_R   0.060144 0.993272 0.172392 -0.118769
C41   C     C_R   0.101361 0.071399 0.246600 -0.125148
C42   C     C_R   0.112653 0.045683 0.351104 -0.161990
C43   C     C_R   0.084183 0.941305 0.381366 -0.182472
C44   C     C_R   0.646761 0.269997 0.192426 0.142908
C45   C     C_R   0.410978 0.639149 0.971655 -0.265949
C46   C     C_R   0.608185 0.161696 0.178676 -0.177182
C47   C     C_R   0.666763 0.072855 0.234834 -0.160448
C48   C     C_R   0.763854 0.091572 0.305016 -0.086933
C49   C     C_R   0.804460 0.198522 0.317496 -0.111973
C50   C     C_R   0.747009 0.287311 0.260835 -0.104889
C51   C     C_R   0.353119 0.730015 0.807528 0.142569
C52   C     C_R   0.253204 0.712628 0.738766 -0.104360
C53   C     C_R   0.195991 0.801381 0.681939 -0.111372
C54   C     C_R   0.236452 0.908383 0.694635 -0.087064
C55   C     C_R   0.333129 0.927198 0.765221 -0.160524
C56   C     C_R   0.588822 0.360841 0.028331 -0.265938
C57   C     C_R   0.391496 0.838386 0.821528 -0.177298
C58   C     C_R   0.419006 0.634767 0.863596 -0.016051
C59   C     C_R   0.580824 0.365229 0.136385 -0.016166
C60   C     C_R   0.544132 0.448518 0.867384 -0.289652
H1    H     H_    0.835012 0.760583 0.250166 0.132840
H2    H     H_    0.597161 0.375151 0.827276 0.156004
H3    H     H_    0.359254 0.712399 0.012869 0.141835
H4    H     H_    0.640540 0.287590 0.987114 0.141807
H5    H     H_    0.423374 0.180560 0.378557 0.130289
H6    H     H_    0.576621 0.819435 0.621448 0.130341
H7    H     H_    0.621761 0.214793 0.663219 0.134368
H8    H     H_    0.378333 0.785198 0.336739 0.134309
H9    H     H_    0.907669 0.076224 0.536090 0.128213
H10   H     H_    0.856665 0.892957 0.589924 0.145308
H11   H     H_    0.876099 0.847274 0.775344 0.125687
H12   H     H_    0.164706 0.239298 0.749513 0.132800
H13   H     H_    0.948474 0.985841 0.907321 0.120214
H14   H     H_    0.001400 0.169630 0.855232 0.121582
H15   H     H_    0.998202 0.829797 0.143902 0.121609
H16   H     H_    0.051149 0.013492 0.091507 0.120160
H17   H     H_    0.123956 0.152088 0.223240 0.125592
H18   H     H_    0.143811 0.106529 0.408719 0.145189
H19   H     H_    0.092896 0.923309 0.462829 0.128358
H20   H     H_    0.531437 0.146681 0.125967 0.125832
H21   H     H_    0.635817 0.989841 0.224955 0.135278
H22   H     H_    0.807595 0.023158 0.349577 0.138281
H23   H     H_    0.374456 0.988756 0.310846 0.159342
H24   H     H_    0.880345 0.212749 0.371145 0.129334
H25   H     H_    0.779016 0.369894 0.271452 0.096872
H26   H     H_    0.221330 0.629999 0.727958 0.096661
H27   H     H_    0.120421 0.787077 0.627976 0.129393
H28   H     H_    0.192912 0.976758 0.649925 0.138300
H29   H     H_    0.363948 0.010259 0.775277 0.135254
H30   H     H_    0.467962 0.853473 0.874527 0.125904
H31   H     H_    0.625696 0.011222 0.689099 0.159361
H32   H     H_    0.833072 0.275001 0.563026 0.174506
H33   H     H_    0.167343 0.724261 0.435564 0.174676
H34   H     H_    0.233138 0.405127 0.679774 0.145045
H35   H     H_    0.766535 0.594908 0.320123 0.145168
H36   H     H_    0.402694 0.624847 0.172738 0.155999
N1    N     N_R   0.523130 0.207800 0.519340 -0.099902
N2    N     N_R   0.476870 0.792200 0.480660 -0.099897
O1    O     O_R   0.506170 0.421700 0.658830 -0.638103
O2    O     O_R   0.493830 0.578300 0.341170 -0.638220
O3    O     O_R   0.491330 0.609310 0.646410 -0.611378
O4    O     O_R   0.508670 0.390690 0.353590 -0.611420
O5    O     O_R   0.690650 0.406190 0.506220 -0.634378
O6    O     O_R   0.309350 0.593810 0.493780 -0.634612
O7    O     O_R   0.675800 0.593810 0.493800 -0.611249
O8    O     O_R   0.324200 0.406190 0.506200 -0.611172
Zn1   Zn    Zn3+2 0.509910 0.374730 0.508290 0.937421
Zn2   Zn    Zn3+2 0.490090 0.625270 0.491710 0.937275

loop_
_geom_bond_atom_site_label_1
_geom_bond_atom_site_label_2
_ccdc_geom_bond_type
C46   H20   S    
C37   H14   S    
C9    N2    A    
C7    N2    A    
C41   C42   A    
C35   C36   A    
C1    O1    A    
C53   C54   A    
C23   C59   A    
C12   C23   S    
C28   C29   A    
C15   O8    A    
C36   C37   A    
C19   C21   A    
C24   C26   A    
C41   H17   S    
C38   C39   A    
C5    H23   S    
O8    Zn1   S    
C44   C59   S    
C43   H19   S    
C6    H31   S    
N2    Zn2   S    
C60   H2    S    
C9    H6    S    
C50   H25   S    
C17   C19   A    
C7    H8    S    
C46   C47   A    
C14   O7    A    
C47   C48   A    
C22   C25   A    
C56   H4    S    
C51   C57   A    
C39   H15   S    
C15   O6    A    
C5    C13   A    
C3    C60   A    
O3    Zn2   S    
C35   H11   S    
C27   C30   A    
C34   C60   A    
C22   H34   S    
C14   C30   S    
C44   C46   A    
C1    C34   S    
C15   C29   S    
C4    C45   A    
C25   C29   A    
O7    Zn2   S    
C45   C58   A    
O2    Zn2   S    
C57   H30   S    
C51   C52   A    
C24   H35   S    
C6    C11   A    
C5    C7    A    
C6    C8    A    
C45   H3    S    
C31   C37   A    
N1    Zn1   S    
C10   N1    A    
C2    C4    A    
C8    N1    A    
C12   O4    A    
C19   C38   S    
C3    C56   A    
C31   C32   A    
O4    Zn1   S    
C53   H27   S    
C51   C58   S    
C9    C11   A    
C33   H10   S    
C48   C49   A    
C20   C22   A    
C26   C30   A    
C55   C57   A    
C17   H33   S    
C42   C43   A    
C3    C4    A    
C1    O3    A    
O6    Zn2   S    
C52   C53   A    
C49   H24   S    
C42   H18   S    
C10   H5    S    
C44   C50   A    
C54   C55   A    
C40   C41   A    
C17   C28   A    
C21   H1    S    
C10   C13   A    
C16   H32   S    
C32   H9    S    
C25   C27   A    
O1    Zn1   S    
C26   C28   A    
C56   C59   A    
C32   C33   A    
C52   H26   S    
C38   C43   A    
C55   H29   S    
C54   H28   S    
C11   C13   A    
C14   O5    A    
C16   C27   A    
C2    H36   S    
C33   C35   A    
C48   H22   S    
C18   C20   A    
C47   H21   S    
C12   O2    A    
C36   H13   S    
C39   C40   A    
C40   H16   S    
C8    H7    S    
C16   C18   A    
C49   C50   A    
C21   C24   A    
C2    C23   A    
C34   C58   A    
C20   H12   S    
O5    Zn1   S    
C18   C31   S    
