data_str_m2_o10_o17_f0_pcu.sym.197
_audit_creation_date              2013-03-05T15:40:33-0500
_audit_creation_method            fapswitch 2.2
_symmetry_space_group_name_H-M    P1
_symmetry_Int_Tables_number       1
_space_group_crystal_system       triclinic
_cell_length_a                    14.963978
_cell_length_b                    8.669339
_cell_length_c                    7.513065
_cell_angle_alpha                 103.472423
_cell_angle_beta                  93.668563
_cell_angle_gamma                 92.851121
_cell_volume                      943.789827133

loop_
_atom_site_label
_atom_site_type_symbol
_atom_site_description
_atom_site_fract_x
_atom_site_fract_y
_atom_site_fract_z
_atom_type_partial_charge
O1    O     O_R   0.506510 0.286130 0.619770 -0.570148
O2    O     O_R   0.493490 0.713870 0.380230 -0.570111
O3    O     O_R   0.489600 0.256770 0.308360 -0.580227
O4    O     O_R   0.510400 0.743230 0.691640 -0.580228
C1    C     C_R   0.497362 0.199806 0.452948 0.832541
C2    C     C_R   0.502638 0.800194 0.547052 0.832560
O5    O     O_R   0.378710 0.514640 0.655720 -0.550853
O6    O     O_R   0.621290 0.485360 0.344280 -0.550854
O7    O     O_R   0.361800 0.485290 0.344300 -0.544505
O8    O     O_R   0.638200 0.514710 0.655700 -0.544513
C3    C     C_R   0.329468 0.497434 0.502658 0.785531
C4    C     C_R   0.670532 0.502566 0.497342 0.785534
Cu1   Cu    Cu3+1 0.510010 0.517380 0.684380 1.097187
Cu2   Cu    Cu3+1 0.489990 0.482620 0.315620 1.097201
C5    C     C_R   0.818599 0.656395 0.540226 0.124304
C6    C     C_R   0.181401 0.343607 0.459781 0.124304
C7    C     C_R   0.766826 0.510114 0.491733 -0.000929
C8    C     C_R   0.233174 0.489887 0.508268 -0.000931
C9    C     C_R   0.805885 0.366732 0.441084 -0.241005
C10   C     C_R   0.194115 0.633270 0.558914 -0.240993
C11   C     C_R   0.898003 0.363303 0.438196 0.077758
C12   C     C_R   0.101997 0.636699 0.561804 0.077755
C13   C     C_R   0.953047 0.504683 0.499405 -0.005866
C14   C     C_R   0.046953 0.495320 0.500597 -0.005867
C15   C     C_R   0.914148 0.654306 0.559747 0.088891
C16   C     C_R   0.085852 0.345696 0.440257 0.088892
C17   C     C_R   0.934571 0.218623 0.371308 -0.199906
C18   C     C_R   0.065430 0.781379 0.628692 -0.199904
C19   C     C_R   0.026968 0.207596 0.363542 0.170988
C20   C     C_R   0.973033 0.792407 0.636460 0.170991
H1    H     H_    0.763553 0.256911 0.400574 0.140549
H2    H     H_    0.236447 0.743091 0.599421 0.140549
H3    H     H_    0.889789 0.113108 0.318701 0.149788
H4    H     H_    0.110212 0.886895 0.681297 0.149787
C21   C     C_2   0.496018 0.031277 0.427159 -0.327197
C22   C     C_2   0.503982 0.968723 0.572840 -0.327227
H5    H     H_    0.488465 0.958468 0.287397 0.204484
H6    H     H_    0.511535 0.041532 0.712603 0.204464
N1    N     N_2   0.474890 0.456420 0.038520 0.023490
N2    N     N_2   0.525110 0.543580 0.961480 0.023502
C23   C     C_3   0.770934 0.808112 0.547049 -0.790029
H7    H     H_    0.701181 0.785813 0.483791 0.233589
H8    H     H_    0.766361 0.875338 0.690409 0.235602
H9    H     H_    0.804758 0.880393 0.464015 0.232414
C24   C     C_3   0.229066 0.191890 0.452968 -0.790040
H10   H     H_    0.298816 0.214192 0.516237 0.233581
H11   H     H_    0.195238 0.119611 0.535999 0.232413
H12   H     H_    0.233642 0.124662 0.309610 0.235607
C25   C     C_3   0.056322 0.051390 0.253895 -0.836431
H13   H     H_    0.998609 0.973802 0.176019 0.230615
H14   H     H_    0.101179 0.072888 0.149025 0.241488
H15   H     H_    0.087811 0.981917 0.344284 0.240371
C26   C     C_3   0.943680 0.948613 0.746108 -0.836436
H16   H     H_    0.001393 0.026203 0.823979 0.230616
H17   H     H_    0.912188 0.018084 0.655720 0.240371
H18   H     H_    0.898825 0.927117 0.850983 0.241485
N3    N     N_R   0.388111 0.421185 0.958474 0.264362
O9    O     O_R   0.360632 0.273395 0.889069 -0.385318
O10   O     O_R   0.328931 0.526883 0.995846 -0.341532
N4    N     N_R   0.611882 0.578862 0.041557 0.264356
O11   O     O_R   0.639324 0.726662 0.111030 -0.385332
O12   O     O_R   0.671092 0.473217 0.004169 -0.341535

loop_
_geom_bond_atom_site_label_1
_geom_bond_atom_site_label_2
_geom_bond_distance
_ccdc_geom_bond_type
C4    C7    1.442925 S    
C6    C24   1.519192 S    
O5    Cu1   1.961144 S    
O7    Cu2   1.944624 S    
C3    C8    1.442922 S    
N2    N4    1.384296 S    
Cu1   Cu2   2.711479 S    
C17   C19   1.394655 A    
C23   H8    1.106947 S    
C23   H7    1.107406 S    
C21   C22   1.331373 D    
O6    C4    1.299356 A    
C13   C14   1.411147 A    
C25   H15   1.106260 S    
C9    H1    1.086579 S    
C23   H9    1.108614 S    
C25   H14   1.108934 S    
C18   C20   1.394655 A    
C11   C17   1.391031 A    
C19   C25   1.513642 S    
C18   H4    1.085681 S    
C24   H11   1.108614 S    
C12   C18   1.391029 A    
C26   H16   1.111204 S    
C17   H3    1.085681 S    
N4    O12   1.302098 A    
O5    C3    1.299356 A    
O7    C3    1.296554 A    
N3    O9    1.300542 A    
O2    C2    1.296332 A    
O3    Cu2   1.945692 S    
O8    C4    1.296554 A    
O1    C1    1.296332 A    
C1    C21   1.427326 S    
C22   H6    1.087508 S    
C9    C11   1.381700 A    
C2    C22   1.427325 S    
C8    C10   1.382708 A    
C26   H17   1.106260 S    
C11   C13   1.407353 A    
C6    C16   1.429383 A    
O2    Cu2   1.946892 S    
C20   C26   1.513642 S    
C12   C14   1.407351 A    
C5    C15   1.429387 A    
O4    C2    1.294962 A    
N3    O10   1.302081 A    
C10   C12   1.381703 A    
N1    N2    1.293707 D    
N1    N3    1.384282 S    
O4    Cu1   1.945692 S    
C13   C15   1.435890 A    
O1    Cu1   1.946892 S    
C5    C23   1.519193 S    
C16   C19   1.431965 A    
C6    C8    1.411388 A    
C25   H13   1.111205 S    
C10   H2    1.086578 S    
C26   H18   1.108932 S    
C15   C20   1.431967 A    
C5    C7    1.411389 A    
C7    C9    1.382708 A    
Cu1   N2    2.037446 S    
O6    Cu2   1.961144 S    
C24   H12   1.106948 S    
C21   H5    1.087508 S    
Cu2   N1    2.037447 S    
C24   H10   1.107409 S    
C14   C16   1.435888 A    
N4    O11   1.300558 A    
O3    C1    1.294962 A    
O8    Cu1   1.944624 S    
