data_str_m9_o16_o25_f0_sra.sym.215
_audit_creation_date              2013-03-05T15:49:06-0500
_audit_creation_method            fapswitch 2.2
_symmetry_space_group_name_H-M    P1
_symmetry_Int_Tables_number       1
_space_group_crystal_system       triclinic
_cell_length_a                    22.274623
_cell_length_b                    7.230382
_cell_length_c                    19.220527
_cell_angle_alpha                 89.969049
_cell_angle_beta                  99.179318
_cell_angle_gamma                 89.962168
_cell_volume                      3055.90027572

loop_
_atom_site_label
_atom_site_type_symbol
_atom_site_description
_atom_site_fract_x
_atom_site_fract_y
_atom_site_fract_z
_atom_type_partial_charge
O1    O     O_R   0.448470 0.506130 0.415700 -0.574363
O2    O     O_R   0.551530 0.006130 0.584300 -0.570826
O3    O     O_R   0.436320 0.174490 0.555800 -0.568556
O4    O     O_R   0.563680 0.674490 0.444200 -0.569023
C1    C     C_R   0.421178 0.344406 0.575158 0.940368
C2    C     C_R   0.578861 0.844396 0.424888 0.939880
O5    O     O_R   0.441350 0.176340 0.414480 -0.587368
O6    O     O_R   0.558650 0.676340 0.585520 -0.588575
O7    O     O_R   0.556600 0.007100 0.441970 -0.564615
O8    O     O_R   0.443400 0.507100 0.558030 -0.571937
C3    C     C_R   0.427459 0.344688 0.388784 1.001036
C4    C     C_R   0.572548 0.844488 0.611230 0.998683
O9    O     O_3   0.537810 0.339550 0.509190 -0.277085
O10   O     O_3   0.462190 0.839550 0.490810 -0.283140
V1    V     V_3+5 0.492990 0.064280 0.498300 1.251708
V2    V     V_3+5 0.507010 0.564280 0.501700 1.248309
C5    C     C_R   0.865951 0.002336 0.695790 -0.112041
C6    C     C_R   0.132754 0.480617 0.305078 -0.111670
H1    H     H_    0.952413 0.038750 0.761193 0.114270
H2    H     H_    0.045147 0.499272 0.240620 0.112506
H3    H     H_    0.884420 0.049876 0.650296 0.152098
H4    H     H_    0.112655 0.502239 0.351976 0.150858
C7    C     C_R   0.884772 0.943661 0.821238 -0.091998
C8    C     C_R   0.115303 0.442460 0.178558 -0.089560
C9    C     C_R   0.589878 0.804124 0.741784 0.343155
C10   C     C_R   0.410436 0.306465 0.258144 0.342409
C11   C     C_R   0.629152 0.790957 0.805962 -0.168795
C12   C     C_R   0.371402 0.297102 0.193702 -0.168313
C13   C     C_R   0.691190 0.823554 0.810583 -0.232203
C14   C     C_R   0.309503 0.332645 0.188833 -0.231417
C15   C     C_R   0.717175 0.870662 0.750561 0.109358
C16   C     C_R   0.283417 0.378993 0.248858 0.110219
C17   C     C_R   0.677520 0.883551 0.684494 0.064975
C18   C     C_R   0.322751 0.386981 0.315242 0.065623
C19   C     C_R   0.781113 0.905712 0.754284 0.103642
C20   C     C_R   0.219481 0.414344 0.245032 0.105607
C21   C     C_R   0.804061 0.953323 0.691373 0.074214
C22   C     C_R   0.196061 0.455467 0.308244 0.073897
C23   C     C_R   0.764416 0.957294 0.625865 -0.108233
C24   C     C_R   0.236033 0.466330 0.373382 -0.103487
C25   C     C_R   0.702230 0.925840 0.623663 -0.238497
C26   C     C_R   0.297969 0.429653 0.375988 -0.239627
C27   C     C_R   0.823155 0.897911 0.818689 -0.219288
C28   C     C_R   0.177740 0.410308 0.180381 -0.218001
C29   C     C_R   0.905397 0.998172 0.759704 -0.169580
C30   C     C_R   0.093293 0.476089 0.241183 -0.169012
C31   C     C_R   0.613792 0.849636 0.680068 -0.334113
C32   C     C_R   0.386377 0.350840 0.319870 -0.335816
H5    H     H_    0.809513 0.861081 0.868152 0.103916
H6    H     H_    0.192116 0.385700 0.130300 0.102491
H7    H     H_    0.717452 0.810590 0.862425 0.142243
H8    H     H_    0.283358 0.321307 0.136875 0.142502
H9    H     H_    0.611397 0.756443 0.853617 0.177277
H10   H     H_    0.389239 0.263166 0.146050 0.177319
H11   H     H_    0.673093 0.931221 0.572869 0.124641
H12   H     H_    0.327233 0.438813 0.426610 0.124030
C33   C     C_3   0.765221 0.756425 0.295009 -0.128355
C34   C     C_3   0.235291 0.255719 0.705648 -0.105304
C35   C     C_3   0.805386 0.929328 0.289011 -0.172971
C36   C     C_3   0.194788 0.428201 0.711265 -0.160768
H13   H     H_    0.850952 0.954065 0.320468 0.132944
H14   H     H_    0.149157 0.452025 0.679794 0.135090
H15   H     H_    0.777344 0.638437 0.331542 0.131114
H16   H     H_    0.223399 0.137144 0.669411 0.129731
H17   H     H_    0.747545 0.185397 0.319253 0.152081
H18   H     H_    0.252089 0.684620 0.680395 0.141994
C37   C     C_1   0.875391 0.940592 0.121374 -0.248744
C38   C     C_1   0.124701 0.440513 0.878753 -0.248996
C39   C     C_1   0.625063 0.854245 0.379581 -0.173700
C40   C     C_1   0.375077 0.354264 0.620599 -0.168993
C41   C     C_3   0.751613 0.742926 0.213417 -0.153746
C42   C     C_3   0.248953 0.243279 0.787266 -0.164607
C43   C     C_3   0.791315 0.915518 0.207908 0.118286
C44   C     C_3   0.208912 0.415440 0.792393 0.110573
C45   C     C_3   0.694995 0.869056 0.212649 -0.150315
C46   C     C_3   0.305317 0.370068 0.787709 -0.157274
C47   C     C_3   0.709352 0.883007 0.293650 0.195476
C48   C     C_3   0.290901 0.382975 0.706679 0.195949
C49   C     C_3   0.735427 0.040266 0.207344 -0.074370
C50   C     C_3   0.264548 0.540848 0.792647 -0.070112
C51   C     C_3   0.748886 0.055960 0.288463 -0.184348
C52   C     C_3   0.251028 0.555515 0.711492 -0.188341
C53   C     C_1   0.837475 0.930167 0.160268 0.059922
C54   C     C_1   0.162687 0.430074 0.839951 0.061908
C55   C     C_1   0.663269 0.865904 0.341143 0.067480
C56   C     C_1   0.336946 0.365901 0.659136 0.082625
H19   H     H_    0.649402 0.844651 0.181186 0.170357
H20   H     H_    0.350972 0.346594 0.819201 0.171530
H21   H     H_    0.753018 0.613909 0.182503 0.153821
H22   H     H_    0.247800 0.114657 0.818500 0.156210
O11   O     O_R   0.056650 0.288730 0.942060 -0.586945
O12   O     O_R   0.943350 0.788730 0.057940 -0.586831
O13   O     O_R   0.058660 0.616870 0.085540 -0.582484
O14   O     O_R   0.941340 0.116870 0.914460 -0.584149
C57   C     C_R   0.072807 0.448718 0.111133 0.903292
C58   C     C_R   0.927206 0.948921 0.888802 0.903394
O15   O     O_R   0.063700 0.618520 0.944220 -0.574618
O16   O     O_R   0.936300 0.118520 0.055780 -0.574859
O17   O     O_R   0.948460 0.787610 0.915680 -0.582923
O18   O     O_R   0.051540 0.287610 0.084320 -0.583198
C59   C     C_R   0.078860 0.450034 0.924608 0.947164
C60   C     C_R   0.921158 0.950057 0.075422 0.948235
O19   O     O_3   0.962230 0.453430 0.990860 -0.280265
O20   O     O_3   0.037770 0.953430 0.009140 -0.279522
V3    V     V_3+5 0.007010 0.728750 0.001700 1.180854
V4    V     V_3+5 0.992990 0.228750 0.998300 1.179674
C61   C     C_2   0.717095 0.200802 0.159331 0.988482
O21   O     O_2   0.671172 0.288162 0.165157 -0.602568
O22   O     O_R   0.752384 0.250048 0.108335 -0.811310
H23   H     H_    0.735237 0.360591 0.079260 0.322178
C62   C     C_2   0.282602 0.701956 0.840354 0.988242
O23   O     O_2   0.328311 0.789920 0.834278 -0.604206
O24   O     O_R   0.247319 0.750940 0.891390 -0.811056
H24   H     H_    0.264302 0.861764 0.920304 0.322114
C63   C     C_2   0.786117 0.988247 0.557542 0.990817
O25   O     O_2   0.757070 0.088003 0.512892 -0.646869
O26   O     O_R   0.837896 0.896434 0.542745 -0.809466
H25   H     H_    0.847203 0.926415 0.494033 0.321620
C64   C     C_2   0.215562 0.521616 0.440281 0.995215
O27   O     O_2   0.233883 0.436829 0.494636 -0.659146
O28   O     O_R   0.177852 0.675704 0.441986 -0.806283
H26   H     H_    0.167965 0.700580 0.490825 0.323618
N1    N     N_R   0.525942 0.769372 0.740325 0.231155
O29   O     O_R   0.508159 0.656829 0.785830 -0.374044
O30   O     O_R   0.485099 0.864084 0.699076 -0.391154
N2    N     N_R   0.474269 0.269233 0.259818 0.231300
O31   O     O_R   0.491783 0.157358 0.213943 -0.373085
O32   O     O_R   0.515366 0.361256 0.301643 -0.388611

loop_
_geom_bond_atom_site_label_1
_geom_bond_atom_site_label_2
_geom_bond_distance
_ccdc_geom_bond_type
C2    C39   1.452058 S    
C41   C45   1.553991 S    
C37   C53   1.216243 T    
N2    O31   1.301565 A    
C7    C29   1.392223 A    
C11   C13   1.390801 A    
C62   O23   1.222093 D    
O1    C3    1.331672 A    
C42   C46   1.553980 S    
O2    C4    1.332048 A    
C2    O7    1.337611 A    
C39   C55   1.215659 T    
N1    O29   1.301618 A    
C23   C25   1.397823 A    
O5    C3    1.330934 A    
C16   C20   1.437022 A    
C19   C21   1.427903 A    
C5    C29   1.391978 A    
C33   C35   1.552684 S    
C34   C36   1.552609 S    
C63   O25   1.223478 D    
C58   O17   1.331146 A    
C7    C27   1.405255 A    
C7    C58   1.479786 S    
C36   H14   1.110028 S    
C10   N2    1.442243 S    
C36   C44   1.543464 S    
C45   C47   1.541983 S    
C25   H11   1.083349 S    
C14   H8    1.076001 S    
O13   V3    1.995151 S    
C36   C52   1.554498 S    
C63   O26   1.398449 S    
C18   C26   1.403182 A    
C61   O21   1.222157 D    
C15   C17   1.429443 A    
C19   C27   1.429165 A    
C9    C31   1.414401 A    
O12   C60   1.330610 A    
C26   H12   1.083404 S    
C48   C56   1.483639 S    
C24   C26   1.397708 A    
C47   C55   1.483644 S    
O6    V2    1.996623 S    
C22   C24   1.418073 A    
C44   C50   1.535426 S    
C61   O22   1.396847 S    
O11   V4    1.963833 S    
C3    C32   1.485593 S    
O11   C59   1.330700 A    
C4    C31   1.486026 S    
C6    C30   1.391961 A    
O20   V3    1.760521 S    
C33   H15   1.110104 S    
C64   O28   1.398381 S    
C34   H16   1.110128 S    
O17   V3    1.981442 S    
C35   H13   1.110070 S    
C46   C48   1.541975 S    
C38   C54   1.216193 T    
C33   C47   1.541138 S    
C38   C59   1.453027 S    
C42   C44   1.543172 S    
C8    C57   1.478523 S    
C49   C51   1.544287 S    
C12   H10   1.083101 S    
C57   O18   1.330572 A    
C27   H5    1.076616 S    
O16   C60   1.334387 A    
C5    H3    1.080111 S    
C16   C18   1.429147 A    
O4    V2    1.973649 S    
C1    C40   1.452058 S    
H18   C52   1.110459 S    
C42   H22   1.109188 S    
C48   C52   1.542272 S    
H17   C51   1.110497 S    
C41   H21   1.109379 S    
C47   C51   1.542245 S    
O6    C4    1.330589 A    
H1    C29   1.083739 S    
C43   C49   1.535454 S    
C49   C61   1.497890 S    
C62   O24   1.396893 S    
O1    V2    1.980700 S    
C5    C21   1.413014 A    
C33   C41   1.552192 S    
C64   O27   1.223427 D    
O14   C58   1.329870 A    
O2    V1    1.979957 S    
C9    N1    1.442189 S    
O28   H26   1.013955 S    
C45   H19   1.110239 S    
C17   C25   1.403071 A    
C23   C63   1.486819 S    
C17   C31   1.429815 A    
C15   C19   1.437235 A    
C20   C28   1.428606 A    
O4    C2    1.342164 A    
C18   C32   1.429708 A    
C20   C22   1.427969 A    
C40   C56   1.215650 T    
O3    V1    1.973458 S    
C41   C43   1.543286 S    
O24   H24   1.013823 S    
C13   H7    1.075964 S    
C28   H6    1.076683 S    
C46   H20   1.110231 S    
O14   V4    1.996469 S    
N2    O32   1.301356 A    
C6    H4    1.079919 S    
C10   C12   1.396889 A    
C35   C51   1.554525 S    
C44   C54   1.485662 S    
O3    C1    1.342220 A    
C46   C50   1.544210 S    
C11   H9    1.083099 S    
C10   C32   1.414482 A    
C9    C11   1.396947 A    
O18   V4    1.982197 S    
O16   V4    1.973778 S    
C8    C30   1.391682 A    
C12   C14   1.390744 A    
C6    C22   1.413344 A    
O15   V3    1.973587 S    
C1    O8    1.337728 A    
C13   C15   1.412373 A    
O8    V2    1.959707 S    
O26   H25   1.014067 S    
C14   C16   1.412452 A    
C34   C42   1.552135 S    
C8    C28   1.404801 A    
C50   C62   1.497858 S    
O5    V1    1.995301 S    
C50   C52   1.544330 S    
O19   V4    1.759542 S    
O7    V1    1.959558 S    
C35   C43   1.543545 S    
H2    C30   1.083697 S    
N1    O30   1.301411 A    
C34   C48   1.541135 S    
O12   V3    1.963676 S    
C21   C23   1.418154 A    
C24   C64   1.486090 S    
O13   C57   1.329981 A    
O9    V2    1.760229 S    
O10   V1    1.761209 S    
O22   H23   1.013920 S    
C45   C49   1.544193 S    
C43   C53   1.485699 S    
O15   C59   1.334446 A    
C37   C60   1.453061 S    
