data_str_m4_o14_o24_f0_acs.sym.87
_audit_creation_date              2012-12-11T14:25:01-0500
_audit_creation_method            fapswitch 2.2
_symmetry_space_group_name_H-M    P1
_symmetry_Int_Tables_number       1
_space_group_crystal_system       triclinic
_cell_length_a                    19.218588
_cell_length_b                    10.888275
_cell_length_c                    18.814576
_cell_angle_alpha                 90.52405
_cell_angle_beta                  92.229546
_cell_angle_gamma                 89.085067
_cell_volume                      3933.46163461

loop_
_atom_site_label
_atom_site_type_symbol
_atom_type_description
_atom_site_fract_x
_atom_site_fract_y
_atom_site_fract_z
_atom_type_partial_charge
C1    C     C_R   0.730248 0.378845 0.147509 0.530847
C2    C     C_R   0.271156 0.377724 0.853264 0.516726
C3    C     C_R   0.230434 0.879088 0.147650 0.531989
C4    C     C_R   0.770635 0.878575 0.852901 0.517714
C5    C     C_3   0.439824 0.087361 0.042761 -0.121926
C6    C     C_3   0.484984 0.045558 0.980822 -0.093488
C7    C     C_3   0.936247 0.594039 0.043769 -0.125837
C8    C     C_3   0.979876 0.545149 0.982252 -0.093461
C9    C     C_R   0.754947 0.921801 0.924833 -0.001894
C10   C     C_R   0.250279 0.922554 0.077406 -0.008795
C11   C     C_R   0.256776 0.419187 0.925717 -0.000125
C12   C     C_R   0.749200 0.421206 0.076797 -0.008386
C13   C     C_R   0.692574 0.891685 0.956037 -0.025349
C14   C     C_R   0.305718 0.865930 0.041489 -0.024070
C15   C     C_R   0.193203 0.395181 0.955839 -0.027285
C16   C     C_R   0.806007 0.367762 0.041697 -0.023480
C17   C     C_R   0.691416 0.877552 0.030906 -0.000118
C18   C     C_R   0.303522 0.860864 0.966029 0.001291
C19   C     C_R   0.190644 0.379936 0.030486 -0.002292
C20   C     C_R   0.804506 0.361523 0.966237 0.001687
C21   C     C_R   0.808112 0.958065 0.041244 -0.152212
C22   C     C_R   0.202827 0.999726 0.966006 -0.146302
C23   C     C_R   0.309791 0.448130 0.043007 -0.150405
C24   C     C_R   0.699915 0.491040 0.964453 -0.146840
C25   C     C_R   0.811773 0.957229 0.968480 -0.157045
C26   C     C_R   0.201095 0.993244 0.038919 -0.152136
C27   C     C_R   0.314499 0.446867 0.970270 -0.155502
C28   C     C_R   0.698113 0.486085 0.037335 -0.151493
C29   C     C_R   0.634039 0.860998 0.913297 -0.053434
C30   C     C_R   0.361480 0.808230 0.079367 -0.050799
C31   C     C_R   0.134394 0.371382 0.911979 -0.052863
C32   C     C_R   0.862340 0.313617 0.080501 -0.050335
C33   C     C_R   0.083738 0.296169 0.935808 0.207628
C34   C     C_R   0.904915 0.227738 0.049299 0.203438
C35   C     C_R   0.586119 0.781626 0.938697 0.207151
C36   C     C_R   0.402882 0.721805 0.047014 0.212438
C37   C     C_R   0.589185 0.751517 0.010543 -0.117610
C38   C     C_R   0.395888 0.704284 0.973668 -0.082026
C39   C     C_R   0.085071 0.263645 0.007300 -0.122223
C40   C     C_R   0.899215 0.209333 0.975933 -0.092633
C41   C     C_R   0.638026 0.806140 0.057769 -0.127268
C42   C     C_R   0.349119 0.777304 0.932643 -0.112561
C43   C     C_R   0.134786 0.312747 0.055862 -0.129562
C44   C     C_R   0.851984 0.280057 0.933869 -0.110000
C45   C     C_R   0.530641 0.156061 0.145009 0.552036
C46   C     C_R   0.436932 0.151579 0.862424 0.562593
C47   C     C_R   0.030560 0.656162 0.145012 0.552120
C48   C     C_R   0.936605 0.651609 0.862361 0.563116
C49   C     C_R   0.747637 0.924185 0.074124 -0.004775
C50   C     C_R   0.253443 0.934881 0.927840 0.000525
C51   C     C_R   0.247648 0.421281 0.074736 -0.004145
C52   C     C_R   0.752986 0.431532 0.927183 -0.000454
C53   C     C_R   0.457406 0.147562 0.564347 -0.002542
C54   C     C_R   0.514095 0.160277 0.429550 0.007552
C55   C     C_R   0.957405 0.647562 0.564347 -0.002664
C56   C     C_R   0.014091 0.660279 0.429548 0.007534
C57   C     C_R   0.491385 0.041144 0.535362 0.033926
C58   C     C_R   0.528099 0.056438 0.473613 0.019850
C59   C     C_R   0.991387 0.541147 0.535362 0.033690
C60   C     C_R   0.028100 0.556444 0.473613 0.019832
C61   C     C_R   0.472339 0.256693 0.453975 -0.145753
C62   C     C_R   0.446502 0.252370 0.522164 -0.162046
C63   C     C_R   0.972332 0.756693 0.453973 -0.145721
C64   C     C_R   0.946498 0.752370 0.522163 -0.161992
C65   C     C_R   0.492927 0.920406 0.565811 -0.090921
C66   C     C_R   0.576977 0.964336 0.456386 -0.075758
C67   C     C_R   0.992934 0.420409 0.565813 -0.090383
C68   C     C_R   0.076982 0.464350 0.456387 -0.075605
C69   C     C_R   0.034268 0.326328 0.540671 -0.145606
C70   C     C_R   0.074642 0.347331 0.484114 -0.123473
C71   C     C_R   0.534258 0.826320 0.540670 -0.146019
C72   C     C_R   0.574634 0.847319 0.484114 -0.123555
C73   C     C_R   0.751226 0.908800 0.572496 0.007604
C74   C     C_R   0.240201 0.930961 0.425229 0.003803
C75   C     C_R   0.251230 0.408787 0.572492 0.007612
C76   C     C_R   0.740198 0.430950 0.425232 0.003761
C77   C     C_R   0.783181 0.011414 0.544864 0.017741
C78   C     C_R   0.180372 0.961269 0.466143 0.035938
C79   C     C_R   0.283185 0.511399 0.544857 0.017736
C80   C     C_R   0.680368 0.461250 0.466148 0.036045
C81   C     C_R   0.802086 0.005973 0.474081 0.037694
C82   C     C_R   0.183156 0.932167 0.538150 0.018978
C83   C     C_R   0.302093 0.505949 0.474076 0.037792
C84   C     C_R   0.683155 0.432151 0.538154 0.018928
C85   C     C_R   0.732696 0.824214 0.453639 -0.186841
C86   C     C_R   0.309073 0.924796 0.531559 -0.146241
C87   C     C_R   0.232703 0.324193 0.453635 -0.186880
C88   C     C_R   0.809073 0.424784 0.531562 -0.146266
C89   C     C_R   0.740619 0.969656 0.147814 0.535362
C90   C     C_R   0.259593 0.971221 0.852767 0.525206
C91   C     C_R   0.240573 0.469266 0.147915 0.535879
C92   C     C_R   0.759505 0.470467 0.852534 0.525664
C93   C     C_R   0.728640 0.812889 0.526817 -0.149767
C94   C     C_R   0.304694 0.916290 0.458782 -0.153348
C95   C     C_R   0.228646 0.312872 0.526815 -0.149802
C96   C     C_R   0.804692 0.416280 0.458784 -0.153367
C97   C     C_R   0.807642 0.107581 0.589327 -0.072391
C98   C     C_R   0.118207 0.018255 0.438499 -0.085796
C99   C     C_R   0.307642 0.607573 0.589316 -0.072418
C100  C     C_R   0.618202 0.518232 0.438505 -0.085816
C101  C     C_R   0.863256 0.176472 0.569392 -0.111123
C102  C     C_R   0.058043 0.021387 0.477290 -0.145582
C103  C     C_R   0.363252 0.676472 0.569377 -0.111129
C104  C     C_R   0.558039 0.521366 0.477299 -0.145624
C105  C     C_R   0.888757 0.161881 0.501736 -0.151992
C106  C     C_R   0.058772 0.972589 0.545267 -0.115054
C107  C     C_R   0.388757 0.661869 0.501723 -0.151891
C108  C     C_R   0.558772 0.472573 0.545277 -0.114994
C109  C     C_R   0.859136 0.077298 0.454531 -0.083683
C110  C     C_R   0.120968 0.927420 0.575782 -0.073654
C111  C     C_R   0.359144 0.577271 0.454525 -0.083683
C112  C     C_R   0.620969 0.427404 0.575791 -0.073641
C113  C     C_R   0.764436 0.926118 0.426722 -0.004368
C114  C     C_R   0.249103 0.925561 0.571974 -0.002161
C115  C     C_R   0.264442 0.426097 0.426717 -0.004338
C116  C     C_R   0.749102 0.425552 0.571978 -0.002181
C117  C     C_R   0.729841 0.383142 0.353631 0.537980
C118  C     C_R   0.269081 0.377026 0.645289 0.523617
C119  C     C_R   0.229842 0.883145 0.353630 0.537922
C120  C     C_R   0.769081 0.877028 0.645291 0.523434
C121  C     C_R   0.537817 0.157072 0.356123 0.537425
C122  C     C_R   0.436423 0.151139 0.638626 0.550060
C123  C     C_R   0.037810 0.657073 0.356120 0.537326
C124  C     C_R   0.936423 0.651139 0.638626 0.549600
C125  C     C_R   0.745128 0.969522 0.355403 0.529297
C126  C     C_R   0.257433 0.969046 0.644142 0.520474
C127  C     C_R   0.245130 0.469512 0.355401 0.529260
C128  C     C_R   0.757433 0.469045 0.644143 0.520132
C129  C     C_3   0.519607 0.235469 0.968220 -0.104434
C130  C     C_3   0.474134 0.277098 0.030493 -0.121752
C131  C     C_3   0.021170 0.730148 0.967652 -0.105756
C132  C     C_3   0.977213 0.778924 0.029462 -0.117780
C133  C     C_3   0.545946 0.122708 0.011117 -0.106843
C134  C     C_3   0.412984 0.199254 0.999281 -0.155105
C135  C     C_3   0.043479 0.616435 0.011698 -0.105566
C136  C     C_3   0.913424 0.706987 0.998956 -0.151863
C137  C     C_3   0.500252 0.164232 0.072411 0.049264
C138  C     C_3   0.458991 0.158132 0.938319 0.039875
C139  C     C_3   0.999392 0.664913 0.072631 0.048421
C140  C     C_3   0.957975 0.658600 0.938485 0.039524
Cr1   Cr    Cr6+3 0.772820 0.169820 0.252640 1.046698
Cr2   Cr    Cr6+3 0.227180 0.169820 0.747360 1.049184
Cr3   Cr    Cr6+3 0.272820 0.669820 0.252640 1.044748
Cr4   Cr    Cr6+3 0.727180 0.669820 0.747360 1.049120
Cr5   Cr    Cr6+3 0.615040 0.323610 0.249150 1.048264
Cr6   Cr    Cr6+3 0.384960 0.323610 0.750850 1.037702
Cr7   Cr    Cr6+3 0.115040 0.823610 0.249150 1.049919
Cr8   Cr    Cr6+3 0.884960 0.823610 0.750850 1.035875
Cr9   Cr    Cr6+3 0.616720 0.011130 0.250660 1.022753
Cr10  Cr    Cr6+3 0.383280 0.011130 0.749340 1.023227
Cr11  Cr    Cr6+3 0.116720 0.511130 0.250660 1.023892
Cr12  Cr    Cr6+3 0.883280 0.511130 0.749340 1.028943
H1    H     H_    0.601169 0.092067 0.017185 0.129581
H2    H     H_    0.356779 0.221630 0.992883 0.125028
H3    H     H_    0.097659 0.580762 0.018102 0.131902
H4    H     H_    0.858156 0.735294 0.992074 0.126237
H5    H     H_    0.460412 0.335531 0.420739 0.128210
H6    H     H_    0.417232 0.330538 0.541870 0.139647
H7    H     H_    0.960402 0.835529 0.420737 0.128321
H8    H     H_    0.917227 0.830536 0.541870 0.139706
H9    H     H_    0.460465 0.889400 0.606606 0.146654
H10   H     H_    0.617012 0.983075 0.421465 0.176595
H11   H     H_    0.960473 0.389400 0.606608 0.147283
H12   H     H_    0.117017 0.483097 0.421468 0.176543
H13   H     H_    0.033577 0.236197 0.564391 0.127239
H14   H     H_    0.103955 0.272422 0.462181 0.118250
H15   H     H_    0.533563 0.736190 0.564390 0.126956
H16   H     H_    0.603948 0.772407 0.462183 0.118191
H17   H     H_    0.710313 0.755474 0.418035 0.113633
H18   H     H_    0.359647 0.932295 0.556286 0.128640
H19   H     H_    0.210321 0.255451 0.418032 0.113737
H20   H     H_    0.859648 0.432282 0.556288 0.128420
H21   H     H_    0.788706 0.121009 0.642398 0.125019
H22   H     H_    0.115636 0.064529 0.387834 0.137110
H23   H     H_    0.288704 0.621008 0.642386 0.124855
H24   H     H_    0.615627 0.564507 0.387841 0.136679
H25   H     H_    0.708225 0.728813 0.547562 0.157285
H26   H     H_    0.351186 0.900781 0.428942 0.131987
H27   H     H_    0.208232 0.228798 0.547561 0.157301
H28   H     H_    0.851184 0.400772 0.428943 0.132128
H29   H     H_    0.886283 0.240087 0.607163 0.111695
H30   H     H_    0.010967 0.061543 0.454051 0.102874
H31   H     H_    0.386273 0.740098 0.607144 0.111132
H32   H     H_    0.510963 0.561519 0.454061 0.102654
H33   H     H_    0.930480 0.217350 0.484464 0.115246
H34   H     H_    0.011971 0.974681 0.575430 0.132601
H35   H     H_    0.430478 0.717342 0.484449 0.115211
H36   H     H_    0.511973 0.474667 0.575444 0.132670
H37   H     H_    0.884707 0.063998 0.404882 0.141553
H38   H     H_    0.121123 0.894472 0.629937 0.138324
H39   H     H_    0.384717 0.563959 0.404877 0.141172
H40   H     H_    0.621128 0.394471 0.629947 0.138699
H41   H     H_    0.552441 0.295917 0.936692 0.143878
H42   H     H_    0.470344 0.371765 0.052213 0.173091
H43   H     H_    0.056149 0.785544 0.935506 0.140635
H44   H     H_    0.976141 0.874673 0.050041 0.172234
H45   H     H_    0.407663 0.032109 0.077296 0.119444
H46   H     H_    0.486972 0.950357 0.959912 0.175415
H47   H     H_    0.901739 0.544032 0.078639 0.117423
H48   H     H_    0.978317 0.449306 0.962442 0.178828
H49   H     H_    0.853867 0.983697 0.072279 0.204597
H50   H     H_    0.163595 0.057528 0.939670 0.183471
H51   H     H_    0.355752 0.468714 0.075076 0.201203
H52   H     H_    0.658890 0.543803 0.937395 0.189216
H53   H     H_    0.629492 0.886512 0.857808 0.168205
H54   H     H_    0.372581 0.827190 0.135109 0.164417
H55   H     H_    0.131597 0.398393 0.856675 0.167692
H56   H     H_    0.872432 0.333793 0.136272 0.164181
H57   H     H_    0.862105 0.972970 0.947054 0.154555
H58   H     H_    0.158467 0.039192 0.064837 0.158322
H59   H     H_    0.365675 0.457091 0.949519 0.154626
H60   H     H_    0.653920 0.528283 0.062495 0.158385
H61   H     H_    0.049881 0.196123 0.023858 0.202821
H62   H     H_    0.930631 0.138665 0.951902 0.183661
H63   H     H_    0.556566 0.680929 0.028483 0.204199
H64   H     H_    0.425805 0.632623 0.948787 0.188653
H65   H     H_    0.638579 0.779811 0.113044 0.158844
H66   H     H_    0.345514 0.760859 0.875897 0.161006
H67   H     H_    0.133666 0.285440 0.110892 0.163487
H68   H     H_    0.849351 0.262898 0.877169 0.166486
O1    O     O_R   0.788190 0.043000 0.172520 -0.483380
O2    O     O_R   0.211810 0.043000 0.827480 -0.494495
O3    O     O_R   0.288190 0.543000 0.172520 -0.482166
O4    O     O_R   0.711810 0.543000 0.827480 -0.491013
O5    O     O_R   0.556550 0.253260 0.323480 -0.497229
O6    O     O_R   0.443450 0.253260 0.676520 -0.485895
O7    O     O_R   0.056550 0.753260 0.323480 -0.497150
O8    O     O_R   0.943450 0.753260 0.676520 -0.486525
O9    O     O_R   0.545830 0.051610 0.330160 -0.531577
O10   O     O_R   0.454170 0.051610 0.669840 -0.526134
O11   O     O_R   0.045830 0.551610 0.330160 -0.531131
O12   O     O_R   0.954170 0.551610 0.669840 -0.524586
O13   O     O_R   0.681920 0.959720 0.327070 -0.527085
O14   O     O_R   0.318080 0.959720 0.672930 -0.537624
O15   O     O_R   0.181920 0.459720 0.327070 -0.526810
O16   O     O_R   0.818080 0.459720 0.672930 -0.537424
O17   O     O_3   0.668190 0.168190 0.250820 -0.258276
O18   O     O_3   0.331810 0.168190 0.749180 -0.296656
O19   O     O_3   0.168190 0.668190 0.250820 -0.258313
O20   O     O_3   0.831810 0.668190 0.749180 -0.297121
O21   O     O_R   0.766240 0.292300 0.176860 -0.505006
O22   O     O_R   0.233760 0.292300 0.823140 -0.495651
O23   O     O_R   0.266240 0.792300 0.176860 -0.506432
O24   O     O_R   0.733760 0.792300 0.823140 -0.496302
O25   O     O_R   0.670310 0.409160 0.168720 -0.512298
O26   O     O_R   0.329690 0.409160 0.831280 -0.526147
O27   O     O_R   0.170310 0.909160 0.168720 -0.510379
O28   O     O_R   0.829690 0.909160 0.831280 -0.526496
O29   O     O_R   0.556160 0.251900 0.173380 -0.487590
O30   O     O_R   0.443840 0.251900 0.826620 -0.485931
O31   O     O_R   0.056160 0.751900 0.173380 -0.487607
O32   O     O_R   0.943840 0.751900 0.826620 -0.487438
O33   O     O_R   0.545410 0.050140 0.168240 -0.507912
O34   O     O_R   0.454590 0.050140 0.831760 -0.489141
O35   O     O_R   0.045410 0.550140 0.168240 -0.507264
O36   O     O_R   0.954590 0.550140 0.831760 -0.480730
O37   O     O_R   0.681530 0.958350 0.176970 -0.511288
O38   O     O_R   0.318470 0.958350 0.823030 -0.521376
O39   O     O_R   0.181530 0.458350 0.176970 -0.512106
O40   O     O_R   0.818470 0.458350 0.823030 -0.521132
O41   O     O_R   0.788610 0.044480 0.334450 -0.524066
O42   O     O_R   0.211390 0.044480 0.665550 -0.514010
O43   O     O_R   0.288610 0.544480 0.334450 -0.524559
O44   O     O_R   0.711390 0.544480 0.665550 -0.514027
O45   O     O_R   0.766630 0.293670 0.326970 -0.493786
O46   O     O_R   0.233370 0.293670 0.673030 -0.498113
O47   O     O_R   0.266630 0.793670 0.326970 -0.494186
O48   O     O_R   0.733370 0.793670 0.673030 -0.498860
O49   O     O_R   0.670730 0.410640 0.330640 -0.537520
O50   O     O_R   0.329270 0.410640 0.669360 -0.529991
O51   O     O_R   0.170730 0.910640 0.330640 -0.537354
O52   O     O_R   0.829270 0.910640 0.669360 -0.529977
Cl1   Cl    Cl    0.025776 0.231902 0.872159 -0.677277
Cl2   Cl    Cl    0.957731 0.134510 0.105983 -0.724319
Cl3   Cl    Cl    0.530233 0.708386 0.876636 -0.680316
Cl4   Cl    Cl    0.456188 0.627579 0.102329 -0.727831

loop_
_geom_bond_atom_site_label_1
_geom_bond_atom_site_label_2
_ccdc_geom_bond_type
C128  O16   A    
C99   C103  A    
C88   C96   A    
C24   C52   A    
C88   H20   S    
C55   C59   A    
C78   C82   A    
C24   H52   S    
Cr8   O52   S    
Cr8   O8    S    
Cr8   O28   S    
C78   C98   A    
C136  C140  S    
C21   C49   A    
C9    C25   A    
C7    C8    S    
C130  C134  S    
C49   C89   S    
C132  C139  S    
C133  C137  S    
C74   C119  S    
C34   Cl2   S    
C58   C66   A    
Cr2   O2    S    
C33   C39   A    
C75   C79   A    
C21   C25   A    
Cr2   O22   S    
Cr6   O30   S    
C37   C41   A    
C120  O48   A    
C82   C110  A    
Cr6   O50   S    
C13   C29   A    
C35   C37   A    
C38   C42   A    
C6    C133  S    
C61   H5    S    
C53   C122  S    
C18   C42   A    
Cr1   O21   S    
C89   O1    A    
C5    C6    S    
C114  C126  S    
C132  C136  S    
Cr10  O34   S    
C103  H31   S    
C113  C125  S    
Cr9   O33   S    
C30   H54   S    
C107  H35   S    
C100  C104  A    
C115  C127  S    
C6    C138  S    
C126  O42   A    
Cr5   O49   S    
C94   H26   S    
C105  H33   S    
C86   C114  A    
C14   C18   A    
C46   O30   A    
C9    C13   A    
C131  C140  S    
C86   C94   A    
C59   C67   A    
C118  O46   A    
C85   C93   A    
C50   C90   S    
C66   C72   A    
C129  C138  S    
C12   C16   A    
C83   C111  A    
C109  H37   S    
Cr10  O18   S    
C98   C102  A    
C87   C95   A    
C100  H24   S    
Cr9   O17   S    
C4    O24   A    
C31   C33   A    
C77   C97   A    
C73   C93   A    
C48   O36   A    
C42   H66   S    
C24   C28   A    
C40   C44   A    
C47   O31   A    
C61   C62   A    
C103  C107  A    
C80   C84   A    
C22   C50   A    
C45   O29   A    
C10   C26   A    
C47   C139  S    
C92   O40   A    
Cr7   O27   S    
C59   C60   A    
C84   C116  A    
C73   C120  S    
C35   Cl3   S    
C80   C100  A    
C8    C135  S    
C51   C91   S    
C72   H16   S    
Cr4   O48   S    
C121  O5    A    
C3    O27   A    
C14   C30   A    
C2    C11   S    
C75   C95   A    
C45   C137  S    
C124  O8    A    
C19   C43   A    
Cr5   O29   S    
C69   H13   S    
C23   C27   A    
C68   H12   S    
C101  C105  A    
C5    C134  S    
C122  O10   A    
Cr11  O11   S    
Cr8   O32   S    
Cr4   O20   S    
C121  O9    A    
C22   H50   S    
Cr11  O39   S    
C102  H30   S    
C56   C123  S    
C83   C115  A    
C111  H39   S    
C92   O4    A    
Cr2   O46   S    
C89   O37   A    
C82   C114  A    
C122  O6    A    
C31   H55   S    
C10   C14   A    
C135  H3    S    
C17   C49   A    
C131  H43   S    
C6    H46   S    
C53   C57   A    
Cr7   O31   S    
C5    H45   S    
Cr6   O6    S    
C48   O32   A    
Cr10  O14   S    
Cr5   O5    S    
C15   C31   A    
C110  H38   S    
Cr9   O13   S    
Cr11  O19   S    
C108  C112  A    
Cr12  O12   S    
Cr5   O17   S    
C67   C69   A    
Cr3   O19   S    
Cr1   O45   S    
C1    C12   S    
C88   C116  A    
C15   C19   A    
Cr1   O1    S    
C125  O13   A    
C47   O35   A    
C63   H7    S    
Cr3   O3    S    
C21   H49   S    
C76   C96   A    
C112  H40   S    
C90   O38   A    
C53   C62   A    
Cr12  O40   S    
C13   C17   A    
C23   C51   A    
Cr12  O20   S    
C85   H17   S    
C11   C27   A    
C16   C20   A    
C48   C140  S    
C87   H19   S    
C55   C64   A    
C64   H8    S    
C27   H59   S    
C56   C63   A    
C99   H23   S    
C26   H58   S    
C3    O23   A    
C119  O47   A    
C96   H28   S    
Cr3   O23   S    
C25   H57   S    
C2    O22   A    
Cr9   O37   S    
C117  O45   A    
C124  O12   A    
C106  H34   S    
C45   O33   A    
C129  C133  S    
C1    O21   A    
C95   H27   S    
C104  H32   S    
C54   C121  S    
C81   C109  A    
Cr6   O18   S    
C20   C44   A    
C11   C15   A    
Cr5   O25   S    
C116  C128  S    
C54   C58   A    
C34   C40   A    
C8    H48   S    
C66   H10   S    
Cr3   O43   S    
Cr1   O41   S    
C81   C113  A    
C131  C132  S    
Cr4   O44   S    
C7    C139  S    
C104  C108  A    
C118  O50   A    
C101  H29   S    
C18   C50   A    
Cr2   O42   S    
Cr11  O35   S    
C129  C130  S    
C106  C110  A    
C79   C99   A    
Cr2   O18   S    
C105  C109  A    
C55   C124  S    
C133  H1    S    
Cr1   O17   S    
C40   H62   S    
Cr6   O26   S    
Cr8   O20   S    
C107  C111  A    
C108  H36   S    
C32   H56   S    
C75   C118  S    
C76   C80   A    
C38   H64   S    
C130  H42   S    
Cr10  O10   S    
C134  C138  S    
C29   H53   S    
C129  H41   S    
C90   O2    A    
Cr11  O15   S    
Cr12  O16   S    
C54   C61   A    
Cr7   O19   S    
C16   C32   A    
C119  O51   A    
C29   C35   A    
C135  C139  S    
C131  C135  S    
C76   C117  S    
C120  O52   A    
C30   C36   A    
C8    C140  S    
C39   H61   S    
C87   C115  A    
C85   C113  A    
C2    O26   A    
Cr9   O9    S    
C71   C72   A    
C20   C52   A    
C3    C10   S    
C1    O25   A    
C5    C137  S    
Cr10  O38   S    
C79   C83   A    
C130  C137  S    
C65   H9    S    
C57   C58   A    
C134  H2    S    
Cr7   O7    S    
C33   Cl1   S    
C86   H18   S    
C19   C51   A    
C98   H22   S    
Cr4   O24   S    
C36   C38   A    
Cr12  O36   S    
C37   H63   S    
C62   H6    S    
C102  C106  A    
Cr3   O47   S    
C65   C71   A    
C128  O44   A    
C136  H4    S    
C7    H47   S    
C69   C70   A    
C126  O14   A    
C28   H60   S    
C17   C41   A    
C44   H68   S    
Cr4   O4    S    
C70   H14   S    
C91   O39   A    
C60   C68   A    
C22   C26   A    
C63   C64   A    
C117  O49   A    
C67   H11   S    
C56   C60   A    
C7    C136  S    
C123  O11   A    
C36   Cl4   S    
C12   C28   A    
C73   C77   A    
C68   C70   A    
C77   C81   A    
C74   C78   A    
C39   C43   A    
C125  O41   A    
C74   C94   A    
C4    O28   A    
C23   H51   S    
C46   C138  S    
C123  O7    A    
C71   H15   S    
C84   C112  A    
C127  O15   A    
C93   H25   S    
C4    C9    S    
C132  H44   S    
C43   H67   S    
C91   O3    A    
Cr7   O51   S    
C46   O34   A    
C52   C92   S    
C97   C101  A    
C97   H21   S    
C32   C34   A    
C41   H65   S    
C57   C65   A    
C127  O43   A    
