data_str_m12_o9_o22_f0_bcu.sym.72
_audit_creation_date              2012-12-11T17:45:32-0500
_audit_creation_method            fapswitch 2.2
_symmetry_space_group_name_H-M    P1
_symmetry_Int_Tables_number       1
_space_group_crystal_system       triclinic
_cell_length_a                    14.982357
_cell_length_b                    14.966867
_cell_length_c                    15.121717
_cell_angle_alpha                 110.223016
_cell_angle_beta                  109.102951
_cell_angle_gamma                 108.710125
_cell_volume                      2622.02091965

loop_
_atom_site_label
_atom_site_type_symbol
_atom_type_description
_atom_site_fract_x
_atom_site_fract_y
_atom_site_fract_z
_atom_type_partial_charge
C1    C     C_R   0.978479 0.254702 0.066769 -0.117288
C2    C     C_R   0.321386 0.779833 0.323724 0.053969
C3    C     C_R   0.299288 0.501240 0.929931 -0.006788
C4    C     C_R   0.943573 0.501472 0.304580 0.062741
C5    C     C_R   0.686668 0.409155 0.935314 0.675072
C6    C     C_R   0.022438 0.592549 0.781968 -0.107826
C7    C     C_R   0.789235 0.200865 0.696697 -0.121722
C8    C     C_R   0.992505 0.799222 0.087789 -0.118875
C9    C     C_R   0.084054 0.800590 0.997814 -0.155037
C10   C     C_R   0.702305 0.197880 0.791429 -0.059011
C11   C     C_R   0.776354 0.591581 0.024091 -0.267483
C12   C     C_R   0.313947 0.755015 0.223288 -0.140253
C13   C     C_R   0.942493 0.410287 0.686027 -0.129196
C14   C     C_R   0.674273 0.500177 0.948664 -0.170934
C15   C     C_R   0.959620 0.504331 0.679359 0.044047
C16   C     C_R   0.697593 0.139847 0.695847 0.022803
C17   C     C_R   0.045766 0.860316 0.052847 0.055942
C18   C     C_R   0.622401 0.248554 0.095551 -0.116224
C19   C     C_R   0.695357 0.339911 0.198707 -0.183375
C20   C     C_R   0.750726 0.327546 0.284816 0.127718
C21   C     C_R   0.723396 0.221481 0.267824 -0.163870
C22   C     C_R   0.645543 0.130214 0.165602 -0.111959
C23   C     C_R   0.209269 0.409906 0.902591 -0.141985
C24   C     C_R   0.596685 0.143888 0.078984 -0.080563
C25   C     C_R   0.851796 0.429724 0.485487 -0.243905
C26   C     C_R   0.943361 0.513755 0.584441 0.067258
C27   C     C_R   0.024173 0.600222 0.589717 0.007223
C28   C     C_R   0.012722 0.597759 0.495464 -0.165715
C29   C     C_R   0.928008 0.508082 0.395544 0.039499
C30   C     C_R   0.843353 0.424208 0.389080 0.030054
C31   C     C_R   0.147949 0.792407 0.744765 -0.064422
C32   C     C_R   0.245685 0.871479 0.840368 -0.134153
C33   C     C_R   0.326475 0.845605 0.878540 -0.114628
C34   C     C_R   0.997910 0.591413 0.299523 -0.165882
C35   C     C_R   0.310357 0.741060 0.820644 -0.116749
C36   C     C_R   0.212379 0.661024 0.725699 -0.131025
C37   C     C_R   0.129915 0.685940 0.687997 0.086215
C38   C     C_R   0.147465 0.952147 0.393291 -0.391335
C39   C     C_R   0.250662 0.967172 0.412886 -0.180264
C40   C     C_R   0.310174 0.949412 0.492136 0.051082
C41   C     C_R   0.270119 0.927285 0.558363 -0.435856
C42   C     C_R   0.167484 0.912932 0.538998 0.633117
C43   C     C_R   0.102974 0.919064 0.452877 0.545015
C44   C     C_R   0.505276 0.031864 0.592697 -0.254527
C45   C     C_R   0.298528 0.591413 0.994617 -0.137578
C46   C     C_R   0.604441 0.038517 0.607806 0.044223
C47   C     C_R   0.610815 0.954998 0.535106 0.081567
C48   C     C_R   0.515652 0.867876 0.443038 -0.263015
C49   C     C_R   0.416429 0.863919 0.425868 0.055262
C50   C     C_R   0.410983 0.946481 0.502529 0.088704
C51   C     C_R   0.760448 0.979535 0.491137 -0.421135
C52   C     C_R   0.867012 0.001141 0.520876 0.840188
C53   C     C_R   0.926689 0.995727 0.610093 -0.184285
C54   C     C_R   0.880236 0.970221 0.670563 -0.236896
C55   C     C_R   0.775337 0.952924 0.643733 -0.128364
C56   C     C_R   0.913658 0.409652 0.212531 -0.137843
C57   C     C_R   0.715224 0.958338 0.554355 0.065931
C58   C     C_3   0.470952 0.402262 0.826287 -0.369365
C59   C     C_3   0.367296 0.397255 0.827410 -0.445115
C60   C     C_3   0.562866 0.499171 0.032736 -0.406917
C61   C     C_3   0.573991 0.605984 0.936530 -0.400731
C62   C     C_3   0.572417 0.501272 0.934573 0.429450
C63   C     C_3   0.396469 0.502448 0.926159 0.410396
C64   C     C_3   0.465657 0.510376 0.032841 -0.397934
C65   C     C_3   0.464836 0.601075 0.920147 -0.426395
C66   C     C_R   0.263668 0.135249 0.870690 -0.119181
C67   C     C_R   0.218681 0.740331 0.310210 -0.103390
C68   C     C_R   0.193126 0.108072 0.910114 -0.199869
C69   C     C_R   0.228534 0.167053 0.021273 0.109387
C70   C     C_R   0.335292 0.251209 0.092762 -0.129908
C71   C     C_R   0.406633 0.275087 0.053697 -0.125376
C72   C     C_R   0.370840 0.217654 0.942664 -0.136603
C73   C     C_R   0.153203 0.032219 0.066503 -0.232610
C74   C     C_R   0.074995 0.974609 0.085820 0.054574
C75   C     C_R   0.025496 0.027993 0.132137 0.020663
C76   C     C_R   0.057346 0.135372 0.156302 -0.215377
C77   C     C_R   0.103263 0.173487 0.100904 0.051695
C78   C     C_R   0.071544 0.256512 0.977381 -0.137517
C79   C     C_R   0.161363 0.126432 0.064879 0.024612
C80   C     C_R   0.827919 0.897867 0.023418 -0.124206
C81   C     C_R   0.724878 0.864569 0.012992 -0.128418
C82   C     C_R   0.713351 0.901722 0.104782 -0.155612
C83   C     C_R   0.804926 0.974243 0.207066 -0.070986
C84   C     C_R   0.908272 0.010185 0.217678 -0.167213
C85   C     C_R   0.920661 0.971434 0.125901 0.073788
C86   C     C_R   0.058800 0.231983 0.054832 0.057125
H1    H     H_    0.944748 0.243290 0.117178 0.097593
H2    H     H_    0.044539 0.676079 0.805971 0.107776
H3    H     H_    0.815427 0.176934 0.638315 0.111187
H4    H     H_    0.969229 0.827058 0.147747 0.085885
H5    H     H_    0.142012 0.828640 0.972855 0.099928
H6    H     H_    0.651586 0.166418 0.822201 0.161165
H7    H     H_    0.796188 0.676131 0.059575 0.142982
H8    H     H_    0.898276 0.326904 0.620125 0.105000
H9    H     H_    0.539771 0.073753 0.998782 0.107778
H10   H     H_    0.586899 0.259130 0.028116 0.166275
H11   H     H_    0.714133 0.420456 0.209634 0.116648
H12   H     H_    0.379322 0.776279 0.205312 0.097566
H13   H     H_    0.764862 0.209279 0.332450 0.113952
H14   H     H_    0.625214 0.049060 0.152926 0.104092
H15   H     H_    0.789541 0.365680 0.483413 0.129046
H16   H     H_    0.079046 0.661035 0.501115 0.152706
H17   H     H_    0.084586 0.812444 0.717627 0.163706
H18   H     H_    0.258406 0.952241 0.886069 0.137399
H19   H     H_    0.401360 0.906220 0.953353 0.100287
H20   H     H_    0.373851 0.722447 0.850146 0.097974
H21   H     H_    0.200104 0.579598 0.682460 0.112903
H22   H     H_    0.180820 0.325665 0.846788 0.103848
H23   H     H_    0.101984 0.964654 0.331078 0.166761
H24   H     H_    0.281880 0.987256 0.363083 0.156023
H25   H     H_    0.316241 0.915971 0.621556 0.189980
H26   H     H_    0.501030 0.097311 0.648511 0.169091
H27   H     H_    0.518779 0.803835 0.384322 0.136798
H28   H     H_    0.715840 0.986487 0.423524 0.148494
H29   H     H_    0.009295 0.012683 0.633326 0.181947
H30   H     H_    0.926097 0.966244 0.739719 0.146176
H31   H     H_    0.021893 0.675050 0.352123 0.104362
H32   H     H_    0.741763 0.937666 0.693801 0.123150
H33   H     H_    0.465230 0.322542 0.810636 0.222028
H34   H     H_    0.473447 0.411278 0.756971 0.156074
H35   H     H_    0.311695 0.387780 0.750663 0.165878
H36   H     H_    0.325177 0.324082 0.831487 0.169940
H37   H     H_    0.555466 0.422116 0.029658 0.168209
H38   H     H_    0.416778 0.446908 0.044606 0.174111
H39   H     H_    0.638929 0.678269 0.016445 0.173126
H40   H     H_    0.590078 0.615401 0.872605 0.155209
H41   H     H_    0.419994 0.590864 0.839382 0.158605
H42   H     H_    0.352568 0.676117 0.025402 0.086205
H43   H     H_    0.481757 0.679768 0.982889 0.141977
H44   H     H_    0.637053 0.566863 0.110426 0.151110
H45   H     H_    0.494632 0.590724 0.103011 0.156991
H46   H     H_    0.425649 0.236209 0.911788 0.152612
H47   H     H_    0.236323 0.090316 0.785059 0.167729
H48   H     H_    0.111946 0.039795 0.854890 0.122435
H49   H     H_    0.364479 0.294601 0.179037 0.113240
H50   H     H_    0.489552 0.338663 0.110416 0.115825
H51   H     H_    0.200844 0.999499 0.041406 0.125783
H52   H     H_    0.022895 0.176881 0.196106 0.125248
H53   H     H_    0.863737 0.325450 0.186413 0.121602
H54   H     H_    0.835315 0.871266 0.951092 0.112403
H55   H     H_    0.653787 0.811000 0.933481 0.114961
H56   H     H_    0.633385 0.875269 0.096461 0.097538
H57   H     H_    0.795589 0.004667 0.277685 0.160994
H58   H     H_    0.978498 0.070231 0.296864 0.154887
H59   H     H_    0.195754 0.742409 0.371008 0.109552
H60   H     H_    0.126427 0.251157 0.947533 0.123692
N1    N     N_R   0.947080 0.293830 0.002870 -0.045518
N2    N     N_R   0.054040 0.556820 0.847890 -0.040486
N3    N     N_R   0.848290 0.293830 0.791110 -0.050174
N4    N     N_R   0.995680 0.706170 0.053910 -0.034800
N5    N     N_R   0.052920 0.706170 0.997130 -0.039840
N6    N     N_R   0.791050 0.293830 0.847890 -0.048911
N7    N     N_R   0.846330 0.556820 0.053910 -0.066387
N8    N     N_R   0.997640 0.443180 0.791110 -0.041468
N9    N     N_R   0.208950 0.706170 0.152110 -0.040372
N10   N     N_R   0.153670 0.443180 0.946090 -0.038054
N11   N     N_R   0.002360 0.556820 0.208890 -0.041007
N12   N     N_R   0.210070 0.556820 0.002870 -0.033320
N13   N     N_R   0.945960 0.443180 0.152110 -0.042110
N14   N     N_R   0.151710 0.706170 0.208890 -0.042963
N15   N     N_R   0.004320 0.293830 0.946090 -0.043191
N16   N     N_R   0.789930 0.443180 0.997130 -0.090957
Ni1   Ni    Ni4+2 0.869690 0.369690 0.000000 0.229592
Ni2   Ni    Ni4+2 0.130310 0.630310 0.000000 0.215174
Ni3   Ni    Ni4+2 0.000970 0.369690 0.869780 0.214493
Ni4   Ni    Ni4+2 0.999030 0.630310 0.130220 0.196370
O1    O     O_3   0.999321 0.897524 0.433599 -0.565019
C87   C     C_3   0.922127 0.822533 0.323173 -0.141920
H61   H     H_    0.941806 0.759523 0.283803 0.083962
H62   H     H_    0.912707 0.866463 0.278421 0.154169
H63   H     H_    0.842656 0.779378 0.316678 0.155949
F1    F     F_    0.128006 0.887654 0.600850 -0.734316
F2    F     F_    0.913948 0.032293 0.466137 -0.720990
F3    F     F_    0.607987 0.305229 0.887731 -0.800978

loop_
_geom_bond_atom_site_label_1
_geom_bond_atom_site_label_2
_ccdc_geom_bond_type
C59   H35   S    
C66   C68   A    
C63   C65   S    
C41   C42   A    
C58   C62   S    
N7    Ni4   S    
C18   H10   S    
C5    F3    S    
C54   C55   A    
C3    C23   A    
C35   C36   A    
C82   H56   S    
C2    C12   A    
C9    H5    S    
C81   C82   A    
C19   H11   S    
C20   C30   S    
C53   C54   A    
C26   C27   A    
C80   C85   A    
C18   C24   A    
C65   H41   S    
C28   C29   A    
C56   N13   A    
C38   C39   A    
C21   H13   S    
C11   C14   A    
C40   C50   S    
C84   H58   S    
C45   H42   S    
C14   C62   S    
C1    C86   A    
C6    H2    S    
C59   H36   S    
C60   C62   S    
C18   C19   A    
C73   C74   A    
C1    H1    S    
C7    H3    S    
C10   N6    A    
C6    C15   A    
C7    N3    A    
C75   C85   S    
C39   H24   S    
C66   C72   A    
C83   C84   A    
C68   C69   A    
C54   H30   S    
C67   H59   S    
C32   H18   S    
N8    Ni3   S    
C67   N14   A    
C51   C57   A    
N14   Ni4   S    
C12   H12   S    
C4    C29   S    
C71   H50   S    
N12   Ni2   S    
C78   C86   A    
C34   H31   S    
C87   H62   S    
C10   H6    S    
N11   N13   A    
C21   C22   A    
C4    C56   A    
C36   H21   S    
C61   C62   S    
N2    N8    A    
C25   H15   S    
C44   C46   A    
C72   H46   S    
C87   H63   S    
C4    C34   A    
C51   H28   S    
C22   H14   S    
C74   C75   A    
C51   C52   A    
N2    Ni2   S    
C33   H19   S    
C76   C77   A    
C2    C67   A    
N1    N15   A    
C24   H9    S    
C16   C46   S    
O1    C87   S    
C56   H53   S    
C78   H60   S    
C15   C26   S    
C58   C59   S    
C80   H54   S    
C3    C45   A    
C31   C37   A    
C61   H39   S    
C31   H17   S    
C60   H37   S    
C8    N4    A    
C75   C76   A    
C29   C30   A    
C2    C49   S    
C28   H16   S    
C47   C57   S    
C66   H47   S    
C6    N2    A    
C47   C48   A    
C64   H45   S    
C81   H55   S    
C76   H52   S    
C58   H34   S    
C73   C79   A    
C77   C79   A    
N3    Ni3   S    
C69   C79   S    
C84   C85   A    
C38   H23   S    
C5    C14   A    
C61   H40   S    
C42   F1    S    
N1    Ni1   S    
C44   H26   S    
C9    C17   A    
C87   H61   S    
C77   C86   S    
C49   C50   A    
C43   O1    S    
C55   C57   A    
C70   H49   S    
C22   C24   A    
N3    N6    A    
C8    H4    S    
C42   C43   A    
C12   N9    A    
C60   H44   S    
C39   C40   A    
C70   C71   A    
C52   C53   A    
N16   Ni1   S    
C44   C50   A    
C25   C30   A    
C46   C47   A    
C36   C37   A    
N9    N14   A    
C31   C32   A    
C7    C16   A    
C45   N12   A    
C80   C81   A    
N11   Ni4   S    
C65   H43   S    
C3    C63   S    
N9    Ni2   S    
C64   H38   S    
C13   H8    S    
C59   C63   S    
C8    C17   A    
N7    N16   A    
C60   C64   S    
C32   C33   A    
C19   C20   A    
C13   C15   A    
C25   C26   A    
C38   C43   A    
C35   H20   S    
C10   C16   A    
C5    N16   A    
C83   H57   S    
C11   H7    S    
C17   C74   S    
C73   H51   S    
N10   Ni3   S    
C27   C37   S    
C48   C49   A    
C23   H22   S    
N10   N12   A    
C58   H33   S    
C33   C35   A    
C68   H48   S    
N13   Ni1   S    
C69   C70   A    
C13   N8    A    
N6    Ni1   S    
C1    N1    A    
C11   N7    A    
C63   C64   S    
C34   N11   A    
C61   C65   S    
C71   C72   A    
C20   C21   A    
C78   N15   A    
C9    N5    A    
N5    Ni2   S    
C41   H25   S    
C27   C28   A    
N4    N5    A    
C40   C41   A    
C82   C83   A    
C23   N10   A    
C52   F2    S    
N15   Ni3   S    
C53   H29   S    
C48   H27   S    
C55   H32   S    
N4    Ni4   S    
