data_str_m2_o9_o18_f0_pcu.sym.235
_audit_creation_date              2012-12-10T19:45:45-0500
_audit_creation_method            fapswitch 2.2
_symmetry_space_group_name_H-M    P1
_symmetry_Int_Tables_number       1
_space_group_crystal_system       triclinic
_cell_length_a                    10.857389
_cell_length_b                    14.669823
_cell_length_c                    14.653625
_cell_angle_alpha                 65.281842
_cell_angle_beta                  103.142163
_cell_angle_gamma                 102.620913
_cell_volume                      2044.39808439

loop_
_atom_site_label
_atom_site_type_symbol
_atom_type_description
_atom_site_fract_x
_atom_site_fract_y
_atom_site_fract_z
_atom_type_partial_charge
C1    C     C_R   0.479761 0.119713 0.312214 0.808185
C2    C     C_R   0.640797 0.780530 0.969366 0.021692
C3    C     C_R   0.381830 0.154287 0.132766 -0.253303
C4    C     C_R   0.618188 0.845718 0.867228 -0.253210
C5    C     C_R   0.526650 0.288307 0.173686 0.099257
C6    C     C_R   0.473380 0.711689 0.826314 0.099225
C7    C     C_R   0.483323 0.359740 0.076846 0.046004
C8    C     C_R   0.516724 0.640259 0.923148 0.045993
C9    C     C_R   0.413334 0.323031 0.001496 0.093616
C10   C     C_R   0.586713 0.676971 0.998497 0.093608
C11   C     C_R   0.509957 0.466309 0.051529 0.080624
C12   C     C_R   0.520243 0.880287 0.687786 0.808180
C13   C     C_R   0.490103 0.533691 0.948464 0.080625
C14   C     C_R   0.451761 0.492386 0.873539 -0.246990
C15   C     C_R   0.548310 0.507615 0.126453 -0.247016
C16   C     C_R   0.262852 0.999718 0.502069 0.801193
C17   C     C_R   0.737148 0.000280 0.497934 0.801189
C18   C     C_R   0.407055 0.389960 0.899273 -0.164676
C19   C     C_R   0.593011 0.610041 0.100718 -0.164675
C20   C     C_R   0.702607 0.279710 0.676124 -0.319260
C21   C     C_R   0.297402 0.720294 0.323870 -0.319286
C22   C     C_R   0.673261 0.199798 0.643794 0.082740
C23   C     C_R   0.870472 0.999454 0.496757 -0.088363
C24   C     C_R   0.326744 0.800203 0.356202 0.082678
C25   C     C_R   0.523350 0.287423 0.505921 0.015392
C26   C     C_R   0.476649 0.712577 0.494080 0.015402
C27   C     C_R   0.549498 0.371987 0.534349 -0.016316
C28   C     C_R   0.450507 0.628015 0.465649 -0.016331
C29   C     C_R   0.640070 0.365417 0.622528 0.154218
C30   C     C_R   0.359939 0.634587 0.377467 0.154249
C31   C     C_R   0.486553 0.460433 0.481058 0.061351
C32   C     C_R   0.513454 0.539570 0.518939 0.061335
C33   C     C_R   0.602796 0.527858 0.608372 -0.252728
C34   C     C_R   0.129528 0.000538 0.503252 -0.088344
C35   C     C_R   0.397214 0.472146 0.391623 -0.252729
C36   C     C_R   0.665489 0.443070 0.658190 -0.202216
C37   C     C_R   0.334523 0.556935 0.341804 -0.202228
C38   C     C_R   0.345534 0.112288 0.758022 0.056326
C39   C     C_R   0.654475 0.887794 0.241925 0.056331
C40   C     C_R   0.255918 0.054001 0.708535 0.205309
C41   C     C_R   0.744101 0.946052 0.291438 0.205265
C42   C     C_R   0.183096 0.105445 0.613129 0.099043
C43   C     C_R   0.816898 0.894579 0.386849 0.099040
C44   C     C_R   0.192838 0.211409 0.573335 -0.196605
C45   C     C_R   0.908045 0.948792 0.446082 0.011956
C46   C     C_R   0.807120 0.788615 0.426623 -0.196576
C47   C     C_R   0.275101 0.267019 0.625088 -0.111144
C48   C     C_R   0.724840 0.733031 0.374848 -0.111109
C49   C     C_R   0.352614 0.218266 0.715279 -0.196976
C50   C     C_R   0.647350 0.781813 0.284654 -0.196979
C51   C     C_R   0.962786 0.050228 0.549463 -0.238168
C52   C     C_R   0.037212 0.949763 0.450547 -0.238142
C53   C     C_2   0.271237 0.176329 0.960396 0.311461
C54   C     C_2   0.728772 0.823684 0.039595 0.311442
C55   C     C_2   0.433653 0.068190 0.854252 0.328144
C56   C     C_R   0.091953 0.051204 0.553923 0.011953
C57   C     C_2   0.566383 0.931927 0.145680 0.328174
C58   C     C_3   0.234678 0.939549 0.758354 -0.800350
C59   C     C_3   0.765368 0.060506 0.241650 -0.800241
C60   C     C_3   0.345213 0.688426 0.766175 -0.826194
C61   C     C_3   0.654816 0.311557 0.233836 -0.826219
C62   C     C_R   0.464373 0.187782 0.204317 -0.073459
C63   C     C_R   0.535642 0.812218 0.795681 -0.073445
C64   C     C_R   0.359232 0.219476 0.030627 0.021744
Cu1   Cu    Cu3+1 0.466270 0.918260 0.475690 0.939389
Cu2   Cu    Cu3+1 0.533730 0.081740 0.524310 0.939413
H1    H     H_    0.418830 0.263943 0.752133 0.127619
H2    H     H_    0.719588 0.132731 0.686221 0.126580
H3    H     H_    0.772177 0.273786 0.743666 0.154760
H4    H     H_    0.227837 0.726219 0.256326 0.154740
H5    H     H_    0.626378 0.582929 0.642556 0.136832
H6    H     H_    0.373636 0.417076 0.357437 0.136839
H7    H     H_    0.135838 0.251148 0.501756 0.143384
H8    H     H_    0.864101 0.748853 0.498204 0.143375
H9    H     H_    0.280545 0.348663 0.594184 0.157765
H10   H     H_    0.719367 0.651386 0.405738 0.157753
H11   H     H_    0.934541 0.088102 0.589549 0.166207
H12   H     H_    0.581126 0.736155 0.247780 0.127623
H13   H     H_    0.065456 0.911890 0.410459 0.166205
H14   H     H_    0.372802 0.363772 0.838027 0.186515
H15   H     H_    0.627274 0.636228 0.161964 0.186573
H16   H     H_    0.665353 0.923409 0.843274 0.156988
H17   H     H_    0.334653 0.076600 0.156720 0.156907
H18   H     H_    0.262269 0.095842 0.977626 0.095898
H19   H     H_    0.737744 0.904168 0.022356 0.096003
H20   H     H_    0.495322 0.117986 0.888783 0.102208
H21   H     H_    0.504604 0.882141 0.111189 0.102138
H22   H     H_    0.156045 0.903777 0.715976 0.202853
H23   H     H_    0.455100 0.538624 0.794157 0.163691
H24   H     H_    0.322550 0.909514 0.764768 0.251922
H25   H     H_    0.209209 0.915509 0.835081 0.253497
H26   H     H_    0.843936 0.096266 0.284095 0.202811
H27   H     H_    0.790957 0.084561 0.164956 0.253527
H28   H     H_    0.677466 0.090548 0.235161 0.251918
H29   H     H_    0.357636 0.674550 0.700202 0.240699
H30   H     H_    0.285010 0.622147 0.814580 0.238590
H31   H     H_    0.289950 0.752911 0.737252 0.223116
H32   H     H_    0.715032 0.377829 0.185436 0.238591
H33   H     H_    0.642390 0.325435 0.299807 0.240700
H34   H     H_    0.544983 0.461380 0.205836 0.163701
H35   H     H_    0.710068 0.247065 0.262765 0.223111
H36   H     H_    0.733562 0.437625 0.726431 0.151357
H37   H     H_    0.266454 0.562382 0.273561 0.151351
H38   H     H_    0.548121 0.716248 0.557097 0.127733
H39   H     H_    0.451873 0.283749 0.442907 0.127741
H40   H     H_    0.280419 0.867272 0.313774 0.126569
N1    N     N_R   0.584450 0.204570 0.560790 -0.179933
N2    N     N_R   0.415550 0.795430 0.439210 -0.179920
O1    O     O_R   0.455540 0.022090 0.338120 -0.584164
O2    O     O_2   0.797289 0.772236 0.113418 -0.556892
O3    O     O_2   0.440690 0.977668 0.895909 -0.567491
O4    O     O_2   0.559520 0.022463 0.103956 -0.567522
O5    O     O_R   0.544460 0.977910 0.661880 -0.584120
O6    O     O_R   0.512510 0.160150 0.379180 -0.583948
O7    O     O_R   0.487490 0.839850 0.620820 -0.583957
O8    O     O_R   0.291160 0.930970 0.479480 -0.589935
O9    O     O_R   0.708840 0.069030 0.520520 -0.589944
O10   O     O_R   0.348130 0.069020 0.520540 -0.575072
O11   O     O_R   0.651870 0.930980 0.479460 -0.575075
O12   O     O_2   0.202711 0.227768 0.886591 -0.556882

loop_
_geom_bond_atom_site_label_1
_geom_bond_atom_site_label_2
_ccdc_geom_bond_type
C34   C56   A    
C8    C13   A    
C23   C45   A    
Cu2   O5    S    
C27   C29   A    
C9    C64   A    
C41   C43   A    
C48   H10   S    
C2    C4    A    
C61   H32   S    
C15   H34   S    
C1    C62   S    
C53   O12   D    
C25   H39   S    
C39   C41   A    
C38   C49   A    
C3    C64   A    
C7    C11   A    
C29   C36   A    
C17   C23   S    
C53   H18   S    
C35   C37   A    
C53   C64   S    
C57   O4    D    
C22   N1    A    
C39   C57   S    
C50   H12   S    
C33   C36   A    
C54   O2    D    
C36   H36   S    
C51   C56   A    
C14   C18   A    
C1    O1    A    
C15   C19   A    
C11   C15   A    
C38   C55   S    
Cu2   O9    S    
C24   N2    A    
C59   H28   S    
C52   H13   S    
Cu2   O6    S    
C58   H25   S    
Cu2   N1    S    
Cu1   N2    S    
C44   C47   A    
C17   O9    A    
C12   O7    A    
C16   C34   S    
C40   C42   A    
C13   C14   A    
Cu1   O7    S    
C61   H33   S    
C42   C44   A    
C16   O8    A    
C20   C29   A    
C46   C48   A    
C40   C58   S    
C27   C31   A    
C6    C60   S    
C28   C32   A    
C41   C59   S    
C47   C49   A    
C60   H31   S    
C2    C54   S    
C26   N2    A    
C5    C7    A    
C12   C63   S    
C33   H5    S    
C6    C8    A    
C45   C52   A    
C57   H21   S    
C30   C37   A    
C6    C63   A    
C61   H35   S    
C51   H11   S    
C14   H23   S    
C16   O10   A    
C58   H24   S    
C23   C51   A    
C31   C32   A    
C4    C63   A    
C10   C19   A    
C22   H2    S    
Cu1   O11   S    
C5    C61   S    
C42   C56   S    
C43   C45   S    
Cu1   O1    S    
C60   H30   S    
C8    C10   A    
C20   C22   A    
C35   H6    S    
C3    H17   S    
Cu1   O8    S    
C31   C35   A    
C20   H3    S    
C24   H40   S    
C1    O6    A    
C2    C10   A    
C46   H8    S    
C25   N1    A    
C37   H37   S    
C12   O5    A    
C3    C62   A    
C7    C9    A    
C49   H1    S    
C55   O3    D    
C26   C28   A    
C58   H22   S    
C54   H19   S    
C25   C27   A    
C21   C30   A    
C34   C52   A    
C21   H4    S    
C32   C33   A    
C55   H20   S    
C28   C30   A    
C47   H9    S    
C38   C40   A    
C11   C13   A    
C48   C50   A    
C5    C62   A    
C59   H26   S    
C44   H7    S    
C43   C46   A    
C26   H38   S    
C17   O11   A    
C60   H29   S    
C9    C18   A    
C39   C50   A    
C4    H16   S    
C18   H14   S    
Cu1   Cu2   S    
Cu2   O10   S    
C21   C24   A    
C59   H27   S    
C19   H15   S    
