data_str_m2_o11_o16_f0_pcu.sym.46
_audit_creation_date              2012-10-26T19:40:41-0400
_audit_creation_method            fapswitch 2.2
_symmetry_space_group_name_H-M    P1
_symmetry_Int_Tables_number       1
_space_group_crystal_system       triclinic
_cell_length_a                    9.726746
_cell_length_b                    10.928167
_cell_length_c                    13.486542
_cell_angle_alpha                 90.949526
_cell_angle_beta                  73.272044
_cell_angle_gamma                 90.647292
_cell_volume                      1372.67327462

loop_
_atom_site_label
_atom_site_type_symbol
_atom_type_description
_atom_site_fract_x
_atom_site_fract_y
_atom_site_fract_z
_atom_type_partial_charge
C1    C     C_R   0.500298 0.734711 0.501589 0.577897
C2    C     C_R   0.380334 0.490073 0.813543 -0.015578
C3    C     C_2   0.609762 0.069249 0.501817 -0.129424
C4    C     C_R   0.423913 0.493041 0.699499 0.539591
C5    C     C_2   0.503176 0.134003 0.485009 -0.126327
C6    C     C_2   0.616802 0.935758 0.486702 0.228536
C7    C     C_2   0.495838 0.866662 0.517269 0.251434
C8    C     C_2   0.050010 0.558281 0.568638 0.068705
C9    C     C_2   0.899610 0.571691 0.559296 -0.000015
C10   C     C_R   0.500501 0.265566 0.496899 0.535673
C11   C     C_R   0.576642 0.502826 0.300675 0.525432
C12   C     C_R   0.442372 0.501721 0.977406 0.030385
C13   C     C_R   0.801194 0.493040 0.022215 -0.115038
C14   C     C_R   0.620419 0.506379 0.187550 -0.028670
C15   C     C_R   0.239931 0.525120 0.866124 -0.203053
C16   C     C_R   0.203216 0.555840 0.970256 -0.124060
C17   C     C_R   0.304333 0.552999 0.024820 0.256020
C18   C     C_3   0.848794 0.685677 0.205904 0.064153
C19   C     C_3   0.896744 0.777085 0.117038 -0.306649
C20   C     C_3   0.860192 0.908197 0.155452 -0.467298
C21   C     C_3   0.849837 0.898416 0.488334 0.010944
C22   C     C_3   0.970001 0.984867 0.430618 -0.289563
C23   C     C_R   0.480358 0.469650 0.870457 -0.011376
C24   C     C_3   0.081848 0.002866 0.489086 -0.471591
C25   C     C_3   0.345827 0.914708 0.678598 -0.001489
C26   C     C_3   0.211544 0.839499 0.730217 -0.252385
C27   C     C_3   0.177570 0.843672 0.847955 -0.498461
C28   C     C_3   0.160251 0.363827 0.374601 0.050648
C29   C     C_3   0.105962 0.339370 0.280031 -0.273538
C30   C     C_3   0.168218 0.222025 0.222503 -0.508797
C31   C     C_3   0.320715 0.725043 0.118747 0.000281
C32   C     C_3   0.298265 0.773450 0.229207 -0.233484
C33   C     C_3   0.359513 0.902448 0.230014 -0.504851
C34   C     C_R   0.548083 0.490112 0.030287 0.007552
C35   C     C_R   0.693252 0.473217 0.973867 -0.008814
C36   C     C_R   0.727062 0.433716 0.871344 -0.151228
C37   C     C_R   0.619016 0.421577 0.823416 -0.119844
C38   C     C_R   0.514003 0.490072 0.137769 -0.169337
C39   C     C_R   0.764631 0.523720 0.127654 0.256378
Cu1   Cu    Cu3+1 0.361370 0.499980 0.499980 0.952177
Cu2   Cu    Cu3+1 0.638630 0.500020 0.500020 0.934396
H1    H     H_    0.831583 0.641239 0.606684 0.105425
H2    H     H_    0.916787 0.934046 0.213382 0.169745
H3    H     H_    0.418901 0.090680 0.458554 0.137446
H4    H     H_    0.898621 0.807967 0.491206 0.162410
H5    H     H_    0.804034 0.929621 0.570497 0.098010
H6    H     H_    0.023276 0.945653 0.352762 0.156867
H7    H     H_    0.925401 0.075198 0.420293 0.160954
H8    H     H_    0.031655 0.042725 0.567295 0.146934
H9    H     H_    0.167119 0.066404 0.445968 0.143198
H10   H     H_    0.131540 0.913846 0.496812 0.196023
H11   H     H_    0.330157 0.010303 0.708881 0.151621
H12   H     H_    0.835933 0.408277 0.829385 0.101582
H13   H     H_    0.439041 0.877314 0.701107 0.100881
H14   H     H_    0.118419 0.875581 0.707864 0.160746
H15   H     H_    0.228680 0.742921 0.703027 0.181570
H16   H     H_    0.268875 0.807194 0.872199 0.147885
H17   H     H_    0.080892 0.786752 0.882483 0.134672
H18   H     H_    0.155689 0.939089 0.877486 0.144922
H19   H     H_    0.072022 0.598219 0.636628 0.061806
H20   H     H_    0.104236 0.300018 0.437250 0.098227
H21   H     H_    0.276043 0.343512 0.352983 0.188951
H22   H     H_    0.986901 0.332405 0.304853 0.171985
H23   H     H_    0.404844 0.472913 0.183168 0.196877
H24   H     H_    0.136670 0.416705 0.225634 0.245768
H25   H     H_    0.141659 0.142997 0.275135 0.140328
H26   H     H_    0.286751 0.230263 0.191128 0.145918
H27   H     H_    0.122300 0.205293 0.157011 0.160111
H28   H     H_    0.899026 0.421454 0.474751 0.240792
H29   H     H_    0.912555 0.488321 0.977282 0.108340
H30   H     H_    0.160465 0.538371 0.825206 0.125212
H31   H     H_    0.263074 0.784936 0.078183 0.122275
H32   H     H_    0.437867 0.728583 0.077580 0.129556
H33   H     H_    0.181636 0.774014 0.270725 0.178159
H34   H     H_    0.913451 0.703039 0.260580 0.194771
H35   H     H_    0.352252 0.711953 0.270941 0.208546
H36   H     H_    0.476498 0.903172 0.189796 0.142180
H37   H     H_    0.343172 0.934200 0.311157 0.157587
H38   H     H_    0.304663 0.966353 0.190927 0.142687
H39   H     H_    0.098024 0.591233 0.007302 0.161298
H40   H     H_    0.647674 0.375983 0.748836 0.149589
H41   H     H_    0.696375 0.115270 0.523542 0.123615
H42   H     H_    0.735370 0.703969 0.250536 0.145454
H43   H     H_    0.014389 0.771414 0.082114 0.158046
H44   H     H_    0.843124 0.755543 0.056350 0.150727
H45   H     H_    0.742655 0.917861 0.191017 0.160317
H46   H     H_    0.894843 0.971712 0.089319 0.138484
N1    N     N_2   0.152660 0.501340 0.501130 -0.054849
N2    N     N_2   0.846520 0.501370 0.501160 -0.324383
O1    O     O_R   0.382960 0.678040 0.499980 -0.490793
O2    O     O_3   0.746901 0.882766 0.433097 -0.588890
O3    O     O_3   0.364883 0.917699 0.570456 -0.626738
O4    O     O_3   0.133444 0.487529 0.406253 -0.472600
O5    O     O_3   0.265956 0.604326 0.123259 -0.581621
O6    O     O_R   0.617100 0.678080 0.500020 -0.487620
O7    O     O_R   0.325800 0.499940 0.650950 -0.523269
O8    O     O_R   0.559930 0.499980 0.650990 -0.516031
O9    O     O_R   0.382900 0.321920 0.499980 -0.521316
O10   O     O_R   0.617040 0.321960 0.500020 -0.514072
O11   O     O_R   0.440070 0.500020 0.349010 -0.511084
O12   O     O_R   0.674200 0.500060 0.349050 -0.455172
O13   O     O_3   0.872048 0.562231 0.170241 -0.559397

loop_
_geom_bond_atom_site_label_1
_geom_bond_atom_site_label_2
_ccdc_geom_bond_type
Cu2   N2    S    
C29   H22   S    
Cu1   Cu2   S    
C18   H34   S    
C22   H7    S    
C35   C36   A    
C3    C6    S    
C26   H14   S    
Cu2   O6    S    
C12   C23   A    
C9    H1    S    
C1    O1    A    
C28   C29   S    
C13   C35   A    
C32   H33   S    
C11   C14   S    
C33   H37   S    
C31   H32   S    
C13   H29   S    
C6    O2    S    
C20   H46   S    
C34   C35   A    
C18   O13   S    
C10   O9    A    
C36   H12   S    
C14   C39   A    
C4    O7    A    
C19   C20   S    
C8    C9    S    
C20   H45   S    
C12   C17   A    
Cu2   O10   S    
C38   H23   S    
C30   H26   S    
C28   H20   S    
C24   H10   S    
C22   H6    S    
C1    C7    S    
C4    O8    A    
C37   H40   S    
Cu1   O7    S    
H28   N2    S    
C21   H4    S    
C24   H9    S    
C25   H13   S    
C27   H16   S    
C9    N2    D    
C18   C19   S    
C19   H44   S    
C25   C26   S    
C23   C37   A    
C28   O4    S    
C16   H39   S    
C2    C4    S    
C32   H35   S    
C29   C30   S    
C14   C38   A    
C31   C32   S    
C1    O6    A    
C3    H41   S    
C18   H42   S    
C26   C27   S    
C11   O12   A    
C2    C15   A    
C30   H25   S    
C29   H24   S    
C31   H31   S    
C5    H3    S    
C22   C24   S    
C12   C34   A    
C19   H43   S    
C20   H2    S    
C39   O13   S    
C21   H5    S    
C21   O2    S    
C24   H8    S    
N1    O4    S    
C36   C37   A    
C25   O3    S    
C34   C38   A    
C33   H38   S    
C3    C5    D    
C27   H17   S    
C26   H15   S    
Cu1   O11   S    
C6    C7    D    
C31   O5    S    
C15   H30   S    
Cu1   O1    S    
C32   C33   S    
Cu1   N1    S    
C25   H11   S    
C5    C10   S    
C27   H18   S    
C8    H19   S    
Cu1   O9    S    
C33   H36   S    
C16   C17   A    
C7    O3    S    
Cu2   O12   S    
Cu2   O8    S    
C10   O10   A    
C13   C39   A    
C2    C23   A    
C11   O11   A    
C17   O5    S    
C8    N1    D    
C21   C22   S    
C30   H27   S    
C15   C16   A    
C28   H21   S    
