data_str_m3_o40_o41_f0_fof.sym.42
_audit_creation_date              2012-12-10T16:38:05-0500
_audit_creation_method            fapswitch 2.2
_symmetry_space_group_name_H-M    P1
_symmetry_Int_Tables_number       1
_space_group_crystal_system       triclinic
_cell_length_a                    28.138411
_cell_length_b                    18.459886
_cell_length_c                    17.053536
_cell_angle_alpha                 90.216569
_cell_angle_beta                  60.897805
_cell_angle_gamma                 90.450061
_cell_volume                      7739.60150616

loop_
_atom_site_label
_atom_site_type_symbol
_atom_type_description
_atom_site_fract_x
_atom_site_fract_y
_atom_site_fract_z
_atom_type_partial_charge
C1    C     C_R   0.706309 0.277419 0.672848 0.873182
C2    C     C_R   0.080545 0.499910 0.563014 0.068625
C3    C     C_R   0.197940 0.203191 0.902413 0.073144
C4    C     C_R   0.621055 0.328184 0.043195 -0.181893
C5    C     C_R   0.387525 0.686176 0.953529 -0.189163
C6    C     C_R   0.391218 0.314564 0.948418 -0.189983
C7    C     C_R   0.619954 0.672978 0.044707 -0.181391
C8    C     C_R   0.112348 0.813408 0.046378 -0.188606
C9    C     C_R   0.889976 0.183034 0.947916 -0.190447
C10   C     C_R   0.891311 0.814441 0.948361 -0.190245
C11   C     C_R   0.119802 0.173251 0.044766 -0.180944
C12   C     C_R   0.651300 0.316259 0.086775 -0.217580
C13   C     C_R   0.400482 0.003275 0.503342 0.066326
C14   C     C_R   0.360967 0.708146 0.906754 -0.211045
C15   C     C_R   0.364915 0.293165 0.900910 -0.212463
C16   C     C_R   0.650411 0.683976 0.088250 -0.217429
C17   C     C_R   0.138847 0.791166 0.093145 -0.209341
C18   C     C_R   0.864127 0.205437 0.900073 -0.216260
C19   C     C_R   0.865035 0.792977 0.900829 -0.212289
C20   C     C_R   0.150226 0.184356 0.088350 -0.216506
C21   C     C_R   0.779087 0.276156 0.758677 -0.189601
C22   C     C_R   0.224475 0.725826 0.234988 -0.179455
C23   C     C_R   0.252633 0.196093 0.211188 -0.176344
C24   C     C_R   0.580494 0.999901 0.563188 0.069817
C25   C     C_R   0.777418 0.730324 0.761474 -0.202330
C26   C     C_R   0.275387 0.773752 0.764957 -0.191037
C27   C     C_R   0.753113 0.302688 0.210436 -0.178395
C28   C     C_R   0.752811 0.695811 0.211088 -0.178013
C29   C     C_R   0.277341 0.230405 0.761552 -0.202322
C30   C     C_R   0.808645 0.259341 0.802169 -0.219210
C31   C     C_R   0.196025 0.742844 0.189815 -0.215864
C32   C     C_R   0.222081 0.183211 0.168384 -0.225543
C33   C     C_R   0.807376 0.745109 0.804566 -0.220314
C34   C     C_R   0.303787 0.756439 0.810098 -0.216030
C35   C     C_R   0.078783 0.368946 0.556997 -0.209017
C36   C     C_R   0.722873 0.315928 0.167385 -0.225748
C37   C     C_R   0.722291 0.682827 0.168243 -0.226746
C38   C     C_R   0.307274 0.245255 0.804662 -0.220414
C39   C     C_R   0.072310 0.102589 0.936431 0.904300
C40   C     C_R   0.928224 0.896872 0.063374 0.911376
C41   C     C_R   0.927867 0.102707 0.063702 0.910506
C42   C     C_R   0.071593 0.896807 0.936672 0.895485
C43   C     C_R   0.572342 0.602558 0.936407 0.900160
C44   C     C_R   0.428216 0.396883 0.063379 0.915701
C45   C     C_R   0.428437 0.603208 0.063277 0.905505
C46   C     C_R   0.885196 0.628703 0.551893 -0.215460
C47   C     C_R   0.572816 0.398023 0.935765 0.897568
C48   C     C_R   0.523679 0.129554 0.584836 0.117490
C49   C     C_R   0.460397 0.875848 0.475502 0.109521
C50   C     C_R   0.431153 0.129569 0.562519 0.112846
C51   C     C_R   0.539616 0.870477 0.529861 0.106092
C52   C     C_R   0.023771 0.629579 0.584539 0.115474
C53   C     C_R   0.960414 0.375818 0.475431 0.110181
C54   C     C_R   0.931241 0.629581 0.562258 0.112442
C55   C     C_R   0.039637 0.370472 0.529783 0.106014
C56   C     C_R   0.493133 0.192887 0.600865 -0.210370
C57   C     C_R   0.919755 0.378988 0.451084 -0.220493
C58   C     C_R   0.485998 0.810162 0.472337 -0.215036
C59   C     C_R   0.446813 0.192693 0.590641 -0.218875
C60   C     C_R   0.523720 0.806903 0.503138 -0.211646
C61   C     C_R   0.993240 0.692919 0.600532 -0.213264
C62   C     C_R   0.985982 0.310123 0.472351 -0.215757
C63   C     C_R   0.946913 0.692718 0.590335 -0.219774
C64   C     C_R   0.023706 0.306880 0.503148 -0.211638
C65   C     C_R   0.461442 0.066210 0.546111 0.026956
C66   C     C_R   0.516341 0.936729 0.528708 0.026329
C67   C     C_R   0.506828 0.065707 0.559864 0.025820
C68   C     C_R   0.071186 0.629196 0.591834 -0.217438
C69   C     C_R   0.474261 0.938601 0.506962 0.026202
C70   C     C_R   0.961532 0.566223 0.545843 0.026292
C71   C     C_R   0.016392 0.436728 0.528547 0.025962
C72   C     C_R   0.006919 0.565725 0.559582 0.025443
C73   C     C_R   0.974310 0.438592 0.506807 0.026247
C74   C     C_R   0.945957 0.503002 0.517231 -0.033735
C75   C     C_R   0.034286 0.500747 0.551302 -0.033312
C76   C     C_R   0.445888 0.003003 0.517439 -0.033479
C77   C     C_R   0.534216 0.000736 0.551523 -0.033109
C78   C     C_R   0.885100 0.439800 0.474131 -0.013110
C79   C     C_R   0.578767 0.868940 0.557062 -0.210092
C80   C     C_R   0.102610 0.565643 0.573665 -0.015681
C81   C     C_R   0.105422 0.433518 0.560999 -0.009032
C82   C     C_R   0.870080 0.566786 0.519278 -0.004622
C83   C     C_R   0.385066 0.939820 0.474241 -0.013300
C84   C     C_R   0.602565 0.065636 0.573829 -0.013610
C85   C     C_R   0.605396 0.933512 0.561094 -0.008752
C86   C     C_R   0.370024 0.066795 0.519439 -0.004472
C87   C     C_R   0.833333 0.438353 0.476870 -0.220381
C88   C     C_R   0.154918 0.565186 0.566967 -0.233815
C89   C     C_R   0.155880 0.434469 0.562004 -0.253642
C90   C     C_R   0.385134 0.128711 0.552067 -0.215148
C91   C     C_R   0.824270 0.564942 0.505211 -0.243082
C92   C     C_R   0.333318 0.938366 0.476945 -0.225403
C93   C     C_R   0.654905 0.065185 0.567027 -0.240137
C94   C     C_R   0.655877 0.934465 0.562021 -0.252123
C95   C     C_R   0.324226 0.064952 0.505333 -0.242185
C96   C     C_R   0.801261 0.499996 0.502274 0.361524
C97   C     C_R   0.176549 0.499780 0.575471 0.398449
C98   C     C_R   0.301224 0.000001 0.502369 0.362134
C99   C     C_R   0.676569 0.999774 0.575436 0.398866
C100  C     C_3   0.714159 0.496166 0.618488 0.157938
C101  C     C_R   0.419739 0.879025 0.451152 -0.219008
C102  C     C_3   0.655296 0.478021 0.643654 -0.334871
C103  C     C_3   0.629402 0.536896 0.614520 -0.798396
C104  C     C_3   0.204892 0.491678 0.680434 0.093105
C105  C     C_3   0.202928 0.565602 0.723124 -0.330034
C106  C     C_3   0.189487 0.558136 0.820845 -0.949217
C107  C     C_3   0.214084 0.996355 0.618501 0.156097
C108  C     C_3   0.155215 0.978271 0.643647 -0.335365
C109  C     C_3   0.129453 0.036962 0.614014 -0.795329
C110  C     C_3   0.705121 0.991537 0.680118 0.092410
C111  C     C_3   0.703228 0.065408 0.722865 -0.331161
C112  C     C_R   0.294087 0.723027 0.326691 0.906916
C113  C     C_R   0.571125 0.129182 0.592055 -0.212551
C114  C     C_3   0.689900 0.057821 0.820511 -0.948708
C115  C     C_R   0.729989 0.285025 0.945409 0.018991
C116  C     C_R   0.278220 0.729804 0.046864 0.018406
C117  C     C_R   0.289521 0.246178 0.037281 0.019292
C118  C     C_R   0.729197 0.716201 0.947103 0.018560
C119  C     C_R   0.221570 0.769399 0.953043 0.015773
C120  C     C_R   0.789612 0.252978 0.036263 0.021170
C121  C     C_R   0.789678 0.745889 0.037171 0.019217
C122  C     C_R   0.229050 0.216485 0.947204 0.018552
C123  C     C_R   0.784380 0.260197 0.896411 0.048771
C124  C     C_R   0.298927 0.266510 0.323132 0.925818
C125  C     C_R   0.222219 0.748303 0.095349 0.048878
C126  C     C_R   0.238089 0.211702 0.082965 0.050411
C127  C     C_R   0.783758 0.741230 0.898232 0.054393
C128  C     C_R   0.277563 0.750845 0.904550 0.049385
C129  C     C_R   0.738668 0.287828 0.081770 0.050287
C130  C     C_R   0.738277 0.711336 0.082834 0.051198
C131  C     C_R   0.283623 0.241472 0.898335 0.054483
C132  C     C_R   0.812849 0.239105 0.943113 0.049691
C133  C     C_R   0.193954 0.769317 0.048303 0.048071
C134  C     C_R   0.205781 0.203174 0.040251 0.047862
C135  C     C_R   0.705642 0.723703 0.673692 0.853193
C136  C     C_R   0.812948 0.760489 0.944308 0.049760
C137  C     C_R   0.305830 0.729849 0.951597 0.048343
C138  C     C_R   0.706649 0.297262 0.038728 0.048274
C139  C     C_R   0.705960 0.702808 0.040132 0.047882
C140  C     C_R   0.312807 0.260741 0.944410 0.049891
C141  C     C_R   0.645096 0.324620 0.948988 0.078040
C142  C     C_R   0.360714 0.684721 0.047682 0.077518
C143  C     C_R   0.366386 0.306705 0.042307 0.072129
C144  C     C_R   0.644017 0.677232 0.950525 0.074729
C145  C     C_R   0.139175 0.814927 0.952242 0.078617
C146  C     C_R   0.205855 0.776864 0.673327 0.870574
C147  C     C_R   0.865636 0.191469 0.041923 0.073614
C148  C     C_R   0.866476 0.806571 0.042250 0.072193
C149  C     C_R   0.143903 0.177427 0.950578 0.074299
C150  C     C_R   0.617350 0.345869 0.900906 -0.130268
C151  C     C_R   0.385671 0.657870 0.097665 -0.141698
C152  C     C_R   0.388541 0.337343 0.094953 -0.141810
C153  C     C_R   0.616287 0.655962 0.902283 -0.136235
C154  C     C_R   0.114278 0.841999 0.902274 -0.132159
C155  C     C_R   0.887823 0.161480 0.094936 -0.139283
C156  C     C_R   0.888588 0.837281 0.094925 -0.140704
C157  C     C_R   0.798723 0.233049 0.323184 0.902839
C158  C     C_R   0.116219 0.156047 0.902305 -0.136949
C159  C     C_R   0.637799 0.326830 0.812542 -0.336834
C160  C     C_R   0.363843 0.674349 0.187103 -0.300966
C161  C     C_R   0.367853 0.317673 0.183592 -0.302301
C162  C     C_R   0.636564 0.675452 0.814119 -0.324972
C163  C     C_R   0.136050 0.825434 0.812873 -0.329840
C164  C     C_R   0.867093 0.181411 0.183565 -0.306445
C165  C     C_R   0.867893 0.817622 0.183574 -0.302902
C166  C     C_R   0.136525 0.175472 0.814111 -0.324310
C167  C     C_R   0.689156 0.298474 0.765162 -0.109834
C168  C     C_R   0.798947 0.766472 0.323125 0.925829
C169  C     C_R   0.312734 0.703666 0.233163 -0.117600
C170  C     C_R   0.322719 0.273301 0.225356 -0.124770
C171  C     C_R   0.687985 0.704279 0.766741 -0.112201
C172  C     C_R   0.187158 0.796116 0.766811 -0.112906
C173  C     C_R   0.822314 0.225692 0.225180 -0.121594
C174  C     C_R   0.822783 0.773202 0.225325 -0.125182
C175  C     C_R   0.187938 0.204332 0.766761 -0.112231
C176  C     C_R   0.722712 0.290403 0.806866 0.062460
C177  C     C_R   0.280995 0.714208 0.188765 0.067395
C178  C     C_R   0.297209 0.245172 0.175615 0.071747
C179  C     C_R   0.205629 0.223722 0.673699 0.852842
C180  C     C_R   0.721395 0.713360 0.808881 0.072007
C181  C     C_R   0.218868 0.785398 0.811182 0.063184
C182  C     C_R   0.797115 0.253503 0.175108 0.073039
C183  C     C_R   0.797333 0.744971 0.175541 0.072536
C184  C     C_R   0.221314 0.213479 0.808940 0.072011
C185  C     C_R   0.690580 0.129822 0.538391 0.941477
C186  C     C_R   0.306798 0.871855 0.472490 0.930425
C187  C     C_R   0.299817 0.129089 0.492954 0.935573
C188  C     C_R   0.691138 0.870563 0.536122 0.956757
C189  C     C_R   0.190588 0.629816 0.538362 0.924499
C190  C     C_R   0.900538 0.503267 0.503172 0.065763
C191  C     C_R   0.806803 0.371851 0.472475 0.912630
C192  C     C_R   0.799847 0.629078 0.492876 0.935231
C193  C     C_R   0.191136 0.370563 0.536128 0.956075
C194  C     C_R   0.699125 0.299276 0.900587 0.069349
C195  C     C_R   0.306770 0.710344 0.094244 0.078192
C196  C     C_R   0.317725 0.266017 0.085102 0.077079
C197  C     C_R   0.698057 0.702981 0.902340 0.073049
C198  C     C_R   0.193066 0.789097 0.905683 0.071303
C199  C     C_R   0.817440 0.232505 0.084486 0.075584
C200  C     C_R   0.817853 0.765799 0.085018 0.077050
H1    H     H_    0.041849 0.255290 0.503045 0.136007
H2    H     H_    0.860911 0.676450 0.573511 0.161837
H3    H     H_    0.915372 0.332699 0.416286 0.175310
H4    H     H_    0.082141 0.678196 0.614385 0.168215
H5    H     H_    0.586378 0.816527 0.575931 0.177396
H6    H     H_    0.360868 0.176477 0.573603 0.161619
H7    H     H_    0.415373 0.832755 0.416311 0.176479
H8    H     H_    0.582111 0.178189 0.614549 0.165548
H9    H     H_    0.614307 0.337682 0.778923 0.182935
H10   H     H_    0.385728 0.660263 0.222518 0.191727
H11   H     H_    0.385323 0.340966 0.222432 0.194245
H12   H     H_    0.923865 0.742212 0.602956 0.126961
H13   H     H_    0.613019 0.664188 0.780528 0.184816
H14   H     H_    0.114112 0.839405 0.777521 0.183287
H15   H     H_    0.884421 0.158567 0.222491 0.193099
H16   H     H_    0.885327 0.840973 0.222437 0.194189
H17   H     H_    0.113020 0.164115 0.780471 0.184976
H18   H     H_    0.578117 0.338037 0.085198 0.165581
H19   H     H_    0.430117 0.672684 0.914439 0.158779
H20   H     H_    0.432070 0.335379 0.909065 0.165727
H21   H     H_    0.576902 0.663040 0.086618 0.162116
H22   H     H_    0.069790 0.827074 0.085449 0.161101
H23   H     H_    0.975183 0.260880 0.449747 0.136345
H24   H     H_    0.930288 0.161366 0.908404 0.168503
H25   H     H_    0.932144 0.835329 0.909032 0.165650
H26   H     H_    0.076750 0.163269 0.086630 0.162334
H27   H     H_    0.629897 0.319503 0.159190 0.143632
H28   H     H_    0.385024 0.706263 0.834771 0.136872
H29   H     H_    0.386286 0.304570 0.830020 0.135571
H30   H     H_    0.629089 0.680063 0.160615 0.141189
H31   H     H_    0.114787 0.793015 0.165126 0.139042
H32   H     H_    0.884967 0.193903 0.829144 0.137644
H33   H     H_    0.886403 0.804391 0.829940 0.135560
H34   H     H_    0.005240 0.742518 0.620577 0.133694
H35   H     H_    0.128880 0.180503 0.160720 0.141366
H36   H     H_    0.802347 0.280283 0.686593 0.183605
H37   H     H_    0.200390 0.718639 0.306645 0.180464
H38   H     H_    0.240644 0.164581 0.270912 0.183849
H39   H     H_    0.800577 0.730882 0.690076 0.167072
H40   H     H_    0.299531 0.781225 0.693351 0.180473
H41   H     H_    0.741410 0.334251 0.270105 0.183091
H42   H     H_    0.740840 0.664340 0.270840 0.182452
H43   H     H_    0.300525 0.230860 0.690157 0.167004
H44   H     H_    0.851337 0.248604 0.759750 0.141679
H45   H     H_    0.541890 0.755318 0.502963 0.135909
H46   H     H_    0.152915 0.750143 0.231613 0.140687
H47   H     H_    0.187399 0.147222 0.201335 0.142140
H48   H     H_    0.849809 0.757420 0.761781 0.136649
H49   H     H_    0.346899 0.749141 0.768296 0.140609
H50   H     H_    0.688688 0.352128 0.200255 0.141630
H51   H     H_    0.687642 0.646780 0.201168 0.140355
H52   H     H_    0.349716 0.257516 0.761887 0.136531
H53   H     H_    0.715467 0.549670 0.647795 0.113938
H54   H     H_    0.728099 0.453735 0.649052 0.076183
H55   H     H_    0.654048 0.426093 0.611664 0.237694
H56   H     H_    0.423768 0.242189 0.603257 0.126851
H57   H     H_    0.631000 0.471275 0.717604 0.189990
H58   H     H_    0.626160 0.587834 0.651279 0.256745
H59   H     H_    0.587793 0.519536 0.630440 0.207182
H60   H     H_    0.653675 0.546788 0.541154 0.279312
H61   H     H_    0.235667 0.457753 0.685689 0.170036
H62   H     H_    0.165116 0.462664 0.719060 0.108790
H63   H     H_    0.243073 0.593054 0.684981 0.252374
H64   H     H_    0.171537 0.599887 0.720271 0.205243
H65   H     H_    0.149050 0.531890 0.860875 0.265056
H66   H     H_    0.188498 0.612695 0.849302 0.276000
H67   H     H_    0.475229 0.760935 0.449659 0.136448
H68   H     H_    0.220908 0.525323 0.825611 0.265142
H69   H     H_    0.215417 0.049916 0.647667 0.114037
H70   H     H_    0.227955 0.953981 0.649237 0.074799
H71   H     H_    0.153909 0.926181 0.612004 0.237584
H72   H     H_    0.130866 0.971879 0.717636 0.189635
H73   H     H_    0.126300 0.088089 0.650374 0.256167
H74   H     H_    0.087817 0.019661 0.630031 0.206664
H75   H     H_    0.153755 0.046465 0.540581 0.280421
H76   H     H_    0.735952 0.957568 0.685159 0.170285
H77   H     H_    0.665351 0.962511 0.718834 0.108634
H78   H     H_    0.505127 0.242481 0.620927 0.133388
H79   H     H_    0.743374 0.092856 0.684647 0.252005
H80   H     H_    0.671803 0.099744 0.720178 0.204462
H81   H     H_    0.649443 0.031631 0.860624 0.265081
H82   H     H_    0.689008 0.112352 0.848981 0.275991
H83   H     H_    0.721332 0.024894 0.825110 0.265030
H84   H     H_    0.086375 0.316544 0.575921 0.177522
O1    O     O_R   0.746490 0.236330 0.638080 -0.657387
O2    O     O_R   0.325830 0.813840 0.483730 -0.662491
O3    O     O_R   0.325830 0.186160 0.483730 -0.659284
O4    O     O_R   0.674170 0.813840 0.516270 -0.649109
O5    O     O_R   0.174170 0.686160 0.516270 -0.653140
O6    O     O_R   0.825830 0.313840 0.483730 -0.665182
O7    O     O_R   0.825830 0.686160 0.483730 -0.659722
O8    O     O_R   0.174170 0.313840 0.516270 -0.649280
O9    O     O_R   0.739960 0.127620 0.525000 -0.563885
O10   O     O_R   0.260040 0.872380 0.475000 -0.561807
O11   O     O_R   0.260040 0.127620 0.475000 -0.575848
O12   O     O_R   0.253510 0.763670 0.361920 -0.638543
O13   O     O_R   0.739960 0.872380 0.525000 -0.567271
O14   O     O_R   0.239960 0.627620 0.525000 -0.568567
O15   O     O_R   0.760040 0.372380 0.475000 -0.572807
O16   O     O_R   0.760040 0.627620 0.475000 -0.577105
O17   O     O_R   0.239960 0.372380 0.525000 -0.567631
O18   O     O_R   0.680700 0.294870 0.629350 -0.657271
O19   O     O_R   0.319300 0.705130 0.370650 -0.627215
O20   O     O_R   0.319300 0.294870 0.370650 -0.616258
O21   O     O_R   0.680700 0.705130 0.629350 -0.651043
O22   O     O_R   0.180700 0.794870 0.629350 -0.656314
O23   O     O_R   0.253510 0.236330 0.361920 -0.643313
O24   O     O_R   0.819300 0.205130 0.370650 -0.623129
O25   O     O_R   0.819300 0.794870 0.370650 -0.616268
O26   O     O_R   0.180700 0.205130 0.629350 -0.651330
O27   O     O_R   0.062020 0.072840 0.007170 -0.620834
O28   O     O_R   0.937980 0.927160 0.992830 -0.621813
O29   O     O_R   0.937980 0.072840 0.992830 -0.623384
O30   O     O_R   0.062020 0.927160 0.007170 -0.616682
O31   O     O_R   0.562020 0.572840 0.007170 -0.622213
O32   O     O_R   0.437980 0.427160 0.992830 -0.621094
O33   O     O_R   0.437980 0.572840 0.992830 -0.617379
O34   O     O_R   0.746490 0.763670 0.638080 -0.663725
O35   O     O_R   0.562020 0.427160 0.007170 -0.621442
O36   O     O_R   0.947860 0.073950 0.109290 -0.618191
O37   O     O_R   0.052140 0.926050 0.890710 -0.631305
O38   O     O_R   0.052140 0.073950 0.890710 -0.622819
O39   O     O_R   0.947860 0.926050 0.109290 -0.618659
O40   O     O_R   0.447860 0.573950 0.109290 -0.617178
O41   O     O_R   0.552140 0.426050 0.890710 -0.630810
O42   O     O_R   0.552140 0.573950 0.890710 -0.623031
O43   O     O_R   0.447860 0.426050 0.109290 -0.617087
O44   O     O_3   0.746853 0.497301 0.523886 -0.578787
O45   O     O_R   0.246490 0.736330 0.638080 -0.654992
O46   O     O_3   0.221707 0.500009 0.587954 -0.601368
O47   O     O_3   0.246828 0.997297 0.523903 -0.577331
O48   O     O_3   0.721802 0.999999 0.587709 -0.601486
O49   O     O_R   0.753510 0.263670 0.361920 -0.641622
O50   O     O_R   0.753510 0.736330 0.361920 -0.643184
O51   O     O_R   0.246490 0.263670 0.638080 -0.663649
O52   O     O_R   0.674170 0.186160 0.516270 -0.636363
Zn1   Zn    Zn3+2 0.792340 0.208750 0.507670 0.938379
Zn2   Zn    Zn3+2 0.494040 0.500000 0.919480 0.916146
Zn3   Zn    Zn3+2 0.005960 1.000000 0.080520 0.933700
Zn4   Zn    Zn3+2 0.994040 0.000000 0.919480 0.912432
Zn5   Zn    Zn3+2 0.207660 0.791250 0.492330 0.935787
Zn6   Zn    Zn3+2 0.207660 0.208750 0.492330 0.924607
Zn7   Zn    Zn3+2 0.792340 0.791250 0.507670 0.944467
Zn8   Zn    Zn3+2 0.292340 0.708750 0.507670 0.937485
Zn9   Zn    Zn3+2 0.707660 0.291250 0.492330 0.933494
Zn10  Zn    Zn3+2 0.707660 0.708750 0.492330 0.923123
Zn11  Zn    Zn3+2 0.292340 0.291250 0.507670 0.944933
Zn12  Zn    Zn3+2 0.505960 0.500000 0.080520 0.930778

loop_
_geom_bond_atom_site_label_1
_geom_bond_atom_site_label_2
_ccdc_geom_bond_type
C18   C132  A    
C8    C145  A    
C63   H12   S    
C179  O26   A    
O50   Zn10  S    
C170  C178  A    
C50   C59   A    
C28   C183  A    
C52   C61   A    
C72   C75   A    
C54   C63   A    
C1    C167  S    
C58   C60   A    
C35   H84   S    
C102  H55   S    
C61   C63   A    
C110  C111  S    
C62   C64   A    
C131  C140  A    
C101  H7    S    
O22   Zn5   S    
C91   C96   A    
C74   C190  A    
C116  C195  A    
C50   C90   A    
C162  C171  A    
O35   Zn12  S    
C70   C74   A    
C36   H50   S    
C4    C12   A    
C147  C155  A    
C24   C85   A    
C88   C97   A    
C119  C128  A    
C49   C69   A    
C28   H42   S    
C44   O32   A    
C100  H54   S    
O23   Zn6   S    
C45   O33   A    
C104  C105  S    
C164  H15   S    
C88   C189  S    
C11   C20   A    
C3    C149  A    
C115  C123  A    
C150  C159  A    
O10   Zn5   S    
C113  H8    S    
C127  C136  A    
C86   C90   A    
C71   C73   A    
C148  C200  A    
C12   H27   S    
C19   C136  A    
C37   H51   S    
C35   C55   A    
C82   C91   A    
C45   C151  S    
C51   C66   A    
C111  H79   S    
C142  C151  A    
C52   C72   A    
C165  H16   S    
C112  C169  S    
C54   C70   A    
C14   C137  A    
C105  H63   S    
C89   C193  S    
C29   H43   S    
C164  C173  A    
C163  C172  A    
C173  C182  A    
C47   O35   A    
C79   C85   A    
C44   O43   A    
C91   C192  S    
C66   C77   A    
C106  H65   S    
C177  C195  A    
C57   C78   A    
C108  H71   S    
C39   O27   A    
C182  C199  A    
C40   O28   A    
C135  O34   A    
C8    C17   A    
C159  H9    S    
C56   C59   A    
O19   Zn8   S    
C80   C88   A    
C111  H80   S    
C5    H19   S    
C11   H26   S    
C143  C196  A    
C159  C167  A    
C84   C93   A    
C48   C67   A    
O17   Zn11  S    
C86   C95   A    
O38   Zn4   S    
C24   C77   A    
C126  C134  A    
C96   O44   S    
C2    C81   A    
C20   C134  A    
C55   C71   A    
C2    C75   A    
C10   C148  A    
C78   C87   A    
C123  C132  A    
C68   H4    S    
C119  C198  A    
C103  H60   S    
C67   C77   A    
C121  C130  A    
C25   C180  A    
C108  C109  S    
C168  C174  S    
C44   C152  S    
C42   C154  S    
C94   C188  S    
C168  O25   A    
C43   O42   A    
C188  O13   A    
C7    H21   S    
C163  H14   S    
C92   C186  S    
C21   H36   S    
C25   H39   S    
C33   C127  A    
C120  C199  A    
C157  O49   A    
C69   C76   A    
C85   C94   A    
C32   C126  A    
C122  C134  A    
C46   C82   A    
O32   Zn2   S    
C172  C181  A    
C38   H52   S    
O20   Zn11  S    
C58   H67   S    
C107  C108  S    
C13   C76   A    
C34   H49   S    
C149  C158  A    
C109  H74   S    
O31   Zn12  S    
C22   H37   S    
C41   O29   A    
C60   H45   S    
C30   H44   S    
C87   C96   A    
C107  H70   S    
O9    Zn1   S    
C22   C177  A    
C186  O10   A    
C169  C177  A    
C114  H82   S    
C141  C150  A    
O13   Zn7   S    
C144  C197  A    
C120  C129  A    
C23   H38   S    
C189  O14   A    
C41   O36   A    
C165  C174  A    
C79   H5    S    
C178  C196  A    
C39   O38   A    
O45   Zn8   S    
C14   H28   S    
C166  H17   S    
C47   C150  S    
C160  C169  A    
C42   O30   A    
C185  O52   A    
C6    H20   S    
C145  C154  A    
C115  C194  A    
C4    H18   S    
C116  C125  A    
C39   C158  S    
C103  H58   S    
C189  O5    A    
C1    O18   A    
C185  O9    A    
C118  C127  A    
C31   C125  A    
O27   Zn3   S    
C122  C131  A    
C8    H22   S    
C116  C137  A    
C117  C126  A    
C83   C101  A    
C7    C16   A    
C99   O48   S    
C106  H68   S    
C183  C200  A    
C145  C198  A    
C9    H24   S    
C5    C142  A    
C28   C37   A    
C192  O7    A    
C146  O45   A    
C12   C138  A    
C102  C103  S    
C50   C65   A    
C51   C79   A    
C26   H40   S    
C114  H83   S    
O14   Zn8   S    
C30   C123  A    
C34   C128  A    
C48   C113  A    
C51   C60   A    
C25   C33   A    
C41   C155  S    
C192  O16   A    
C64   H1    S    
C29   C184  A    
C73   C74   A    
C147  C199  A    
C45   O40   A    
C1    O1    A    
C95   C187  S    
O18   Zn9   S    
O49   Zn9   S    
C166  C175  A    
O15   Zn9   S    
C65   C76   A    
C104  H62   S    
O33   Zn2   S    
C49   C101  A    
C179  O51   A    
C90   H6    S    
C11   C149  A    
O43   Zn12  S    
C188  O4    A    
C65   C67   A    
C10   H25   S    
C142  C195  A    
C31   H46   S    
O6    Zn1   S    
C135  C171  S    
C93   C99   A    
O51   Zn11  S    
C81   C89   A    
C15   H29   S    
C3    C184  A    
C130  C139  A    
C27   H41   S    
C17   H31   S    
C106  H66   S    
C32   H47   S    
C112  O12   A    
C108  H72   S    
C110  O48   S    
C4    C141  A    
O26   Zn6   S    
C53   C57   A    
O37   Zn4   S    
O8    Zn6   S    
C121  C200  A    
C114  H81   S    
C191  O15   A    
C10   C19   A    
C20   H35   S    
C46   C54   A    
C5    C14   A    
C143  C152  A    
O3    Zn11  S    
C186  O2    A    
C117  C140  A    
C104  H61   S    
C100  H53   S    
C158  C166  A    
C87   C191  S    
C15   C140  A    
C59   H56   S    
C103  H59   S    
C104  O46   S    
C174  C183  A    
C27   C36   A    
C160  H10   S    
C105  C106  S    
C13   C83   A    
C43   O31   A    
C153  C162  A    
C23   C32   A    
C36   C129  A    
C151  C160  A    
C156  C165  A    
C105  H64   S    
C16   H30   S    
O40   Zn12  S    
C111  C114  S    
C121  C136  A    
O42   Zn2   S    
C168  O50   A    
C26   C181  A    
C46   H2    S    
C146  O22   A    
C148  C156  A    
C176  C194  A    
C43   C153  S    
C109  H73   S    
C157  C173  S    
C175  C184  A    
C93   C185  S    
C68   C80   A    
C191  O6    A    
C71   C75   A    
O39   Zn3   S    
C84   C113  A    
C146  C172  S    
C107  H69   S    
C78   C190  A    
O21   Zn10  S    
C35   C81   A    
C95   C98   A    
C92   C98   A    
C83   C92   A    
C161  H11   S    
C119  C133  A    
C33   H48   S    
C66   C69   A    
C98   O47   S    
C144  C153  A    
C112  O19   A    
C37   C130  A    
O52   Zn9   S    
O5    Zn5   S    
C23   C178  A    
C180  C197  A    
C193  O17   A    
C6    C15   A    
O7    Zn7   S    
C26   C34   A    
C129  C138  A    
C157  O24   A    
C13   C86   A    
C107  O47   S    
O41   Zn2   S    
C21   C30   A    
C52   C68   A    
C3    C122  A    
C97   O46   S    
C82   C190  A    
C61   H34   S    
C57   H3    S    
C187  O3    A    
C181  C198  A    
C19   H33   S    
C193  O8    A    
C7    C144  A    
O28   Zn4   S    
O4    Zn10  S    
C22   C31   A    
C56   H78   S    
C154  C163  A    
C175  C179  S    
C187  O11   A    
C9    C147  A    
C49   C58   A    
C89   C97   A    
O12   Zn5   S    
C29   C38   A    
C128  C137  A    
O36   Zn3   S    
O1    Zn1   S    
C124  O20   A    
C53   C62   A    
C9    C18   A    
C115  C138  A    
C21   C176  A    
C55   C64   A    
C100  C102  S    
O29   Zn4   S    
O25   Zn7   S    
C62   H23   S    
C109  H75   S    
C110  H76   S    
C161  C170  A    
C171  C180  A    
C16   C139  A    
O2    Zn8   S    
C135  O21   A    
C125  C133  A    
C48   C56   A    
C47   O41   A    
C120  C132  A    
C53   C73   A    
C152  C161  A    
C40   O39   A    
C42   O37   A    
C155  C164  A    
O34   Zn7   S    
C102  H57   S    
C38   C131  A    
C110  H77   S    
C24   C84   A    
C27   C182  A    
C117  C196  A    
C18   H32   S    
O30   Zn3   S    
C17   C133  A    
C94   C99   A    
C100  O44   S    
C141  C194  A    
O24   Zn1   S    
O16   Zn10  S    
C2    C80   A    
C124  C170  S    
C40   C156  S    
C124  O23   A    
C70   C72   A    
O11   Zn6   S    
C6    C143  A    
C118  C197  A    
C118  C139  A    
C167  C176  A    
C162  H13   S    
