data_str_m9_o2_o23_f0_sra.sym.37
_audit_creation_date              2012-12-11T16:31:28-0500
_audit_creation_method            fapswitch 2.2
_symmetry_space_group_name_H-M    P1
_symmetry_Int_Tables_number       1
_space_group_crystal_system       triclinic
_cell_length_a                    6.966305
_cell_length_b                    18.291175
_cell_length_c                    20.138535
_cell_angle_alpha                 68.309451
_cell_angle_beta                  89.686605
_cell_angle_gamma                 90.032076
_cell_volume                      2384.3498414

loop_
_atom_site_label
_atom_site_type_symbol
_atom_type_description
_atom_site_fract_x
_atom_site_fract_y
_atom_site_fract_z
_atom_type_partial_charge
O1    O     O_R   0.488990 0.443920 0.942160 -0.540557
O2    O     O_R   0.823840 0.406530 0.087600 -0.536615
O3    O     O_R   0.999650 0.556080 0.057840 -0.538459
C1    C     C_R   0.654878 0.384227 0.115329 0.695841
O4    O     O_R   0.818390 0.434590 0.944530 -0.542267
O5    O     O_R   0.994160 0.584350 0.913750 -0.533522
C2    C     C_R   0.651237 0.420691 0.923903 0.725131
O6    O     O_R   0.494480 0.415650 0.086250 -0.535196
O7    O     O_3   0.662600 0.549100 0.990070 -0.365943
V1    V     V_3+5 0.935320 0.490890 0.001840 1.413017
O8    O     O_R   0.324240 0.593470 0.912400 -0.538112
C3    C     C_R   0.155622 0.616347 0.884970 0.694886
O9    O     O_R   0.329690 0.565410 0.055470 -0.536441
C4    C     C_R   0.160914 0.578696 0.076541 0.727105
V2    V     V_3+5 0.435990 0.509110 0.998160 1.415736
O10   O     O_3   0.158840 0.450900 0.009930 -0.372012
C5    C     C_3   0.944571 0.693747 0.250531 -0.329954
C6    C     C_3   0.300065 0.674461 0.270646 -0.330334
C7    C     C_3   0.296298 0.723459 0.319677 -0.328838
H1    H     H_    0.915725 0.697430 0.357812 0.145283
H2    H     H_    0.914219 0.630377 0.281194 0.136679
H3    H     H_    0.444084 0.679868 0.245033 0.134767
H4    H     H_    0.277284 0.611131 0.303701 0.135806
H5    H     H_    0.277443 0.683232 0.376338 0.141859
H6    H     H_    0.436447 0.754097 0.315646 0.139548
C8    C     C_1   0.115911 0.871450 0.381341 -0.176536
C9    C     C_3   0.142525 0.703117 0.212403 0.297207
C10   C     C_3   0.940231 0.739499 0.302134 -0.326770
C11   C     C_3   0.131323 0.784673 0.297873 0.279511
C12   C     C_3   0.165165 0.839573 0.219064 -0.326327
C13   C     C_3   0.176975 0.791840 0.169392 -0.339018
C14   C     C_1   0.123744 0.831708 0.344534 -0.083159
C15   C     C_1   0.148007 0.658267 0.163895 -0.099845
C16   C     C_1   0.152835 0.622274 0.123833 -0.190509
H7    H     H_    0.068738 0.814305 0.126213 0.137888
H8    H     H_    0.320666 0.800507 0.143206 0.143710
H9    H     H_    0.046985 0.882722 0.201182 0.145599
H10   H     H_    0.829008 0.716189 0.210135 0.138274
H11   H     H_    0.817836 0.781261 0.288461 0.137479
H12   H     H_    0.299120 0.873898 0.214599 0.187364
H13   H     H_    0.407775 0.542576 0.690613 0.144298
C17   C     C_R   0.001113 0.766420 0.876945 -0.130766
C18   C     C_R   0.923357 0.837433 0.874770 -0.122262
C19   C     C_R   0.909387 0.900681 0.810139 -0.125283
C20   C     C_R   0.973304 0.893431 0.747192 -0.142743
C21   C     C_R   0.051466 0.821832 0.747534 0.067559
C22   C     C_R   0.065467 0.756937 0.813803 0.069106
C23   C     C_R   0.118444 0.814718 0.683532 -0.180749
C24   C     C_R   0.198204 0.742430 0.685827 0.069627
C25   C     C_R   0.211733 0.677464 0.752086 0.070546
C26   C     C_R   0.145901 0.684783 0.816127 -0.179968
C27   C     C_R   0.261713 0.732793 0.622665 -0.137796
C28   C     C_R   0.337240 0.661428 0.624762 -0.093395
C29   C     C_R   0.350139 0.598038 0.689353 -0.081386
C30   C     C_R   0.287785 0.605543 0.752373 -0.141415
H14   H     H_    0.011396 0.719448 0.928746 0.101323
H15   H     H_    0.874724 0.843533 0.923609 0.109146
H16   H     H_    0.849782 0.955877 0.808781 0.108382
H17   H     H_    0.961555 0.944770 0.698529 0.108985
H18   H     H_    0.252075 0.779880 0.570906 0.101132
H19   H     H_    0.384866 0.655150 0.575885 0.121142
H20   H     H_    0.298706 0.554141 0.801038 0.102872
H21   H     H_    0.674344 0.476803 0.312417 0.105297
C31   C     C_R   0.598882 0.226738 0.119552 -0.206873
C32   C     C_R   0.571666 0.151647 0.119285 -0.215926
C33   C     C_R   0.570878 0.086238 0.183348 0.463372
C34   C     C_R   0.585922 0.097249 0.248334 -0.219768
C35   C     C_R   0.609249 0.173416 0.250204 0.004859
C36   C     C_R   0.618422 0.239156 0.184362 0.073683
C37   C     C_R   0.619661 0.185077 0.316083 -0.131336
C38   C     C_R   0.632501 0.262782 0.315646 0.000117
C39   C     C_R   0.649144 0.327866 0.249667 0.064516
C40   C     C_R   0.643578 0.315964 0.184118 -0.143272
C41   C     C_R   0.624085 0.277363 0.379941 -0.187226
C42   C     C_R   0.628038 0.354007 0.379714 0.481521
C43   C     C_R   0.659082 0.417131 0.314495 -0.239336
C44   C     C_R   0.667859 0.404299 0.250657 -0.203147
H22   H     H_    0.601558 0.274996 0.068302 0.113950
H23   H     H_    0.551461 0.144296 0.068830 0.123064
H24   H     H_    0.578333 0.045592 0.297039 0.120631
H25   H     H_    0.607402 0.229522 0.431065 0.114262
H26   H     H_    0.686729 0.455297 0.201946 0.123218
O11   O     O_R   0.770890 0.084490 0.414040 -0.535071
O12   O     O_R   0.445980 0.065450 0.555510 -0.537775
O13   O     O_R   0.270670 0.915620 0.586180 -0.536730
C45   C     C_R   0.613136 0.079323 0.576313 0.722109
O14   O     O_R   0.441480 0.093500 0.412450 -0.536835
O15   O     O_R   0.266140 0.943870 0.442100 -0.537450
C46   C     C_R   0.610342 0.116458 0.384997 0.694927
O16   O     O_R   0.775410 0.056240 0.558120 -0.538081
O17   O     O_3   0.602660 0.950990 0.510100 -0.368816
V3    V     V_3+5 0.329740 0.009100 0.498130 1.434938
O18   O     O_R   0.936120 0.934420 0.444240 -0.537749
C47   C     C_R   0.105512 0.919507 0.424724 0.721773
O19   O     O_R   0.940610 0.906370 0.587310 -0.538818
C48   C     C_R   0.109162 0.883328 0.614732 0.690647
V4    V     V_3+5 0.829110 0.990690 0.501470 1.431445
O20   O     O_3   0.106080 0.049010 0.489880 -0.366025
C49   C     C_3   0.770909 0.273456 0.680013 -0.342155
C50   C     C_3   0.418081 0.250966 0.707676 -0.347222
C51   C     C_3   0.433248 0.306931 0.750709 0.336619
H27   H     H_    0.734851 0.314353 0.625203 0.202881
H28   H     H_    0.304994 0.205644 0.731489 0.167209
H29   H     H_    0.373077 0.285439 0.652030 0.124863
H30   H     H_    0.424924 0.368181 0.710319 0.099891
C52   C     C_1   0.649192 0.375820 0.877739 -0.195933
C53   C     C_3   0.613291 0.209549 0.707071 0.178548
C54   C     C_3   0.791979 0.318708 0.731288 0.026597
C55   C     C_3   0.631738 0.294278 0.789733 0.171435
C56   C     C_3   0.656602 0.204982 0.834229 -0.381244
C57   C     C_3   0.659143 0.156365 0.785212 -0.356900
C58   C     C_1   0.646804 0.339047 0.838276 -0.008915
C59   C     C_1   0.610942 0.162617 0.660408 -0.042131
C60   C     C_1   0.614835 0.124723 0.621996 -0.175754
H31   H     H_    0.802847 0.128931 0.787620 0.151812
H32   H     H_    0.552208 0.107768 0.805173 0.153691
H33   H     H_    0.792842 0.194770 0.864942 0.147414
H34   H     H_    0.910952 0.245996 0.675897 0.143905
H35   H     H_    0.931115 0.300898 0.758250 0.172674
H36   H     H_    0.537577 0.183908 0.873874 0.187616
O21   O     O_3   0.540126 0.011554 0.183333 -0.561582
C61   C     C_3   0.704151 0.987994 0.154821 0.094849
H37   H     H_    0.824838 0.977119 0.193138 0.121889
H38   H     H_    0.749961 0.032689 0.102461 0.113422
C62   C     C_3   0.659482 0.912783 0.142196 -0.760325
H39   H     H_    0.533280 0.922041 0.106593 0.224667
H40   H     H_    0.783771 0.896302 0.116069 0.177694
H41   H     H_    0.628862 0.864066 0.193663 0.213143
O22   O     O_3   0.609186 0.363608 0.444900 -0.555862
C63   C     C_3   0.500714 0.431383 0.438439 0.079973
H42   H     H_    0.379637 0.441006 0.400074 0.112616
H43   H     H_    0.595688 0.484071 0.421172 0.127022
C64   C     C_3   0.414107 0.421846 0.510632 -0.670279
H44   H     H_    0.529346 0.414682 0.550306 0.242555
H45   H     H_    0.328875 0.474850 0.505801 0.185567
H46   H     H_    0.318056 0.369627 0.529264 0.218525
Br1   Br    Br    0.800294 0.432286 0.676731 -0.670970
O23   O     O_3   0.278969 0.291541 0.800503 -0.563854
C65   C     C_3   0.221158 0.360231 0.812555 0.056435
H47   H     H_    0.099843 0.388937 0.777946 0.176088
H48   H     H_    0.331856 0.407091 0.800036 0.112305
C66   C     C_3   0.159871 0.337108 0.890174 -0.656290
H49   H     H_    0.032222 0.297973 0.901441 0.205422
H50   H     H_    0.277889 0.305542 0.926153 0.212614
H51   H     H_    0.124791 0.390787 0.900897 0.204749

loop_
_geom_bond_atom_site_label_1
_geom_bond_atom_site_label_2
_ccdc_geom_bond_type
C8    C47   S    
C8    C14   T    
O18   C47   A    
C32   H23   S    
C63   H43   S    
O19   C48   A    
C66   H51   S    
C1    O6    A    
V4    O20   S    
V3    O20   S    
C52   C58   T    
C28   C29   A    
C9    C15   S    
C51   O23   S    
C49   C54   S    
C11   C12   S    
C10   C11   S    
O12   C45   A    
O22   C63   S    
C11   C14   S    
C13   H8    S    
O5    C3    A    
C54   Br1   S    
O13   C48   A    
H21   C43   S    
C51   C55   S    
V2    O10   S    
C30   H20   S    
C50   H29   S    
C54   C55   S    
C6    C7    S    
C56   C57   S    
C53   C59   S    
C27   H18   S    
C17   H14   S    
C21   C22   A    
O8    V2    S    
O15   V3    S    
C19   H16   S    
C35   C36   A    
C62   H41   S    
C36   C40   A    
C37   C38   A    
O1    V2    S    
O7    V1    S    
O16   V4    S    
C5    H10   S    
C53   C57   S    
C33   C34   A    
C6    H3    S    
O9    C4    A    
C54   H35   S    
C28   H19   S    
C56   H33   S    
O13   V3    S    
C25   C26   A    
C21   C23   A    
C51   H30   S    
O11   C46   A    
O15   C47   A    
C2    C52   S    
C41   C42   A    
C6    C9    S    
C9    C13   S    
C6    H4    S    
C5    C9    S    
C43   C44   A    
C45   O16   A    
C55   C58   S    
C56   H36   S    
O17   V3    S    
O4    C2    A    
C22   C26   A    
H1    C10   S    
C10   H11   S    
C20   C21   A    
C50   H28   S    
C5    H2    S    
C34   C35   A    
C12   H9    S    
O2    C1    A    
C42   C43   A    
O5    V1    S    
C39   C44   A    
C64   H46   S    
C12   C13   S    
O8    C3    A    
C24   C27   A    
C15   C16   T    
C1    C40   S    
C33   O21   S    
C12   H12   S    
C31   C36   A    
O17   V4    S    
O21   C61   S    
C57   H32   S    
O3    C4    A    
C23   C24   A    
C32   C33   A    
O6    V2    S    
O9    V2    S    
C18   C19   A    
C62   H39   S    
C66   H50   S    
C37   C46   S    
C17   C18   A    
C41   H25   S    
C61   H38   S    
O2    V1    S    
O18   V4    S    
C3    C26   S    
C19   C20   A    
C62   H40   S    
C59   C60   T    
C29   C30   A    
C20   H17   S    
C50   C53   S    
C23   C48   S    
O1    C2    A    
C5    C10   S    
C31   H22   S    
C34   H24   S    
C39   C40   A    
C4    C16   S    
C38   C41   A    
C65   H47   S    
O19   V4    S    
C49   C53   S    
C25   C30   A    
C45   C60   S    
C31   C32   A    
C61   C62   S    
O14   C46   A    
C7    H5    S    
O7    V2    S    
O4    V1    S    
O3    V1    S    
V1    O10   S    
C55   C56   S    
C49   H34   S    
C65   H48   S    
C64   H44   S    
C44   H26   S    
C50   C51   S    
C65   C66   S    
C63   H42   S    
C13   H7    S    
C17   C22   A    
C7    H6    S    
H13   C29   S    
O23   C65   S    
C18   H15   S    
C63   C64   S    
C38   C39   A    
C49   H27   S    
C35   C37   A    
C24   C25   A    
O11   V4    S    
C64   H45   S    
C66   H49   S    
C57   H31   S    
O12   V3    S    
C61   H37   S    
O14   V3    S    
C42   O22   S    
C27   C28   A    
C7    C11   S    
