data_str_m3_o10_o17_f0_pcu.sym.1
_audit_creation_date              2012-12-10T16:52:06-0500
_audit_creation_method            fapswitch 2.2
_symmetry_space_group_name_H-M    P1
_symmetry_Int_Tables_number       1
_space_group_crystal_system       triclinic
_cell_length_a                    7.776312
_cell_length_b                    8.563404
_cell_length_c                    14.853412
_cell_angle_alpha                 91.010689
_cell_angle_beta                  86.018671
_cell_angle_gamma                 93.634887
_cell_volume                      984.654941294

loop_
_atom_site_label
_atom_site_type_symbol
_atom_type_description
_atom_site_fract_x
_atom_site_fract_y
_atom_site_fract_z
_atom_type_partial_charge
C1    C     C_R   0.545730 0.794671 0.497654 0.955823
C2    C     C_R   0.556992 0.636490 0.812513 -0.267204
C3    C     C_R   0.492544 0.501366 0.232259 -0.033908
C4    C     C_R   0.507456 0.498634 0.767741 -0.033908
C5    C     C_R   0.543267 0.639091 0.186782 -0.257185
C6    C     C_R   0.456733 0.360909 0.813218 -0.257185
C7    C     C_R   0.545607 0.640073 0.093517 0.125013
C8    C     C_R   0.454393 0.359927 0.906483 0.125013
C9    C     C_R   0.497821 0.500435 0.046891 0.056470
C10   C     C_R   0.502179 0.499565 0.953109 0.056470
C11   C     C_R   0.446169 0.361550 0.094159 0.128525
C12   C     C_R   0.454270 0.205329 0.502346 0.955824
C13   C     C_R   0.553831 0.638450 0.905841 0.128525
C14   C     C_R   0.595830 0.777362 0.046261 -0.219091
C15   C     C_R   0.404169 0.222638 0.953739 -0.219091
C16   C     C_R   0.599869 0.776568 0.952538 -0.218654
C17   C     C_R   0.400131 0.223432 0.047462 -0.218654
C18   C     C_2   0.569807 0.958192 0.496297 -0.384576
C19   C     C_2   0.430193 0.041808 0.503703 -0.384576
C20   C     C_R   0.502403 0.499920 0.672732 0.881183
C21   C     C_R   0.497597 0.500080 0.327267 0.881183
C22   C     C_R   0.443008 0.363510 0.187487 -0.267204
H1    H     H_    0.405105 0.258170 0.225372 0.129534
H2    H     H_    0.298317 0.990786 0.510782 0.182103
H3    H     H_    0.013564 0.382549 0.432057 0.193429
H4    H     H_    0.986435 0.617450 0.567943 0.193428
H5    H     H_    0.594895 0.741830 0.774628 0.129534
H6    H     H_    0.581306 0.744275 0.224162 0.132022
H7    H     H_    0.418693 0.255725 0.775838 0.132022
H8    H     H_    0.631998 0.884874 0.081731 0.151345
H9    H     H_    0.368002 0.115126 0.918269 0.151345
H10   H     H_    0.638756 0.883557 0.916634 0.151645
H11   H     H_    0.361244 0.116443 0.083366 0.151645
H12   H     H_    0.701683 0.009214 0.489218 0.182103
N1    N     N_2   0.950330 0.457950 0.475660 -0.172531
N2    N     N_2   0.049670 0.542050 0.524340 -0.172531
O1    O     O_R   0.389250 0.738570 0.505970 -0.613069
O2    O     O_R   0.610750 0.261430 0.494030 -0.613069
O3    O     O_R   0.678390 0.711620 0.490370 -0.632115
O4    O     O_R   0.321610 0.288380 0.509630 -0.632115
O5    O     O_R   0.355420 0.513510 0.639950 -0.612181
O6    O     O_R   0.644580 0.486490 0.360050 -0.612181
O7    O     O_R   0.644560 0.486560 0.624350 -0.623726
O8    O     O_R   0.355440 0.513440 0.375650 -0.623726
Zn1   Zn    Zn3+2 0.306940 0.517990 0.510420 0.947147
Zn2   Zn    Zn3+2 0.693060 0.482010 0.489580 0.947147

loop_
_geom_bond_atom_site_label_1
_geom_bond_atom_site_label_2
_ccdc_geom_bond_type
C12   O4    A    
C2    C4    A    
C15   H9    S    
C2    H5    S    
C16   H10   S    
C21   O8    A    
C18   H12   S    
C9    C10   A    
C11   C22   A    
N1    N2    D    
C1    O1    A    
C6    H7    S    
C19   H2    S    
N2    Zn1   S    
C9    C11   A    
C1    C18   S    
C17   H11   S    
H3    N1    S    
O3    Zn2   S    
C12   C19   S    
H4    N2    S    
C14   H8    S    
C20   O5    A    
C8    C15   A    
C12   O2    A    
O4    Zn1   S    
C8    C10   A    
O7    Zn2   S    
C14   C16   A    
O2    Zn2   S    
C4    C6    A    
C3    C21   S    
C1    O3    A    
O1    Zn1   S    
C21   O6    A    
C5    H6    S    
C20   O7    A    
O8    Zn1   S    
C7    C9    A    
C18   C19   D    
O6    Zn2   S    
C13   C16   A    
C5    C7    A    
C2    C13   A    
O5    Zn1   S    
C22   H1    S    
C11   C17   A    
C3    C22   A    
C6    C8    A    
C15   C17   A    
N1    Zn2   S    
C7    C14   A    
C3    C5    A    
C10   C13   A    
C4    C20   S    
