data_str_m2_o14_o22_f0_pcu.sym.10
_audit_creation_date              2013-03-05T15:51:22-0500
_audit_creation_method            fapswitch 2.2
_symmetry_space_group_name_H-M    P1
_symmetry_Int_Tables_number       1
_space_group_crystal_system       triclinic
_cell_length_a                    10.762476
_cell_length_b                    10.861572
_cell_length_c                    9.572609
_cell_angle_alpha                 90.445906
_cell_angle_beta                  90.003008
_cell_angle_gamma                 92.19339
_cell_volume                      1118.15938989

loop_
_atom_site_label
_atom_site_type_symbol
_atom_site_description
_atom_site_fract_x
_atom_site_fract_y
_atom_site_fract_z
_atom_type_partial_charge
O1    O     O_R   0.499990 0.319640 0.618810 -0.598814
O2    O     O_R   0.500000 0.319660 0.381240 -0.547146
C1    C     C_R   0.508371 0.262817 0.500332 0.890877
O3    O     O_R   0.317680 0.499970 0.618790 -0.589992
O4    O     O_R   0.317700 0.499990 0.381210 -0.588541
C2    C     C_R   0.260148 0.498833 0.500196 0.845421
Cu1   Cu    Cu3+1 0.499990 0.499990 0.640660 0.961478
Cu2   Cu    Cu3+1 0.500010 0.500010 0.359340 0.980138
O5    O     O_R   0.500000 0.680340 0.618760 -0.625110
O6    O     O_R   0.500010 0.680360 0.381190 -0.607865
O7    O     O_R   0.682300 0.500010 0.618790 -0.582899
O8    O     O_R   0.682320 0.500030 0.381210 -0.582604
C3    C     C_R   0.492665 0.737555 0.501627 0.771498
C4    C     C_R   0.739667 0.494554 0.500206 0.824219
C5    C     C_3   0.071708 0.473392 0.651623 -0.380293
H1    H     H_    0.107783 0.549629 0.720870 0.147584
H2    H     H_    0.106632 0.388609 0.698754 0.244377
C6    C     C_3   0.928998 0.473879 0.653293 0.203881
H3    H     H_    0.903966 0.558073 0.713085 0.114031
H4    H     H_    0.110402 0.695022 0.519774 0.201330
H5    H     H_    0.897795 0.692144 0.515756 0.192919
C7    C     C_3   0.075015 0.619144 0.449821 -0.459662
C8    C     C_3   0.071410 0.390805 0.397981 0.137697
C9    C     C_3   0.122415 0.493892 0.500609 -0.059455
H6    H     H_    0.100258 0.421349 0.291234 0.091549
C10   C     C_3   0.877515 0.489128 0.500950 -0.112857
C11   C     C_3   0.931267 0.616081 0.448559 -0.527736
C12   C     C_3   0.925355 0.388387 0.396742 0.149237
H7    H     H_    0.901002 0.421311 0.290311 0.114476
H8    H     H_    0.110531 0.639911 0.343005 0.194715
H9    H     H_    0.898427 0.634286 0.340691 0.198903
H10   H     H_    0.488436 0.109034 0.279681 0.170268
C13   C     C_R   0.581650 0.122006 0.753914 -0.091265
H11   H     H_    0.632006 0.209857 0.752180 0.215436
C14   C     C_R   0.568829 0.064394 0.882861 -0.125250
H12   H     H_    0.603256 0.110203 0.976815 0.169503
C15   C     C_R   0.507435 0.949999 0.891066 -0.147685
H13   H     H_    0.490641 0.907941 0.991859 0.142570
C16   C     C_R   0.470680 0.887897 0.769024 -0.151536
H14   H     H_    0.418603 0.802013 0.782454 0.166435
C17   C     C_R   0.496047 0.939514 0.635661 0.100047
C18   C     C_R   0.533100 0.065108 0.630611 0.073852
C19   C     C_R   0.518463 0.128888 0.503005 -0.064815
C20   C     C_R   0.497093 0.062652 0.378829 -0.097744
H15   H     H_    0.477704 0.886880 0.281418 0.161153
C21   C     C_R   0.487094 0.935511 0.380350 -0.202000
C22   C     C_R   0.486647 0.872149 0.507269 -0.108096
H16   H     H_    0.359974 0.360768 0.128185 0.169563
C23   C     C_R   0.665409 0.663148 0.145468 -0.162678
H17   H     H_    0.673391 0.671330 0.255499 0.198950
C24   C     C_R   0.746403 0.742447 0.073713 -0.209532
H18   H     H_    0.809515 0.804680 0.130522 0.174708
C25   C     C_R   0.746509 0.742202 0.929843 -0.188543
H19   H     H_    0.809475 0.804421 0.873931 0.169606
C26   C     C_R   0.665382 0.662897 0.856954 -0.126025
H20   H     H_    0.672611 0.671339 0.747007 0.192505
C27   C     C_R   0.581228 0.580221 0.925753 0.232781
C28   C     C_R   0.581243 0.580215 0.075486 0.220836
N1    N     N_R   0.501200 0.501210 0.147910 -0.202441
C29   C     C_R   0.423021 0.423448 0.073298 -0.053646
H21   H     H_    0.360051 0.360791 0.869152 0.158503
C30   C     C_R   0.423057 0.423482 0.925212 -0.061274
N2    N     N_R   0.501250 0.501290 0.852040 -0.204185
N3    N     N_R   0.874769 0.367495 0.729186 0.130590
O9    O     O_R   0.807357 0.386446 0.839606 -0.375113
O10   O     O_R   0.910929 0.256610 0.704856 -0.285629
N4    N     N_R   0.128685 0.271241 0.418289 0.166706
O11   O     O_R   0.176661 0.215401 0.311482 -0.364382
O12   O     O_R   0.143328 0.225126 0.541953 -0.319756
N5    N     N_R   0.858985 0.267130 0.407964 0.147239
O13   O     O_R   0.753235 0.251522 0.343348 -0.386334
O14   O     O_R   0.912209 0.168921 0.451001 -0.234680

loop_
_geom_bond_atom_site_label_1
_geom_bond_atom_site_label_2
_geom_bond_distance
_ccdc_geom_bond_type
C15   C16   1.394110 A    
C5    C6    1.536215 S    
C24   C25   1.377200 A    
C19   C20   1.399086 A    
C23   H17   1.059543 S    
C27   N2    1.381247 A    
C15   H13   1.082980 S    
O4    Cu2   1.973247 S    
C17   C18   1.407701 A    
C25   C26   1.387139 A    
C10   C12   1.575967 S    
C14   H12   1.082872 S    
C6    C10   1.572198 S    
Cu2   O8    1.973225 S    
C2    C9    1.481279 S    
N3    O9    1.301591 A    
H21   C30   1.081845 S    
C26   H20   1.059778 S    
C26   C27   1.416846 A    
C13   H11   1.079421 S    
H10   C20   1.083655 S    
Cu1   Cu2   2.692968 S    
C16   C17   1.420601 A    
H15   C21   1.083612 S    
C4    C10   1.487028 S    
Cu1   O7    1.973247 S    
C12   N5    1.478709 S    
N4    O12   1.300896 A    
C1    C19   1.463298 S    
C27   C28   1.433335 A    
C30   N2    1.366706 A    
O3    Cu1   1.973225 S    
C13   C18   1.418453 A    
C29   C30   1.417577 A    
C12   H7    1.116867 S    
C13   C14   1.392735 A    
O8    C4    1.298395 A    
H16   C29   1.081758 S    
O2    C1    1.305427 A    
C7    C11   1.546211 S    
C8    H6    1.117169 S    
Cu2   N1    2.024118 S    
C10   C11   1.561194 S    
O4    C2    1.296478 A    
H5    C11   1.113830 S    
O7    C4    1.294261 A    
C7    C9    1.552670 S    
O3    C2    1.292848 A    
C8    C12   1.571164 S    
C18   C19   1.420675 A    
C5    H2    1.107153 S    
C8    C9    1.567143 S    
C11   H9    1.112985 S    
N4    O11   1.301613 A    
C6    N3    1.471429 S    
C17   C22   1.427057 A    
N1    C29   1.366605 A    
N5    O13   1.300079 A    
C24   H18   1.083089 S    
Cu2   O6    1.968400 S    
C6    H3    1.116769 S    
Cu1   N2    2.023440 S    
C23   C24   1.387557 A    
C8    N4    1.472907 S    
C16   H14   1.078293 S    
Cu1   O5    1.971689 S    
O5    C3    1.290064 A    
C21   C22   1.400900 A    
C5    C9    1.559783 S    
N5    O14   1.299729 A    
C7    H8    1.113342 S    
C14   C15   1.387539 A    
C28   N1    1.382705 A    
O1    Cu1   1.968400 S    
C3    C22   1.466382 S    
C20   C21   1.381222 A    
O2    Cu2   1.971689 S    
C23   C28   1.417333 A    
C5    H1    1.114740 S    
C25   H19   1.083057 S    
H4    C7    1.113572 S    
O1    C1    1.291789 A    
O6    C3    1.309186 A    
N3    O10   1.299133 A    
