data_str_m9_o16_o24_f0_sra.sym.56
_audit_creation_date              2012-12-11T15:13:46-0500
_audit_creation_method            fapswitch 2.2
_symmetry_space_group_name_H-M    P1
_symmetry_Int_Tables_number       1
_space_group_crystal_system       triclinic
_cell_length_a                    6.943335
_cell_length_b                    13.468393
_cell_length_c                    20.124317
_cell_angle_alpha                 104.096841
_cell_angle_beta                  90.025084
_cell_angle_gamma                 90.419305
_cell_volume                      1825.20951439

loop_
_atom_site_label
_atom_site_type_symbol
_atom_type_description
_atom_site_fract_x
_atom_site_fract_y
_atom_site_fract_z
_atom_type_partial_charge
O1    O     O_R   0.506780 0.600060 0.449950 -0.539307
O2    O     O_R   0.179840 0.597110 0.589410 -0.543543
O3    O     O_R   0.004570 0.399940 0.550050 -0.538585
C1    C     C_R   0.348227 0.618988 0.616864 0.686046
O4    O     O_R   0.177380 0.612160 0.452890 -0.535577
O5    O     O_R   0.002100 0.415100 0.412560 -0.541372
C2    C     C_R   0.346500 0.639488 0.436697 0.701684
O6    O     O_R   0.509250 0.584900 0.587440 -0.541157
O7    O     O_3   0.337570 0.435330 0.486930 -0.371785
V1    V     V_3+5 0.064650 0.512000 0.502430 1.451845
O8    O     O_R   0.672090 0.402890 0.410590 -0.545578
C3    C     C_R   0.840570 0.380930 0.383095 0.692789
O9    O     O_R   0.674540 0.387840 0.547110 -0.542481
C4    C     C_R   0.843219 0.360654 0.563479 0.713889
V2    V     V_3+5 0.564040 0.488000 0.497570 1.433004
O10   O     O_3   0.840990 0.564670 0.513070 -0.366113
C5    C     C_R   0.889265 0.102300 0.605228 -0.069062
H1    H     H_    0.903808 0.977209 0.692109 0.131173
C6    C     C_R   0.852633 0.280183 0.601164 -0.091924
C7    C     C_R   0.841894 0.318318 0.931037 -0.184226
C8    C     C_R   0.828148 0.394047 0.895279 -0.094558
C9    C     C_R   0.832295 0.368795 0.823899 -0.148660
C10   C     C_R   0.850283 0.265649 0.785927 0.077491
C11   C     C_R   0.864384 0.188492 0.823153 0.074093
C12   C     C_R   0.855807 0.236743 0.712537 0.072127
C13   C     C_R   0.877784 0.131670 0.677878 0.087154
C14   C     C_R   0.888962 0.057824 0.716453 -0.205925
C15   C     C_R   0.882224 0.085561 0.787382 -0.205981
C16   C     C_R   0.840982 0.309112 0.672481 -0.227964
C17   C     C_R   0.878782 0.177087 0.567136 -0.089350
C18   C     C_R   0.860102 0.215895 0.895778 -0.076004
H2    H     H_    0.821636 0.389535 0.694981 0.099409
H3    H     H_    0.837655 0.339587 0.986538 0.102606
H4    H     H_    0.821552 0.432265 0.800411 0.122033
H5    H     H_    0.813824 0.473241 0.923149 0.146511
H6    H     H_    0.892340 0.024956 0.814029 0.116887
C19   C     C_3   0.676305 0.225460 0.227015 -0.136577
C20   C     C_3   0.764357 0.201592 0.292082 -0.110684
H7    H     H_    0.687161 0.162283 0.326779 0.129560
H8    H     H_    0.527597 0.205228 0.207865 0.110945
C21   C     C_3   0.849265 0.310722 0.312444 -0.004733
C22   C     C_3   0.761139 0.335391 0.248166 -0.147069
C23   C     C_3   0.947968 0.297815 0.208002 -0.146485
C24   C     C_3   0.036138 0.273908 0.273070 -0.117121
C25   C     C_3   0.951235 0.163970 0.251940 -0.119701
C26   C     C_3   0.863213 0.188695 0.187671 -0.014929
H9    H     H_    0.682443 0.406436 0.247050 0.102989
H10   H     H_    0.023747 0.337102 0.172950 0.101437
H11   H     H_    0.184883 0.293935 0.292241 0.110395
H12   H     H_    0.029851 0.092916 0.253099 0.119749
C27   C     C_3   0.460104 0.792973 0.707395 -0.126404
C28   C     C_3   0.280069 0.841116 0.748217 -0.151760
H13   H     H_    0.217441 0.916359 0.747354 0.117916
H14   H     H_    0.545779 0.827642 0.672147 0.112886
C29   C     C_3   0.358869 0.811652 0.812364 -0.047935
C30   C     C_3   0.539250 0.764141 0.772248 -0.119459
C31   C     C_3   0.433406 0.659181 0.751391 -0.174415
C32   C     C_3   0.254762 0.708202 0.791467 0.001616
C33   C     C_3   0.173470 0.736399 0.727282 -0.150569
C34   C     C_3   0.354314 0.689028 0.687402 -0.014997
H15   H     H_    0.690299 0.775898 0.790835 0.120192
H16   H     H_    0.496108 0.583988 0.752505 0.109286
H17   H     H_    0.022202 0.724637 0.708914 0.114895
C35   C     C_R   0.376652 0.894246 0.392529 -0.121912
H18   H     H_    0.372387 0.844626 0.486089 0.118728
H19   H     H_    0.389888 0.020328 0.309937 0.124234
H20   H     H_    0.386499 0.974363 0.419321 0.125842
C36   C     C_R   0.356165 0.717187 0.397311 -0.036755
C37   C     C_R   0.343090 0.680779 0.067566 -0.154731
C38   C     C_R   0.334021 0.604051 0.102714 -0.120879
C39   C     C_R   0.338921 0.628429 0.174076 -0.163838
C40   C     C_R   0.353027 0.731556 0.212499 0.083197
C41   C     C_R   0.361859 0.809953 0.176032 0.068864
C42   C     C_R   0.358470 0.759478 0.285718 0.071281
C43   C     C_R   0.371709 0.864773 0.320613 0.137635
C44   C     C_R   0.379868 0.939980 0.283659 -0.192759
C45   C     C_R   0.375279 0.913220 0.212580 -0.207224
C46   C     C_R   0.351158 0.686635 0.325788 -0.218870
C47   C     C_R   0.368767 0.820780 0.430643 -0.132497
C48   C     C_R   0.357015 0.783317 0.103446 -0.079643
H21   H     H_    0.341357 0.605521 0.303340 0.090879
H22   H     H_    0.339232 0.660173 0.012045 0.122366
H23   H     H_    0.331143 0.564525 0.197340 0.102387
H24   H     H_    0.323133 0.524781 0.074408 0.120584
H25   H     H_    0.382149 0.974601 0.186481 0.115478
O11   O     O_R   0.203580 0.914920 0.912610 -0.538765
O12   O     O_R   0.535710 0.887810 0.047120 -0.539080
O13   O     O_R   0.710730 0.084950 0.087430 -0.542521
C49   C     C_R   0.366750 0.861180 0.063910 0.695970
O14   O     O_R   0.533010 0.902850 0.910600 -0.543392
O15   O     O_R   0.708010 0.100090 0.949930 -0.538435
C50   C     C_R   0.364730 0.881378 0.883031 0.691192
O16   O     O_R   0.206300 0.899780 0.050100 -0.535834
O17   O     O_3   0.375170 0.064580 0.013100 -0.373505
V3    V     V_3+5 0.648200 0.988020 0.997570 1.434112
O18   O     O_R   0.038030 0.112330 0.952840 -0.542256
C51   C     C_R   0.869375 0.138655 0.935908 0.686673
O19   O     O_R   0.040730 0.097300 0.089360 -0.545571
C52   C     C_R   0.872225 0.118838 0.116963 0.678574
V4    V     V_3+5 0.148780 0.012220 0.002360 1.427138
O20   O     O_3   0.871930 0.935430 0.986900 -0.363704
C53   C     C_1   0.896799 0.148332 0.493116 0.283488
N1    N     N_1   0.911850 0.125215 0.434099 -0.387225
C54   C     C_1   0.141233 0.662080 0.837766 0.255178
N2    N     N_1   0.051673 0.625911 0.874398 -0.388354
C55   C     C_1   0.913878 0.995706 0.569242 0.278208
N3    N     N_1   0.933484 0.910825 0.540530 -0.362873

loop_
_geom_bond_atom_site_label_1
_geom_bond_atom_site_label_2
_ccdc_geom_bond_type
C24   H11   S    
C26   C52   S    
H18   C47   S    
C21   C22   S    
C1    O6    A    
C31   H16   S    
C25   C26   S    
C24   C25   S    
C13   C14   A    
C29   C50   S    
C5    C13   A    
C16   H2    S    
O5    C3    A    
C20   H7    S    
C55   N3    T    
V2    O10   S    
C48   C49   S    
C30   C31   S    
C27   C30   S    
C19   C22   S    
C20   C25   S    
C37   H22   S    
C2    C36   S    
O8    V2    S    
C41   C48   A    
O12   V3    S    
C10   C11   A    
C38   C39   A    
O1    V2    S    
C38   H24   S    
O7    V1    S    
C28   C29   S    
C36   C47   A    
C10   C12   A    
O13   V3    S    
C45   H25   S    
C33   C34   S    
C8    C9    A    
C36   C46   A    
C5    C17   A    
C1    C34   S    
C53   N1    T    
C54   N2    T    
C39   H23   S    
C12   C16   A    
C9    H4    S    
C42   C43   A    
C27   C28   S    
C35   H20   S    
O14   V3    S    
C44   C45   A    
C20   C21   S    
C40   C42   A    
O4    C2    A    
C31   C34   S    
C12   C13   A    
O2    C1    A    
C43   C44   A    
C19   C20   S    
C28   C33   S    
O14   C50   A    
O17   V4    S    
H19   C44   S    
O18   C51   A    
C17   C53   S    
C29   C30   S    
O17   V3    S    
C30   H15   S    
O15   C51   A    
O16   V4    S    
O3    C4    A    
C7    H3    S    
O6    V2    S    
O19   V4    S    
O12   C49   A    
C23   C24   S    
C35   C47   A    
C32   C54   S    
C22   C23   S    
C6    C16   A    
O11   V4    S    
C28   H13   S    
C3    C21   S    
C23   H10   S    
O1    C2    A    
C4    C6    S    
H1    C14   S    
C11   C15   A    
C40   C41   A    
O5    V1    S    
O8    C3    A    
C8    H5    S    
C19   H8    S    
C33   H17   S    
C27   H14   S    
O9    V2    S    
C32   C33   S    
C11   C18   A    
O4    V1    S    
O3    V1    S    
O11   C50   A    
C5    C55   S    
C46   H21   S    
C31   C32   S    
C25   H12   S    
O18   V4    S    
V4    O20   S    
C21   C24   S    
C35   C43   A    
C22   H9    S    
C18   C51   S    
C49   O16   A    
C37   C38   A    
C23   C26   S    
O13   C52   A    
O15   V3    S    
C39   C40   A    
C7    C8    A    
C15   H6    S    
O19   C52   A    
C42   C46   A    
C29   C32   S    
C14   C15   A    
C41   C45   A    
C9    C10   A    
C37   C48   A    
V1    O10   S    
C27   C34   S    
C19   C26   S    
O9    C4    A    
C6    C17   A    
V3    O20   S    
O7    V2    S    
C7    C18   A    
O2    V1    S    
