data_str_m9_o16_o16_f0_sra.sym.62
_audit_creation_date              2012-12-11T15:06:41-0500
_audit_creation_method            fapswitch 2.2
_symmetry_space_group_name_H-M    P1
_symmetry_Int_Tables_number       1
_space_group_crystal_system       triclinic
_cell_length_a                    7.241446
_cell_length_b                    14.797392
_cell_length_c                    22.563876
_cell_angle_alpha                 89.999119
_cell_angle_beta                  90.007772
_cell_angle_gamma                 88.921225
_cell_volume                      2417.39262274

loop_
_atom_site_label
_atom_site_type_symbol
_atom_type_description
_atom_site_fract_x
_atom_site_fract_y
_atom_site_fract_z
_atom_type_partial_charge
O1    O     O_R   0.390810 0.844810 0.447340 -0.532820
O2    O     O_R   0.109190 0.155190 0.947340 -0.532830
O3    O     O_R   0.890810 0.655190 0.552660 -0.534991
O4    O     O_R   0.609190 0.344810 0.052660 -0.534969
O5    O     O_R   0.720550 0.655820 0.440420 -0.536813
O6    O     O_R   0.779450 0.344180 0.940420 -0.536811
O7    O     O_R   0.220550 0.844180 0.559580 -0.535612
O8    O     O_R   0.279450 0.155820 0.059580 -0.535610
C1    C     C_R   0.553648 0.626527 0.426184 0.676315
C2    C     C_R   0.946333 0.373480 0.926186 0.676320
C3    C     C_R   0.050778 0.873281 0.573806 0.677685
C4    C     C_R   0.449241 0.126712 0.073801 0.677674
O9    O     O_R   0.720530 0.844130 0.440420 -0.535748
O10   O     O_R   0.779470 0.155870 0.940420 -0.535738
O11   O     O_R   0.220530 0.655870 0.559580 -0.534822
O12   O     O_R   0.279470 0.344130 0.059580 -0.534825
O13   O     O_R   0.890830 0.844810 0.552660 -0.535039
O14   O     O_R   0.609170 0.155190 0.052660 -0.535031
O15   O     O_R   0.390830 0.655190 0.447340 -0.533721
O16   O     O_R   0.109170 0.344810 0.947340 -0.533732
C5    C     C_R   0.550800 0.873452 0.426320 0.674709
C6    C     C_R   0.949177 0.126545 0.926320 0.674723
C7    C     C_R   0.053714 0.626768 0.573972 0.671084
C8    C     C_R   0.446305 0.373234 0.073967 0.671093
O17   O     O_3   0.557310 0.749980 0.536820 -0.373257
O18   O     O_3   0.942690 0.250020 0.036820 -0.373238
O19   O     O_3   0.057310 0.750020 0.463180 -0.372486
O20   O     O_3   0.442690 0.249980 0.963180 -0.372501
V1    V     V_3+5 0.832160 0.749980 0.493170 1.427161
V2    V     V_3+5 0.667840 0.250020 0.993170 1.427231
V3    V     V_3+5 0.332160 0.750020 0.506830 1.431409
V4    V     V_3+5 0.167840 0.249980 0.006830 1.431390
C9    C     C_R   0.854615 0.601351 0.857421 -0.169723
C10   C     C_R   0.644524 0.398540 0.357495 -0.169676
C11   C     C_R   0.519606 0.893061 0.136068 -0.167534
C12   C     C_R   0.981684 0.107007 0.636082 -0.167455
H1    H     H_    0.822613 0.721558 0.771016 0.127202
H2    H     H_    0.676123 0.278251 0.271131 0.127244
H3    H     H_    0.581899 0.769523 0.218800 0.127140
H4    H     H_    0.919879 0.230603 0.718802 0.127125
H5    H     H_    0.796431 0.665938 0.871393 0.113338
H6    H     H_    0.702285 0.333884 0.371507 0.113373
H7    H     H_    0.540836 0.825279 0.118821 0.113557
H8    H     H_    0.961105 0.174838 0.618838 0.113557
C13   C     C_R   0.946820 0.448052 0.882726 -0.034602
C14   C     C_R   0.553079 0.551961 0.382726 -0.034502
C15   C     C_R   0.463849 0.052058 0.116862 -0.029548
C16   C     C_R   0.036271 0.947925 0.616874 -0.029521
C17   C     C_R   0.128476 0.468382 0.598108 -0.159053
C18   C     C_R   0.372207 0.531714 0.098035 -0.159176
C19   C     C_R   0.510630 0.036200 0.407215 -0.163258
C20   C     C_R   0.988450 0.963745 0.907214 -0.163322
C21   C     C_R   0.154116 0.397289 0.637655 -0.129433
C22   C     C_R   0.346928 0.602876 0.137547 -0.129380
C23   C     C_R   0.481178 0.109917 0.369994 -0.127468
C24   C     C_R   0.017457 0.889989 0.869995 -0.127387
C25   C     C_R   0.108829 0.407733 0.697267 -0.166949
C26   C     C_R   0.392010 0.592417 0.197179 -0.166924
C27   C     C_R   0.474790 0.098457 0.308742 -0.164775
C28   C     C_R   0.024144 0.901457 0.808746 -0.164707
C29   C     C_R   0.031582 0.489796 0.718904 0.079597
C30   C     C_R   0.468651 0.510255 0.218875 0.079571
C31   C     C_R   0.501407 0.012194 0.282731 0.078296
C32   C     C_R   0.998312 0.987776 0.782735 0.078263
C33   C     C_R   0.003819 0.562632 0.677741 0.072956
C34   C     C_R   0.496071 0.437352 0.177747 0.072970
C35   C     C_R   0.533687 0.936668 0.321355 0.072488
C36   C     C_R   0.966495 0.063345 0.821356 0.072473
C37   C     C_R   0.982837 0.502199 0.780054 0.073788
C38   C     C_R   0.517139 0.497822 0.280047 0.073804
C39   C     C_R   0.495746 0.998309 0.219818 0.074565
C40   C     C_R   0.004296 0.001675 0.719825 0.074556
C41   C     C_R   0.907123 0.587088 0.798241 0.145161
C42   C     C_R   0.592299 0.412843 0.298289 0.145130
C43   C     C_R   0.523631 0.909330 0.197344 0.143892
C44   C     C_R   0.977210 0.090712 0.697353 0.143862
C45   C     C_R   0.881762 0.657098 0.757254 -0.213015
C46   C     C_R   0.617376 0.342778 0.257330 -0.212986
C47   C     C_R   0.557205 0.837016 0.235965 -0.210077
C48   C     C_R   0.944013 0.163065 0.735969 -0.210012
C49   C     C_R   0.929949 0.645391 0.698115 -0.203845
C50   C     C_R   0.569412 0.354511 0.198171 -0.203734
C51   C     C_R   0.561211 0.850177 0.296900 -0.197635
C52   C     C_R   0.939683 0.149888 0.796901 -0.197490
C53   C     C_R   0.003194 0.433229 0.823811 -0.219886
C54   C     C_R   0.497025 0.566836 0.323781 -0.219871
C55   C     C_R   0.465599 0.069341 0.178133 -0.218576
C56   C     C_R   0.034042 0.930609 0.678141 -0.218528
C57   C     C_R   0.872442 0.532218 0.899013 -0.166226
C58   C     C_R   0.626926 0.467711 0.399066 -0.166303
C59   C     C_R   0.490795 0.963845 0.096256 -0.169232
C60   C     C_R   0.010178 0.036196 0.596273 -0.169281
C61   C     C_R   0.054449 0.551403 0.617174 -0.080667
C62   C     C_R   0.445676 0.448608 0.117158 -0.080564
C63   C     C_R   0.536367 0.949378 0.383846 -0.076138
C64   C     C_R   0.963490 0.050618 0.883844 -0.076117
H9    H     H_    0.056250 0.366638 0.813327 0.097827
H10   H     H_    0.444349 0.633486 0.313262 0.097788
H11   H     H_    0.446732 0.138779 0.191549 0.093608
H12   H     H_    0.052302 0.861132 0.691555 0.093572
H13   H     H_    0.169898 0.459113 0.552316 0.107517
H14   H     H_    0.330994 0.541008 0.052223 0.107478
H15   H     H_    0.510993 0.046755 0.454748 0.105916
H16   H     H_    0.987777 0.953173 0.954745 0.105900
H17   H     H_    0.138167 0.350517 0.725375 0.112079
H18   H     H_    0.363027 0.649709 0.225253 0.112120
H19   H     H_    0.447315 0.158460 0.283044 0.113077
H20   H     H_    0.051200 0.841410 0.783052 0.113072
H21   H     H_    0.213002 0.333762 0.622166 0.119771
H22   H     H_    0.288510 0.666479 0.122013 0.119797
H23   H     H_    0.460539 0.176650 0.388837 0.119268
H24   H     H_    0.037470 0.823210 0.888839 0.119248
H25   H     H_    0.907645 0.701878 0.668324 0.119013
H26   H     H_    0.591473 0.297978 0.168403 0.118834
H27   H     H_    0.587449 0.791822 0.324803 0.108261
H28   H     H_    0.913770 0.208278 0.824799 0.108121
H29   H     H_    0.826201 0.544105 0.944064 0.108941
H30   H     H_    0.672906 0.455780 0.444143 0.108897
H31   H     H_    0.491770 0.949950 0.049106 0.107188
H32   H     H_    0.009636 0.050124 0.549125 0.107171

loop_
_geom_bond_atom_site_label_1
_geom_bond_atom_site_label_2
_ccdc_geom_bond_type
O17   V3    S    
C25   H17   S    
C26   C30   A    
O1    C5    A    
C23   C27   A    
O19   V1    S    
O13   V1    S    
O3    C7    A    
C10   H6    S    
C48   C52   A    
O15   V3    S    
C11   C59   A    
C35   C51   A    
C11   C43   A    
C18   C22   A    
C58   H30   S    
O9    V1    S    
C9    C57   A    
C17   H13   S    
O4    C8    A    
C19   H15   S    
O1    V3    S    
C30   C38   A    
O2    V4    S    
O3    V1    S    
C38   C42   A    
C12   C44   A    
C1    O15   A    
C20   H16   S    
C2    O16   A    
C19   C63   A    
O2    C6    A    
C16   C56   A    
C37   C41   A    
O14   V2    S    
C11   H7    S    
O5    V1    S    
C28   H20   S    
C40   C44   A    
C34   C62   A    
C12   C60   A    
O11   C7    A    
C1    C14   S    
O12   C8    A    
C35   C63   A    
C3    C16   S    
C6    C64   S    
O10   V2    S    
C4    C15   S    
C40   C56   A    
O16   V4    S    
C55   H11   S    
C31   C35   A    
C39   C43   A    
O7    V3    S    
C30   C34   A    
O8    V4    S    
C51   H27   S    
C50   H26   S    
C21   C25   A    
O18   V4    S    
C18   C62   A    
H2    C46   S    
H1    C45   S    
C27   H19   S    
C7    C61   S    
C26   H18   S    
C22   H22   S    
C36   C52   A    
O7    C3    A    
C10   C58   A    
O5    C1    A    
C8    C62   S    
C34   C50   A    
C46   C50   A    
C33   C49   A    
C45   C49   A    
O8    C4    A    
C2    C13   S    
H4    C48   S    
O9    C5    A    
C36   C64   A    
C25   C29   A    
C56   H12   S    
C10   C42   A    
C39   C55   A    
C9    C41   A    
O6    V2    S    
C57   H29   S    
C18   H14   S    
C16   C60   A    
C59   H31   S    
C12   H8    S    
C4    O14   A    
C38   C54   A    
C32   C36   A    
C37   C53   A    
C22   C26   A    
C29   C37   A    
C3    O13   A    
C13   C57   A    
C23   H23   S    
C15   C59   A    
C44   C48   A    
C31   C39   A    
O6    C2    A    
O11   V3    S    
C14   C58   A    
O12   V4    S    
C5    C63   S    
C27   C31   A    
C13   C53   A    
C28   C32   A    
C9    H5    S    
O10   C6    A    
O20   V2    S    
C60   H32   S    
C47   C51   A    
C17   C21   A    
C33   C61   A    
C20   C64   A    
C19   C23   A    
C32   C40   A    
C54   H10   S    
C53   H9    S    
C29   C33   A    
C24   C28   A    
C52   H28   S    
C42   C46   A    
C49   H25   S    
C41   C45   A    
C21   H21   S    
C17   C61   A    
C43   C47   A    
C24   H24   S    
O4    V2    S    
C20   C24   A    
H3    C47   S    
C14   C54   A    
C15   C55   A    
