data_str_m9_o2_o23_f0_sra.sym.56
_audit_creation_date              2012-12-11T16:31:30-0500
_audit_creation_method            fapswitch 2.2
_symmetry_space_group_name_H-M    P1
_symmetry_Int_Tables_number       1
_space_group_crystal_system       triclinic
_cell_length_a                    6.946525
_cell_length_b                    18.307439
_cell_length_c                    20.150659
_cell_angle_alpha                 68.31642
_cell_angle_beta                  90.683971
_cell_angle_gamma                 90.848924
_cell_volume                      2380.9674982

loop_
_atom_site_label
_atom_site_type_symbol
_atom_type_description
_atom_site_fract_x
_atom_site_fract_y
_atom_site_fract_z
_atom_type_partial_charge
O1    O     O_R   0.488990 0.443920 0.942160 -0.529646
O2    O     O_R   0.823840 0.406530 0.087600 -0.538258
O3    O     O_R   0.999650 0.556080 0.057840 -0.534682
C1    C     C_R   0.655061 0.383549 0.115065 0.693188
O4    O     O_R   0.818390 0.434590 0.944530 -0.540331
O5    O     O_R   0.994160 0.584350 0.913750 -0.537863
C2    C     C_R   0.648666 0.420424 0.924156 0.721096
O6    O     O_R   0.494480 0.415650 0.086250 -0.535241
O7    O     O_3   0.662600 0.549100 0.990070 -0.370682
V1    V     V_3+5 0.935320 0.490890 0.001840 1.443301
O8    O     O_R   0.324240 0.593470 0.912400 -0.539786
C3    C     C_R   0.155250 0.616420 0.884907 0.692005
O9    O     O_R   0.329690 0.565410 0.055470 -0.544328
C4    C     C_R   0.162215 0.579547 0.075946 0.720143
V2    V     V_3+5 0.435990 0.509110 0.998160 1.434045
O10   O     O_3   0.158840 0.450900 0.009930 -0.361046
C5    C     C_3   0.024563 0.662465 0.276046 -0.363507
C6    C     C_3   0.344292 0.726125 0.230242 -0.352940
C7    C     C_3   0.333764 0.773535 0.280277 -0.407231
H1    H     H_    0.091924 0.675528 0.377352 0.120666
H2    H     H_    0.094541 0.605044 0.304964 0.131945
H3    H     H_    0.429947 0.760069 0.182100 0.147414
H4    H     H_    0.420903 0.670039 0.258345 0.154782
H5    H     H_    0.402524 0.739429 0.332529 0.156515
H6    H     H_    0.416691 0.829554 0.256448 0.157987
C8    C     C_1   0.109710 0.874869 0.378289 -0.182173
C9    C     C_3   0.139593 0.708825 0.207489 0.268427
C10   C     C_3   0.015632 0.709879 0.326627 0.086204
C11   C     C_3   0.121955 0.790842 0.292489 0.281179
C12   C     C_3   0.032758 0.837503 0.217919 -0.333612
C13   C     C_3   0.037754 0.788512 0.169166 -0.329591
C14   C     C_1   0.114871 0.837109 0.339797 -0.040752
C15   C     C_1   0.149425 0.663080 0.159843 -0.087746
C16   C     C_1   0.156042 0.625322 0.121350 -0.195606
H7    H     H_    0.887974 0.777881 0.154357 0.138129
H8    H     H_    0.114303 0.822742 0.118798 0.148934
H9    H     H_    0.882293 0.854427 0.223110 0.142229
H10   H     H_    0.877395 0.648831 0.261043 0.149644
H11   H     H_    0.114952 0.893359 0.192061 0.145505
H12   H     H_    0.903499 0.530118 0.697126 0.109489
C17   C     C_R   0.272880 0.773371 0.873314 -0.139188
C18   C     C_R   0.329958 0.848065 0.869564 -0.115540
C19   C     C_R   0.318358 0.911721 0.805218 -0.117388
C20   C     C_R   0.249289 0.901187 0.744147 -0.143981
C21   C     C_R   0.192161 0.825852 0.745997 0.069349
C22   C     C_R   0.204464 0.760554 0.811984 0.069912
C23   C     C_R   0.119917 0.815297 0.683894 -0.184455
C24   C     C_R   0.060296 0.739353 0.687842 0.067709
C25   C     C_R   0.072581 0.674058 0.753834 0.068908
C26   C     C_R   0.144772 0.684618 0.815939 -0.184515
C27   C     C_R   0.992049 0.726520 0.626498 -0.133545
C28   C     C_R   0.935136 0.651812 0.630238 -0.116445
C29   C     C_R   0.946701 0.588160 0.694593 -0.126033
C30   C     C_R   0.015561 0.598715 0.755681 -0.141756
H13   H     H_    0.281733 0.726170 0.924967 0.103630
H14   H     H_    0.382215 0.856666 0.917011 0.117222
H15   H     H_    0.361706 0.969747 0.802682 0.118732
H16   H     H_    0.239835 0.952977 0.695830 0.110137
H17   H     H_    0.983249 0.773712 0.574839 0.106754
H18   H     H_    0.883045 0.643200 0.582773 0.119197
H19   H     H_    0.024977 0.546933 0.804008 0.110380
C31   C     C_R   0.744882 0.225722 0.124999 -0.124903
C32   C     C_R   0.788657 0.150506 0.127430 0.261647
C33   C     C_R   0.778736 0.086797 0.192516 -0.158571
C34   C     C_R   0.724103 0.097982 0.254360 -0.184723
C35   C     C_R   0.679642 0.173643 0.253164 0.065451
C36   C     C_R   0.690816 0.238864 0.187159 0.017083
C37   C     C_R   0.621302 0.184682 0.316076 -0.156754
C38   C     C_R   0.574927 0.261105 0.312895 0.070486
C39   C     C_R   0.586401 0.326374 0.246932 0.036490
C40   C     C_R   0.644449 0.315294 0.184007 -0.154344
C41   C     C_R   0.520721 0.274265 0.374964 -0.202067
C42   C     C_R   0.476979 0.349357 0.372137 -0.120341
C43   C     C_R   0.486948 0.413589 0.307798 0.259284
C44   C     C_R   0.542644 0.402178 0.245714 -0.185122
H20   H     H_    0.752470 0.273444 0.073577 0.118062
H21   H     H_    0.811998 0.028050 0.195458 0.109071
H22   H     H_    0.715909 0.046378 0.302927 0.120950
H23   H     H_    0.512831 0.226896 0.426566 0.114241
H24   H     H_    0.435881 0.357675 0.420534 0.129625
H25   H     H_    0.552396 0.453291 0.196805 0.106199
O11   O     O_R   0.770890 0.084490 0.414040 -0.536678
O12   O     O_R   0.445980 0.065450 0.555510 -0.543329
O13   O     O_R   0.270670 0.915620 0.586180 -0.536368
C45   C     C_R   0.615463 0.079510 0.576163 0.724153
O14   O     O_R   0.441480 0.093500 0.412450 -0.538013
O15   O     O_R   0.266140 0.943870 0.442100 -0.534400
C46   C     C_R   0.610363 0.116417 0.385012 0.693372
O16   O     O_R   0.775410 0.056240 0.558120 -0.533929
O17   O     O_3   0.602660 0.950990 0.510100 -0.366477
V3    V     V_3+5 0.329740 0.009100 0.498130 1.425509
O18   O     O_R   0.936120 0.934420 0.444240 -0.540421
C47   C     C_R   0.103714 0.920457 0.423811 0.721457
O19   O     O_R   0.940610 0.906370 0.587310 -0.538599
C48   C     C_R   0.109532 0.883492 0.614920 0.694350
V4    V     V_3+5 0.829110 0.990690 0.501470 1.430468
O20   O     O_3   0.106080 0.049010 0.489880 -0.367355
C49   C     C_3   0.831105 0.245188 0.710228 -0.334927
C50   C     C_3   0.474804 0.276846 0.681855 0.085596
C51   C     C_3   0.480326 0.325237 0.731467 -0.294366
H26   H     H_    0.867765 0.356930 0.725821 0.153263
H27   H     H_    0.882685 0.281817 0.655980 0.149970
H28   H     H_    0.329444 0.248790 0.686849 0.130917
H29   H     H_    0.518027 0.387870 0.700388 0.153551
H30   H     H_    0.334381 0.325316 0.753560 0.160320
C52   C     C_1   0.638193 0.374644 0.878896 -0.150419
C53   C     C_3   0.628161 0.209750 0.706882 0.200196
C54   C     C_3   0.829498 0.294788 0.758389 -0.402810
C55   C     C_3   0.628922 0.290773 0.792991 0.174793
C56   C     C_3   0.579004 0.202422 0.835246 0.146969
C57   C     C_3   0.575334 0.155549 0.784371 -0.396512
C58   C     C_1   0.632945 0.336769 0.840507 -0.010526
C59   C     C_1   0.628380 0.163141 0.659873 -0.082336
C60   C     C_1   0.625098 0.125155 0.621565 -0.193267
H31   H     H_    0.678933 0.106226 0.804470 0.148417
H32   H     H_    0.430813 0.128519 0.784423 0.174175
H33   H     H_    0.691987 0.177165 0.876778 0.135646
H34   H     H_    0.936743 0.196870 0.732308 0.162406
H35   H     H_    0.941901 0.272726 0.800696 0.195647
N1    N     N_3   0.816491 0.719908 0.344734 -0.680806
H36   H     H_    0.734382 0.741949 0.297944 0.236232
H37   H     H_    0.759097 0.664497 0.374764 0.230697
N2    N     N_3   0.442553 0.490384 0.306594 -0.684924
H38   H     H_    0.296393 0.490162 0.318419 0.221201
H39   H     H_    0.460924 0.532552 0.255228 0.217868
N3    N     N_3   0.843788 0.140114 0.063077 -0.635636
H40   H     H_    0.875311 0.081154 0.073733 0.229543
H41   H     H_    0.724724 0.153760 0.028582 0.244221
N4    N     N_3   0.496817 0.329537 0.606946 -0.679341
H42   H     H_    0.633420 0.355785 0.598579 0.240533
H43   H     H_    0.480601 0.297498 0.573689 0.229827
Br1   Br    Br    0.335947 0.188170 0.886750 -0.628511

loop_
_geom_bond_atom_site_label_1
_geom_bond_atom_site_label_2
_ccdc_geom_bond_type
C50   H28   S    
C8    C14   T    
N3    H40   S    
O15   V3    S    
C17   C18   A    
C35   C37   A    
O18   V4    S    
C1    O6    A    
N2    H38   S    
C52   C58   T    
C21   C22   A    
C9    C15   S    
C51   H30   S    
C31   C32   A    
C31   C36   A    
C10   C11   S    
C59   C60   T    
C41   H23   S    
O14   V3    S    
O5    C3    A    
C12   C13   S    
O14   C46   A    
N2    H39   S    
V2    O10   S    
C51   H29   S    
C49   C54   S    
C54   C55   S    
C6    C7    S    
C42   C43   A    
C56   C57   S    
C53   C59   S    
C28   H18   S    
C18   H14   S    
O8    V2    S    
C24   C27   A    
C17   H13   S    
C23   C24   A    
C20   H16   S    
C37   C38   A    
C17   C22   A    
C56   Br1   S    
C39   C40   A    
O1    V2    S    
O13   V3    S    
O7    V1    S    
C6    C9    S    
C8    C47   S    
C35   C36   A    
C51   C55   S    
C6    H3    S    
O9    C4    A    
C54   H35   S    
C31   H20   S    
O19   C48   A    
C56   H33   S    
N1    H37   S    
C49   H34   S    
C21   C23   A    
O11   V4    S    
C43   C44   A    
C50   N4    S    
C9    C13   S    
C6    H4    S    
C5    C9    S    
C10   N1    S    
C55   C58   S    
O4    C2    A    
C45   O16   A    
C44   H25   S    
H1    C10   S    
C29   C30   A    
C5    H2    S    
C49   C53   S    
C27   C28   A    
C12   H9    S    
O13   C48   A    
C38   C41   A    
O2    C1    A    
C19   C20   A    
O5    V1    S    
C11   C12   S    
C57   H31   S    
C50   C51   S    
V4    O20   S    
C15   C16   T    
N1    H36   S    
C2    C52   S    
V3    O20   S    
O19   V4    S    
C57   H32   S    
O3    C4    A    
C24   C25   A    
O12   C45   A    
C34   C35   A    
O6    V2    S    
O9    V2    S    
C37   C46   S    
C13   H7    S    
C27   H17   S    
C18   C19   A    
O2    V1    S    
O12   V3    S    
C28   C29   A    
N4    H42   S    
C45   C60   S    
N3    H41   S    
C34   H22   S    
O1    C2    A    
C5    C10   S    
C53   C57   S    
C20   C21   A    
C41   C42   A    
C4    C16   S    
C3    C26   S    
O8    C3    A    
H12   C29   S    
O17   V4    S    
C30   H19   S    
C11   C14   S    
C50   C53   S    
C22   C26   A    
C33   C34   A    
O16   V4    S    
C7    H5    S    
O7    V2    S    
O4    V1    S    
O3    V1    S    
C49   H27   S    
C55   C56   S    
O17   V3    S    
H26   C54   S    
O11   C46   A    
O15   C47   A    
O18   C47   A    
C42   H24   S    
C12   H11   S    
C43   N2    S    
C36   C40   A    
C5    H10   S    
C38   C39   A    
C7    H6    S    
C32   N3    S    
C19   H15   S    
C32   C33   A    
C25   C26   A    
C39   C44   A    
C33   H21   S    
C23   C48   S    
C13   H8    S    
V1    O10   S    
C1    C40   S    
C25   C30   A    
N4    H43   S    
C7    C11   S    
