data_str_m2_o5_o28_f0_pcu.sym.11
_audit_creation_date              2012-10-26T19:00:22-0400
_audit_creation_method            fapswitch 2.2
_symmetry_space_group_name_H-M    P1
_symmetry_Int_Tables_number       1
_space_group_crystal_system       triclinic
_cell_length_a                    23.624789
_cell_length_b                    9.095178
_cell_length_c                    7.769653
_cell_angle_alpha                 89.932505
_cell_angle_beta                  90.000147
_cell_angle_gamma                 90.000019
_cell_volume                      1669.47708843

loop_
_atom_site_label
_atom_site_type_symbol
_atom_type_description
_atom_site_fract_x
_atom_site_fract_y
_atom_site_fract_z
_atom_type_partial_charge
C1    C     C_R   0.499987 0.219959 0.500062 0.551336
C2    C     C_R   0.791896 0.500001 0.500000 0.203788
C3    C     C_R   0.390617 0.500000 0.500000 0.544844
C4    C     C_R   0.609479 0.500000 0.500000 0.545389
C5    C     C_R   0.297432 0.579406 0.627762 -0.043945
C6    C     C_R   0.702972 0.430415 0.635559 -0.043565
C7    C     C_R   0.297432 0.420596 0.372236 -0.043946
C8    C     C_R   0.702972 0.569588 0.364442 -0.043565
C9    C     C_R   0.327898 0.500000 0.499999 0.032874
C10   C     C_R   0.672367 0.500001 0.500000 0.031449
C11   C     C_R   0.881387 0.631163 0.490324 0.400563
C12   C     C_R   0.499987 0.780041 0.499938 0.551336
C13   C     C_R   0.119369 0.369521 0.518590 0.401412
C14   C     C_R   0.881387 0.368840 0.509674 0.400563
C15   C     C_R   0.119369 0.630482 0.481405 0.401412
C16   C     C_R   0.940731 0.366462 0.513415 0.032649
C17   C     C_R   0.060022 0.633314 0.482992 0.032468
C18   C     C_R   0.940731 0.633541 0.486583 0.032649
C19   C     C_R   0.060022 0.366689 0.517004 0.032468
C20   C     C_R   0.970514 0.500001 0.499998 -0.028473
C21   C     C_R   0.030240 0.500001 0.499998 -0.028493
C22   C     C_R   0.970858 0.234020 0.529722 -0.123545
C23   C     C_1   0.499977 0.065355 0.500085 -0.052615
C24   C     C_R   0.029886 0.765790 0.467423 -0.123868
C25   C     C_R   0.970858 0.765983 0.470274 -0.123545
C26   C     C_R   0.029885 0.234213 0.532573 -0.123868
C27   C     C_3   0.326577 0.670503 0.763861 -0.369318
C28   C     C_3   0.674157 0.347920 0.779862 -0.368859
C29   C     C_3   0.326577 0.329497 0.236140 -0.369319
C30   C     C_3   0.674156 0.652084 0.220140 -0.368859
C31   C     C_1   0.499977 0.934645 0.499915 -0.052615
C32   C     C_R   0.238204 0.577093 0.626436 -0.040412
C33   C     C_R   0.762196 0.434027 0.634828 -0.041163
C34   C     C_R   0.238204 0.422909 0.373560 -0.040412
C35   C     C_R   0.762195 0.565976 0.365173 -0.041164
C36   C     C_R   0.208620 0.500001 0.499998 0.205722
Cu1   Cu    Cu3+1 0.500000 0.500000 0.669080 0.996995
Cu2   Cu    Cu3+1 0.500000 0.500000 0.330920 0.996994
H1    H     H_    0.948926 0.130045 0.541656 0.163770
H2    H     H_    0.348822 0.597717 0.856516 0.159107
H3    H     H_    0.357183 0.747224 0.702869 0.150082
H4    H     H_    0.704982 0.287361 0.861417 0.130414
H5    H     H_    0.651329 0.425847 0.864782 0.155512
H6    H     H_    0.644178 0.265823 0.726245 0.153737
H7    H     H_    0.295986 0.262213 0.161457 0.132071
H8    H     H_    0.348823 0.402282 0.143485 0.159107
H9    H     H_    0.357182 0.252776 0.297133 0.150081
H10   H     H_    0.704981 0.712646 0.138586 0.130414
H11   H     H_    0.651328 0.574157 0.135218 0.155512
H12   H     H_    0.051795 0.869640 0.453466 0.163260
H13   H     H_    0.644177 0.734179 0.273758 0.153736
H14   H     H_    0.948926 0.869957 0.458341 0.163769
H15   H     H_    0.051795 0.130363 0.546529 0.163260
H16   H     H_    0.214549 0.635830 0.724107 0.145428
H17   H     H_    0.785762 0.384210 0.739393 0.147157
H18   H     H_    0.214549 0.364172 0.275889 0.145428
H19   H     H_    0.785761 0.615793 0.260607 0.147157
H20   H     H_    0.295987 0.737788 0.838543 0.132071
N1    N     N_R   0.852836 0.500002 0.499999 -0.401306
N2    N     N_R   0.147805 0.500001 0.499997 -0.401987
N3    N     N_1   0.500000 0.500000 0.076820 -0.089701
N4    N     N_1   0.500000 0.500000 0.923180 -0.089701
O1    O     O_R   0.500000 0.288390 0.642760 -0.494869
O2    O     O_2   0.148450 0.243089 0.540005 -0.483259
O3    O     O_2   0.852468 0.240907 0.513811 -0.482850
O4    O     O_2   0.148450 0.756914 0.459989 -0.483258
O5    O     O_R   0.500000 0.711610 0.357240 -0.494869
O6    O     O_R   0.500000 0.711610 0.642760 -0.495111
O7    O     O_R   0.500000 0.288390 0.357240 -0.495111
O8    O     O_R   0.417880 0.500000 0.642820 -0.507147
O9    O     O_R   0.582120 0.500000 0.357180 -0.507634
O10   O     O_R   0.582120 0.500000 0.642820 -0.507634
O11   O     O_R   0.417880 0.500000 0.357180 -0.507148
O12   O     O_2   0.852468 0.759096 0.486188 -0.482850

loop_
_geom_bond_atom_site_label_1
_geom_bond_atom_site_label_2
_ccdc_geom_bond_type
C2    C35   A    
C33   H17   S    
C30   H13   S    
C11   C18   A    
C34   H18   S    
C7    C29   S    
C15   N2    A    
Cu1   N4    S    
C13   N2    A    
C14   N1    A    
C12   O6    A    
C29   H9    S    
C32   C36   A    
C30   H10   S    
C19   C21   A    
Cu1   O6    S    
C7    C9    A    
C19   C26   A    
C5    C27   S    
C6    C28   S    
C18   C20   A    
Cu2   N3    S    
Cu2   O7    S    
Cu1   O8    S    
C18   C25   A    
C11   N1    A    
C1    O1    A    
C32   H16   S    
Cu1   O1    S    
C24   H12   S    
C12   O5    A    
C17   C24   A    
C13   C19   A    
C3    O8    A    
C24   C25   A    
C2    N1    S    
C15   O4    S    
C11   O12   S    
C17   C21   A    
C29   H7    S    
C8    C35   A    
C23   C31   T    
C5    C9    A    
Cu1   Cu2   S    
C3    C9    S    
C27   H3    S    
C27   H2    S    
C16   C20   A    
C20   C21   A    
C2    C33   A    
C30   H11   S    
C1    C23   S    
C12   C31   S    
C7    C34   A    
C14   C16   A    
C4    C10   S    
C26   H15   S    
C4    O10   A    
C15   C17   A    
Cu2   O9    S    
C16   C22   A    
C36   N2    S    
C27   H20   S    
C6    C10   A    
C28   H5    S    
C6    C33   A    
C29   H8    S    
C35   H19   S    
C8    C30   S    
C5    C32   A    
C25   H14   S    
C13   O2    S    
C22   H1    S    
C28   H4    S    
C14   O3    S    
C28   H6    S    
C34   C36   A    
N3    N4    T    
C3    O11   A    
C1    O7    A    
Cu2   O5    S    
C8    C10   A    
C22   C26   A    
Cu1   O10   S    
C4    O9    A    
Cu2   O11   S    
