data_str_m3_o14_o16_f0_pcu.sym.236
_audit_creation_date              2012-12-10T17:42:41-0500
_audit_creation_method            fapswitch 2.2
_symmetry_space_group_name_H-M    P1
_symmetry_Int_Tables_number       1
_space_group_crystal_system       triclinic
_cell_length_a                    10.050533
_cell_length_b                    10.626283
_cell_length_c                    13.090626
_cell_angle_alpha                 94.832304
_cell_angle_beta                  68.674207
_cell_angle_gamma                 92.963995
_cell_volume                      1297.38307874

loop_
_atom_site_label
_atom_site_type_symbol
_atom_type_description
_atom_site_fract_x
_atom_site_fract_y
_atom_site_fract_z
_atom_type_partial_charge
C1    C     C_R   0.506582 0.739021 0.492069 0.967876
C2    C     C_R   0.456031 0.462817 0.969944 -0.024216
C3    C     C_R   0.444471 0.532318 0.885379 -0.025089
C4    C     C_R   0.547629 0.513305 0.025646 0.089774
C5    C     C_R   0.632954 0.623230 0.990093 -0.003600
C6    C     C_R   0.616104 0.690752 0.909525 -0.263003
C7    C     C_R   0.516552 0.650702 0.861681 0.466267
C8    C     C_R   0.546481 0.466512 0.122651 -0.172690
C9    C     C_R   0.732873 0.616833 0.132629 0.437812
C10   C     C_R   0.366808 0.478929 0.821253 -0.002323
C11   C     C_R   0.358170 0.868801 0.372500 0.361051
C12   C     C_R   0.419174 0.498801 0.704209 0.970227
C13   C     C_R   0.230746 0.915063 0.368192 0.276532
C14   C     C_R   0.169997 0.022308 0.435155 -0.221214
C15   C     C_R   0.238428 0.089481 0.499033 0.428436
C16   C     C_R   0.375254 0.051634 0.491758 -0.131886
C17   C     C_R   0.417955 0.930174 0.446946 -0.057141
C18   C     C_R   0.515405 0.872767 0.482783 0.000236
C19   C     C_R   0.593497 0.944011 0.536850 -0.139268
C20   C     C_R   0.575728 0.071966 0.555531 -0.107414
C21   C     C_R   0.472756 0.127644 0.526955 -0.107448
C22   C     C_R   0.823822 0.702781 0.604494 -0.086361
C23   C     C_R   0.491132 0.260954 0.510074 0.875402
C24   C     C_R   0.887469 0.815756 0.627306 -0.200111
C25   C     C_R   0.027776 0.816250 0.622165 -0.213843
C26   C     C_R   0.089118 0.699934 0.617367 0.483087
C27   C     C_R   0.049159 0.596661 0.557487 0.022831
C28   C     C_R   0.907463 0.597510 0.554608 0.057579
C29   C     C_R   0.953864 0.408557 0.440514 0.396886
C30   C     C_R   0.094413 0.408277 0.443337 0.469977
C31   C     C_R   0.581140 0.501961 0.295769 0.948276
C32   C     C_R   0.726950 0.671143 0.041622 -0.087216
C33   C     C_R   0.632697 0.519936 0.178508 -0.206454
C34   C     C_R   0.275651 0.374843 0.855226 -0.300452
C35   C     C_R   0.280705 0.308883 0.940352 -0.211674
C36   C     C_R   0.379364 0.344329 0.991474 0.492610
H1    H     H_    0.066186 0.051919 0.441134 0.264410
H2    H     H_    0.643204 0.127701 0.591376 0.181041
H3    H     H_    0.711122 0.699260 0.626779 0.210489
H4    H     H_    0.825286 0.900093 0.658164 0.157956
H5    H     H_    0.067814 0.900460 0.655232 0.181450
H6    H     H_    0.675911 0.778531 0.887318 0.169122
H7    H     H_    0.790778 0.755721 0.015248 0.220740
H8    H     H_    0.464569 0.400643 0.165812 0.233644
H9    H     H_    0.214747 0.334151 0.806721 0.192376
H10   H     H_    0.218376 0.221806 0.958271 0.176050
H11   H     H_    0.666778 0.900874 0.565643 0.150210
N1    N     N_R   0.856860 0.501200 0.500990 -0.201157
N2    N     N_R   0.142450 0.501280 0.501020 -0.175642
O1    O     O_R   0.385310 0.683220 0.500000 -0.595587
O2    O     O_R   0.614640 0.683250 0.500010 -0.638954
O3    O     O_R   0.328400 0.499950 0.653610 -0.535485
O4    O     O_R   0.557730 0.499970 0.653620 -0.650135
O5    O     O_R   0.385360 0.316750 0.499990 -0.621028
O6    O     O_R   0.614690 0.316780 0.500000 -0.547833
O7    O     O_R   0.442270 0.500030 0.346380 -0.619892
O8    O     O_R   0.671600 0.500050 0.346390 -0.571008
Zn1   Zn    Zn3+2 0.346880 0.499980 0.499990 1.051705
Zn2   Zn    Zn3+2 0.653120 0.500020 0.500010 1.028608
O9    O     O_3   0.824068 0.671770 0.181481 -0.692497
H12   H     H_    0.856161 0.604864 0.214744 0.357802
O10   O     O_3   0.429719 0.768337 0.303966 -0.736220
H13   H     H_    0.399521 0.755489 0.239877 0.386898
S1    S     S_3+6 0.135983 0.832554 0.291677 0.033191
O11   O     O_2   0.983518 0.873931 0.332683 -0.245355
O12   O     O_2   0.207037 0.859476 0.172804 -0.276967
O13   O     O_3   0.138683 0.676408 0.303598 -0.585119
H14   H     H_    0.088992 0.636473 0.255858 0.385745
O14   O     O_3   0.159991 0.178928 0.577591 -0.707793
H15   H     H_    0.200934 0.191089 0.636251 0.331110
S2    S     S_3+6 0.917023 0.282100 0.353496 0.085103
O15   O     O_2   0.866482 0.168909 0.419810 -0.311329
O16   O     O_2   0.809497 0.309574 0.304772 -0.272881
O17   O     O_3   0.067048 0.243693 0.246231 -0.509890
H16   H     H_    0.050184 0.155825 0.221056 0.402507
S3    S     S_3+6 0.095605 0.676897 0.747337 0.031717
O18   O     O_2   0.238286 0.721347 0.750208 -0.259033
O19   O     O_2   0.983968 0.755913 0.833705 -0.347416
O20   O     O_3   0.060854 0.524656 0.776247 -0.560510
H17   H     H_    0.028353 0.525720 0.857398 0.382866
O21   O     O_3   0.180934 0.309976 0.387114 -0.682005
H18   H     H_    0.280634 0.336260 0.371530 0.380201
O22   O     O_3   0.410562 0.258569 0.052804 -0.769524
H19   H     H_    0.348328 0.181964 0.058056 0.362937
O23   O     O_3   0.484954 0.727493 0.793788 -0.748926
H20   H     H_    0.538454 0.809070 0.790683 0.320852

loop_
_geom_bond_atom_site_label_1
_geom_bond_atom_site_label_2
_ccdc_geom_bond_type
C16   C21   A    
O6    Zn2   S    
C19   C20   A    
S3    O20   S    
C4    C8    A    
C11   O10   S    
O21   H18   S    
O4    Zn2   S    
O23   H20   S    
C1    C18   S    
C29   C30   A    
N1    Zn2   S    
S3    O19   D    
C18   C19   A    
C3    C7    A    
C5    C6    A    
C19   H11   S    
O8    Zn2   S    
C36   O22   S    
C15   C16   A    
C34   C35   A    
C9    C32   A    
C28   N1    A    
C35   C36   A    
C16   C17   A    
C26   S3    S    
C31   C33   S    
C31   O7    A    
C1    O1    A    
C12   O4    A    
C5    C32   A    
C22   C28   A    
C13   C14   A    
C9    C33   A    
C10   C12   S    
C12   O3    A    
C15   O14   S    
O17   H16   S    
C29   N1    A    
O13   H14   S    
O1    Zn1   S    
S1    O13   S    
S3    O18   D    
C25   H5    S    
S2    O16   D    
C25   C26   A    
N2    Zn1   S    
O9    H12   S    
S1    O12   D    
C2    C4    A    
O10   H13   S    
C20   H2    S    
O22   H19   S    
C17   C18   A    
C26   C27   A    
C10   C34   A    
C34   H9    S    
C24   C25   A    
C1    O2    A    
O3    Zn1   S    
C30   N2    A    
C21   C23   S    
C22   C24   A    
O2    Zn2   S    
C23   O5    A    
O5    Zn1   S    
C2    C36   A    
C11   C17   A    
C8    H8    S    
C4    C5    A    
S2    O17   S    
C23   O6    A    
C6    C7    A    
C9    O9    S    
S1    O11   D    
C31   O8    A    
C30   O21   S    
C2    C3    A    
S2    O15   D    
C3    C10   A    
C14   H1    S    
C11   C13   A    
C7    O23   S    
C13   S1    S    
C22   H3    S    
C24   H4    S    
C32   H7    S    
O7    Zn1   S    
C8    C33   A    
O14   H15   S    
O20   H17   S    
C20   C21   A    
C6    H6    S    
C27   C28   A    
C14   C15   A    
C35   H10   S    
C27   N2    A    
C29   S2    S    
