data_str_m9_o6_o18_f0_sra.sym.191
_audit_creation_date              2013-03-05T16:11:14-0500
_audit_creation_method            fapswitch 2.2
_symmetry_space_group_name_H-M    P1
_symmetry_Int_Tables_number       1
_space_group_crystal_system       triclinic
_cell_length_a                    6.948433
_cell_length_b                    20.559106
_cell_length_c                    24.429377
_cell_angle_alpha                 90.210249
_cell_angle_beta                  90.429366
_cell_angle_gamma                 89.397732
_cell_volume                      3489.51044836

loop_
_atom_site_label
_atom_site_type_symbol
_atom_site_description
_atom_site_fract_x
_atom_site_fract_y
_atom_site_fract_z
_atom_type_partial_charge
O1    O     O_R   0.507280 0.423750 0.460310 -0.596326
O2    O     O_R   0.171030 0.555650 0.437630 -0.586530
O3    O     O_R   0.004080 0.576250 0.539690 -0.591213
C1    C     C_R   0.339040 0.575598 0.421748 0.985977
O4    O     O_R   0.177330 0.422980 0.453960 -0.579941
O5    O     O_R   0.010420 0.442640 0.556140 -0.590491
C2    C     C_R   0.346771 0.398978 0.443178 0.962669
O6    O     O_R   0.500930 0.557360 0.443860 -0.587523
O7    O     O_3   0.340310 0.506600 0.533500 -0.273602
V1    V     V_3+5 0.064140 0.498780 0.493780 1.186246
O8    O     O_R   0.680890 0.444350 0.562370 -0.594707
C3    C     C_R   0.850611 0.424306 0.578062 0.970900
O9    O     O_R   0.674590 0.577020 0.546040 -0.592724
C4    C     C_R   0.843096 0.601194 0.556268 0.929712
V2    V     V_3+5 0.564550 0.501220 0.506220 1.172956
O10   O     O_3   0.838250 0.493400 0.466500 -0.260978
C5    C     C_R   0.972459 0.837630 0.911556 -0.446416
C6    C     C_R   0.855438 0.661902 0.588041 -0.103523
C7    C     C_R   0.952574 0.720168 0.908684 -0.147744
C8    C     C_R   0.988434 0.777111 0.938249 0.299190
C9    C     C_R   0.930851 0.839878 0.854647 0.276363
C10   C     C_R   0.923512 0.780843 0.823239 -0.044818
C11   C     C_R   0.914007 0.721187 0.852127 -0.091397
C12   C     C_R   0.926610 0.778709 0.764410 0.090266
C13   C     C_R   0.884474 0.719521 0.735854 0.011797
C14   C     C_R   0.851486 0.663312 0.767017 -0.303069
C15   C     C_R   0.870270 0.663088 0.823912 0.379915
C16   C     C_R   0.987391 0.832364 0.733424 -0.078645
C17   C     C_R   0.984752 0.831290 0.676679 -0.248213
C18   C     C_R   0.931919 0.775409 0.648165 0.167976
C19   C     C_R   0.883635 0.718056 0.676993 0.138090
C20   C     C_R   0.936624 0.775797 0.590751 -0.162517
C21   C     C_R   0.900478 0.719373 0.561032 -0.166889
C22   C     C_R   0.843919 0.661274 0.645425 -0.234533
H1    H     H_    0.810077 0.615308 0.663814 0.109041
H2    H     H_    0.911823 0.720141 0.516820 0.108251
H3    H     H_    0.030551 0.874203 0.654856 0.146246
H4    H     H_    0.961962 0.674414 0.930285 0.209890
H5    H     H_    0.814128 0.617697 0.748261 0.167806
H6    H     H_    0.047597 0.875107 0.752215 0.180402
H7    H     H_    0.974155 0.819524 0.568774 0.119830
H8    H     H_    0.646267 0.176758 0.770155 0.140550
C23   C     C_R   0.748947 0.253631 0.718854 -0.236699
H9    H     H_    0.618596 0.254623 0.694237 0.135466
C24   C     C_R   0.899476 0.296398 0.707304 0.135821
C25   C     C_R   0.069162 0.293945 0.739924 0.219322
C26   C     C_R   0.083672 0.248463 0.783046 -0.242017
H10   H     H_    0.212991 0.246323 0.808112 0.131179
C27   C     C_R   0.932298 0.206033 0.794326 0.151088
C28   C     C_R   0.764843 0.209050 0.762040 -0.157371
C29   C     C_1   0.878319 0.341578 0.661637 -0.012528
C30   C     C_1   0.948586 0.159680 0.839124 -0.000167
C31   C     C_1   0.961188 0.121214 0.876703 -0.239062
C32   C     C_1   0.863582 0.379343 0.623628 -0.292742
C33   C     C_R   0.587379 0.785695 0.245386 -0.246526
H11   H     H_    0.719242 0.812929 0.241366 0.128943
C34   C     C_R   0.439119 0.795129 0.206788 0.139110
C35   C     C_R   0.268687 0.759808 0.212219 -0.134572
H12   H     H_    0.152410 0.766274 0.182881 0.159640
C36   C     C_R   0.246532 0.715676 0.255435 -0.214645
H13   H     H_    0.113876 0.688733 0.258348 0.149006
C37   C     C_R   0.393713 0.706098 0.294415 0.120501
C38   C     C_R   0.566658 0.741715 0.289350 0.219901
C39   C     C_1   0.461131 0.841041 0.161757 0.031832
C40   C     C_1   0.366242 0.659364 0.338735 0.014315
C41   C     C_1   0.349195 0.620922 0.376203 -0.272214
C42   C     C_1   0.475664 0.879194 0.123962 -0.233433
C43   C     C_R   0.464410 0.163712 0.087204 -0.174945
C44   C     C_R   0.357623 0.337131 0.411919 -0.194110
C45   C     C_R   0.411371 0.281687 0.088581 0.179783
C46   C     C_R   0.451837 0.223358 0.058826 0.154546
C47   C     C_R   0.449618 0.162632 0.144380 -0.277402
C48   C     C_R   0.413128 0.219866 0.175499 0.095247
C49   C     C_R   0.382903 0.278920 0.146553 0.025654
C50   C     C_R   0.401672 0.219999 0.234434 0.072398
C51   C     C_R   0.350187 0.278528 0.263436 -0.092030
C52   C     C_R   0.284407 0.332428 0.232149 0.328201
C53   C     C_R   0.313325 0.333377 0.175689 -0.299188
C54   C     C_R   0.439708 0.163354 0.265450 -0.163157
C55   C     C_R   0.428873 0.163613 0.322172 -0.212121
C56   C     C_R   0.393790 0.221087 0.350989 0.154733
C57   C     C_R   0.362398 0.280068 0.322461 0.142570
C58   C     C_R   0.396224 0.219859 0.408437 -0.245132
C59   C     C_R   0.375555 0.277044 0.439296 0.226229
C60   C     C_R   0.356042 0.338312 0.354218 -0.169444
H14   H     H_    0.264750 0.376473 0.154449 0.195391
H15   H     H_    0.358207 0.385505 0.335099 0.154386
H16   H     H_    0.456315 0.118512 0.343887 0.128005
H17   H     H_    0.460168 0.115373 0.163074 0.110867
H18   H     H_    0.479241 0.117439 0.247265 0.121322
H19   H     H_    0.415999 0.173877 0.429481 0.124675
O11   O     O_R   0.323320 0.942780 0.056240 -0.567323
O12   O     O_R   0.647300 0.077050 0.046060 -0.599864
O13   O     O_R   0.813840 0.057330 0.943840 -0.586477
C61   C     C_R   0.477791 0.101060 0.056963 0.931897
O14   O     O_R   0.653250 0.944380 0.062400 -0.597368
O15   O     O_R   0.819830 0.923720 0.960300 -0.588007
C62   C     C_R   0.485269 0.924421 0.078290 1.000569
O16   O     O_R   0.317330 0.076390 0.039790 -0.610520
O17   O     O_3   0.483830 0.993470 0.966560 -0.254080
V3    V     V_3+5 0.760140 0.001210 0.006210 1.208722
O18   O     O_R   0.149290 0.922840 0.953850 -0.557989
C63   C     C_R   0.981027 0.898351 0.944070 1.154932
O19   O     O_R   0.143340 0.055500 0.937510 -0.594732
C64   C     C_R   0.973676 0.075786 0.921986 1.028921
V4    V     V_3+5 0.259690 0.998600 0.993650 1.234044
O20   O     O_3   0.986130 0.006520 0.033440 -0.292583
N1    N     N_R   0.837183 0.603280 0.852544 0.233985
O21   O     O_R   0.903655 0.548611 0.832961 -0.395792
O22   O     O_R   0.713835 0.601819 0.892338 -0.367728
C65   C     C_3   0.236277 0.338718 0.729437 -0.458383
C66   C     C_3   0.195377 0.407177 0.751133 -0.722833
H20   H     H_    0.068654 0.429236 0.730094 0.250687
H21   H     H_    0.168005 0.405680 0.795856 0.268281
H22   H     H_    0.321986 0.438398 0.743805 0.246473
H23   H     H_    0.368942 0.320022 0.749951 0.203198
H24   H     H_    0.267269 0.340527 0.684903 0.200088
C67   C     C_3   0.731255 0.733266 0.329728 -0.374935
C68   C     C_3   0.690559 0.768773 0.383471 -0.894205
H25   H     H_    0.667404 0.821521 0.375827 0.259168
H26   H     H_    0.561459 0.748845 0.403648 0.258114
H27   H     H_    0.815584 0.762695 0.411639 0.247479
H28   H     H_    0.757986 0.680737 0.337654 0.203995
H29   H     H_    0.866361 0.752929 0.312579 0.189346
C69   C     C_3   0.378291 0.272610 0.501199 -0.401133
C70   C     C_3   0.174349 0.272301 0.523963 -0.865277
H30   H     H_    0.094738 0.317187 0.512139 0.263277
H31   H     H_    0.095173 0.229384 0.508197 0.256519
H32   H     H_    0.180520 0.269724 0.569348 0.246079
H33   H     H_    0.453498 0.227309 0.514561 0.192566
H34   H     H_    0.460146 0.313518 0.519470 0.189264
C71   C     C_3   0.400664 0.346732 0.058649 -0.379341
C72   C     C_3   0.195851 0.361886 0.038658 -0.840395
H35   H     H_    0.144631 0.323753 0.009955 0.242257
H36   H     H_    0.094345 0.364810 0.073435 0.259682
H37   H     H_    0.193451 0.409293 0.017033 0.277114
H38   H     H_    0.453675 0.386933 0.084954 0.207477
H39   H     H_    0.500485 0.347953 0.023550 0.210891
C73   C     C_3   0.481826 0.223630 0.996912 -0.384285
C74   C     C_3   0.695151 0.229078 0.983131 -0.880314
H40   H     H_    0.755949 0.274454 0.000539 0.254837
H41   H     H_    0.777332 0.186907 0.999764 0.260422
H42   H     H_    0.712844 0.229854 0.938003 0.251416
H43   H     H_    0.424127 0.178928 0.977526 0.184605
H44   H     H_    0.400321 0.263217 0.976384 0.202828
N2    N     N_R   0.163509 0.382541 0.255098 0.225415
O23   O     O_R   0.179304 0.442511 0.238985 -0.391427
O24   O     O_R   0.018251 0.366847 0.285514 -0.398775
N3    N     N_R   0.029446 0.772569 0.996048 0.232686
O25   O     O_R   0.154113 0.810820 0.019177 -0.409996
O26   O     O_R   0.958010 0.725444 0.024668 -0.362363
N4    N     N_R   0.868348 0.900721 0.831301 0.216624
O27   O     O_R   0.971965 0.952710 0.836968 -0.446965
O28   O     O_R   0.705350 0.904384 0.804847 -0.383673

loop_
_geom_bond_atom_site_label_1
_geom_bond_atom_site_label_2
_geom_bond_distance
_ccdc_geom_bond_type
V3    O20   1.705172 S    
C1    C41   1.456503 S    
C33   H11   1.084059 S    
O13   C64   1.296808 A    
C13   C19   1.438117 A    
C70   H30   1.108991 S    
C48   C49   1.420183 A    
C4    C6    1.470281 S    
O2    C1    1.303679 A    
C7    C8    1.396961 A    
C74   H42   1.110379 S    
C1    O6    1.296628 A    
C21   H2    1.083711 S    
O19   V4    1.969325 S    
C56   C57   1.414936 A    
O11   C62   1.297068 A    
C26   C27   1.403070 A    
C52   C53   1.395573 A    
N1    O21   1.301501 A    
C14   C15   1.395065 A    
C37   C38   1.420209 A    
C16   C17   1.386327 A    
C74   H41   1.109761 S    
N3    O26   1.301613 A    
O5    C3    1.296578 A    
C18   C19   1.420151 A    
C61   O16   1.296030 A    
C14   H5    1.075630 S    
V4    O20   2.145811 S    
C24   C29   1.459891 S    
C35   C36   1.404973 A    
V2    O10   2.145755 S    
C5    C8    1.409823 A    
C8    N3    1.441533 S    
C36   C37   1.404988 A    
C22   H1    1.076814 S    
C9    N4    1.438283 S    
C67   C68   1.526669 S    
O19   C64   1.300653 A    
C54   H18   1.075743 S    
C42   C62   1.457371 S    
O8    V2    1.969103 S    
C69   H33   1.111973 S    
C65   C66   1.526747 S    
O13   V3    1.955107 S    
C71   C72   1.530443 S    
C33   C38   1.415607 A    
C45   C49   1.432838 A    
C72   H37   1.110221 S    
C20   H7    1.083989 S    
C12   C13   1.432241 A    
C45   C46   1.426547 A    
O1    V2    1.986578 S    
C11   C15   1.411630 A    
O7    V1    2.151092 S    
C53   H14   1.078248 S    
C60   H15   1.078650 S    
O12   C61   1.301303 A    
O14   V3    1.961195 S    
C48   C50   1.442516 A    
C66   H21   1.111004 S    
C66   H20   1.109826 S    
C56   C58   1.403715 A    
N2    O24   1.301833 A    
C68   H26   1.109661 S    
C73   C74   1.527834 S    
C43   C61   1.484939 S    
O9    C4    1.298951 A    
C39   C42   1.219176 T    
C44   C59   1.410839 A    
C74   H40   1.110083 S    
C51   C57   1.444056 A    
O4    C2    1.300201 A    
C38   C67   1.513739 S    
C55   C56   1.393426 A    
C46   C73   1.528408 S    
C70   H32   1.110660 S    
C35   H12   1.083446 S    
C24   C25   1.418691 A    
C5    C9    1.418692 A    
O14   C62   1.303629 A    
C36   H13   1.083295 S    
C7    C11   1.405608 A    
C50   C51   1.437491 A    
C2    C44   1.482335 S    
C17   C18   1.392482 A    
C7    H4    1.081396 S    
C23   C24   1.404370 A    
C73   H43   1.109660 S    
C69   H34   1.110656 S    
C58   C59   1.400972 A    
C71   H39   1.107421 S    
C43   C47   1.401617 A    
C27   C30   1.456781 S    
C25   C65   1.513258 S    
C45   C71   1.527345 S    
C5    C63   1.478652 S    
C19   C22   1.424998 A    
C67   H29   1.111463 S    
C51   C52   1.418239 A    
C6    C22   1.404864 A    
O15   C63   1.294849 A    
O3    C4    1.292852 A    
H8    C28   1.083417 S    
O11   V4    1.960233 S    
N4    O28   1.301401 A    
C27   C28   1.401733 A    
O6    V2    1.959706 S    
O9    V2    1.990539 S    
C23   H9    1.083492 S    
C69   C70   1.526254 S    
C10   C12   1.437980 A    
O12   V3    1.992031 S    
O2    V1    1.961005 S    
C44   C60   1.409859 A    
C30   C31   1.215937 T    
C34   C39   1.462078 S    
N2    O23   1.301593 A    
C68   H27   1.110503 S    
C59   C69   1.515281 S    
O16   V4    1.995529 S    
C25   C26   1.413470 A    
C73   H44   1.106177 S    
C70   H31   1.110875 S    
C37   C40   1.465060 S    
O1    C2    1.296834 A    
C12   C16   1.410288 A    
C47   C48   1.420149 A    
C26   H10   1.084185 S    
O5    V1    1.955186 S    
C68   H25   1.110917 S    
C23   C28   1.403057 A    
C57   C60   1.424880 A    
C58   H19   1.084724 S    
O17   V4    1.698862 S    
C65   H24   1.111465 S    
C65   H23   1.111602 S    
C20   C21   1.390348 A    
C29   C32   1.215604 T    
C33   C34   1.403769 A    
C13   C14   1.407884 A    
O4    V1    1.991980 S    
C55   H16   1.084407 S    
O3    V1    1.987136 S    
V1    O10   1.705106 S    
N3    O25   1.300682 A    
C18   C20   1.403258 A    
C47   H17   1.076662 S    
C34   C35   1.403023 A    
C72   H35   1.109539 S    
C15   N1    1.438296 S    
C43   C46   1.412457 A    
O17   V3    2.151063 S    
N1    O22   1.301461 A    
O18   V4    1.990628 S    
C67   H28   1.111322 S    
O7    V2    1.701616 S    
O18   C63   1.298010 A    
C6    C21   1.394963 A    
C3    C32   1.451215 S    
C54   C55   1.388268 A    
C31   C64   1.451882 S    
N4    O27   1.301369 A    
C40   C41   1.218768 T    
C49   C53   1.407747 A    
C17   H3    1.084327 S    
C72   H36   1.109320 S    
C16   H6    1.076968 S    
C10   C11   1.419640 A    
C71   H38   1.109357 S    
C9    C10   1.434679 A    
C50   C54   1.413212 A    
C52   N2    1.437405 S    
C66   H22   1.110430 S    
O15   V3    1.986938 S    
O8    C3    1.300645 A    
