data_str_m3_o10_o14_f0_pcu.sym.14
_audit_creation_date              2012-12-10T16:50:04-0500
_audit_creation_method            fapswitch 2.2
_symmetry_space_group_name_H-M    P1
_symmetry_Int_Tables_number       1
_space_group_crystal_system       triclinic
_cell_length_a                    7.806654
_cell_length_b                    8.593
_cell_length_c                    10.637746
_cell_angle_alpha                 91.590351
_cell_angle_beta                  86.788996
_cell_angle_gamma                 93.130127
_cell_volume                      711.205825042

loop_
_atom_site_label
_atom_site_type_symbol
_atom_type_description
_atom_site_fract_x
_atom_site_fract_y
_atom_site_fract_z
_atom_type_partial_charge
C1    C     C_R   0.544814 0.793593 0.491657 0.918333
C2    C     C_R   0.455205 0.205655 0.498909 0.933607
C3    C     C_R   0.496688 0.512385 0.260359 0.860250
C4    C     C_R   0.225760 0.328302 0.889994 -0.133311
C5    C     C_R   0.066949 0.305534 0.954962 -0.168232
C6    C     C_R   0.033081 0.389758 0.066265 -0.228586
C7    C     C_R   0.162750 0.485444 0.118683 0.403527
C8    C     C_R   0.333824 0.482692 0.065610 0.031457
C9    C     C_R   0.356454 0.426252 0.942011 0.044401
C10   C     C_R   0.506147 0.477420 0.872178 -0.103503
C11   C     C_R   0.646148 0.549995 0.930285 -0.182977
C12   C     C_R   0.637246 0.572522 0.058518 -0.225934
C13   C     C_R   0.484702 0.532808 0.127423 -0.087826
C14   C     C_2   0.567895 0.954174 0.469608 -0.078913
C15   C     C_2   0.434228 0.042269 0.500126 -0.354176
C16   C     C_R   0.501734 0.489277 0.739206 0.863520
Cl1   Cl    Cl    0.964350 0.684697 0.631530 -0.515192
Cl2   Cl    Cl    0.093951 0.642793 0.215718 -0.622423
H1    H     H_    0.761284 0.590619 0.876732 0.214824
H2    H     H_    0.958727 0.308810 0.323993 0.187275
H3    H     H_    0.245804 0.270085 0.799172 0.148529
H4    H     H_    0.966320 0.231985 0.914348 0.168885
H5    H     H_    0.903872 0.385856 0.108554 0.174591
H6    H     H_    0.749408 0.620811 0.104239 0.208115
H7    H     H_    0.310020 0.994200 0.536546 0.178135
H8    H     H_    0.746795 0.954068 0.323605 0.202494
H9    H     H_    0.827384 0.987744 0.466776 0.224329
H10   H     H_    0.993976 0.235751 0.463073 0.177288
N1    N     N_2   0.950330 0.457950 0.466250 0.026032
N2    N     N_2   0.049670 0.542050 0.533750 0.160335
N3    N     N_3   0.727854 0.013204 0.410104 -0.421238
N4    N     N_3   0.024080 0.331359 0.405958 -0.313514
O1    O     O_R   0.389250 0.738570 0.508280 -0.589354
O2    O     O_R   0.678390 0.711630 0.486650 -0.567861
O3    O     O_R   0.355400 0.513470 0.694050 -0.597268
O4    O     O_R   0.644540 0.486530 0.672420 -0.592416
O5    O     O_R   0.321610 0.288370 0.513350 -0.645456
O6    O     O_R   0.610750 0.261430 0.491720 -0.598907
O7    O     O_R   0.355460 0.513470 0.327580 -0.573287
O8    O     O_R   0.644600 0.486530 0.305950 -0.623335
Zn1   Zn    Zn3+2 0.306930 0.517990 0.514440 1.063287
Zn2   Zn    Zn3+2 0.693070 0.482010 0.485560 1.034495

loop_
_geom_bond_atom_site_label_1
_geom_bond_atom_site_label_2
_ccdc_geom_bond_type
C3    O8    A    
C11   C12   A    
N2    Zn1   S    
C6    C7    A    
C2    C15   S    
N1    Zn2   S    
C9    C10   A    
C2    O6    A    
O4    Zn2   S    
C3    C13   S    
H10   N4    S    
C14   N3    S    
C7    Cl2   S    
O1    Zn1   S    
O8    Zn2   S    
C3    O7    A    
H8    N3    S    
O7    Zn1   S    
C10   C16   S    
C16   O4    A    
C4    H3    S    
C2    O5    A    
C11   H1    S    
N1    N2    D    
Cl1   N2    S    
C6    H5    S    
C1    O2    A    
O6    Zn2   S    
N1    N4    S    
C16   O3    A    
O5    Zn1   S    
C5    C6    A    
O3    Zn1   S    
C15   H7    S    
C10   C11   A    
C1    O1    A    
C8    C13   A    
C7    C8    A    
C12   C13   A    
H2    N4    S    
C12   H6    S    
C14   C15   D    
C8    C9    A    
C1    C14   S    
C4    C9    A    
H9    N3    S    
C5    H4    S    
C4    C5    A    
O2    Zn2   S    
