data_str_m2_o14_o18_f0_pcu.sym.199
_audit_creation_date              2012-12-10T17:19:56-0500
_audit_creation_method            fapswitch 2.2
_symmetry_space_group_name_H-M    P1
_symmetry_Int_Tables_number       1
_space_group_crystal_system       triclinic
_cell_length_a                    9.611596
_cell_length_b                    10.780972
_cell_length_c                    15.536335
_cell_angle_alpha                 87.225725
_cell_angle_beta                  74.025323
_cell_angle_gamma                 89.921838
_cell_volume                      1545.80839188

loop_
_atom_site_label
_atom_site_type_symbol
_atom_type_description
_atom_site_fract_x
_atom_site_fract_y
_atom_site_fract_z
_atom_type_partial_charge
C1    C     C_R   0.998571 0.262575 0.503488 0.793661
C2    C     C_R   0.669742 0.526409 0.904239 0.090836
C3    C     C_R   0.768429 0.569099 0.949619 0.167257
C4    C     C_R   0.519345 0.515672 0.950003 0.068973
C5    C     C_R   0.472099 0.537241 0.043259 0.062967
C6    C     C_R   0.574417 0.580612 0.085610 -0.222793
C7    C     C_R   0.719173 0.596747 0.039269 -0.236207
C8    C     C_R   0.414326 0.486900 0.905267 -0.222860
C9    C     C_R   0.269121 0.472606 0.951192 -0.247220
C10   C     C_R   0.222839 0.484795 0.043366 0.171806
C11   C     C_R   0.323705 0.516155 0.090679 0.093127
C12   C     C_R   0.917981 0.501536 0.671785 0.774275
C13   C     C_R   0.076347 0.464388 0.088962 -0.219261
C14   C     C_R   0.028769 0.471781 0.181608 -0.209340
C15   C     C_R   0.273074 0.520946 0.184400 -0.255732
C16   C     C_R   0.087329 0.118987 0.644227 -0.188038
C17   C     C_R   0.131708 0.049304 0.709656 -0.139225
C18   C     C_R   0.131500 0.920308 0.709624 -0.129815
C19   C     C_R   0.087095 0.860188 0.644093 -0.166946
C20   C     C_R   0.044018 0.928885 0.576037 0.103668
C21   C     C_R   0.044132 0.060151 0.576112 0.098400
C22   C     C_R   0.995668 0.128303 0.509888 -0.106735
C23   C     C_R   0.998578 0.737033 0.503029 0.768650
C24   C     C_R   0.941194 0.067792 0.448479 -0.184600
C25   C     C_R   0.940704 0.939891 0.448601 -0.208978
C26   C     C_R   0.995299 0.870370 0.509796 -0.095700
C27   C     C_R   0.697867 0.663418 0.379524 -0.174943
C28   C     C_R   0.653476 0.745314 0.319844 0.273004
C29   C     C_R   0.508289 0.746211 0.321920 -0.305476
C30   C     C_R   0.409960 0.666009 0.380710 -0.194525
C31   C     C_R   0.451669 0.581069 0.441046 0.220381
C32   C     C_R   0.601072 0.580444 0.440721 0.151901
C33   C     C_R   0.548871 0.423306 0.556365 -0.049192
C34   C     C_R   0.081972 0.500008 0.328082 0.779710
C35   C     C_R   0.401105 0.423234 0.556269 -0.061952
C36   C     C_R   0.871666 0.515355 0.768911 -0.043834
C37   C     C_R   0.127390 0.498692 0.229859 -0.044166
C38   C     C_R   0.915859 0.585014 0.904547 -0.217609
C39   C     C_R   0.967171 0.558912 0.814516 -0.214234
C40   C     C_R   0.725608 0.495708 0.814483 -0.239058
Cu1   Cu    Cu3+1 0.140660 0.499990 0.500010 0.927215
Cu2   Cu    Cu3+1 0.859340 0.500010 0.499990 0.933755
H1    H     H_    0.793518 0.630746 0.074044 0.146546
H2    H     H_    0.998881 0.440531 0.053096 0.145253
H3    H     H_    0.901759 0.120083 0.398797 0.160174
H4    H     H_    0.084335 0.218661 0.649080 0.137990
H5    H     H_    0.164374 0.095597 0.761394 0.132769
H6    H     H_    0.163908 0.866456 0.761357 0.135395
H7    H     H_    0.084076 0.759909 0.648826 0.152470
H8    H     H_    0.900413 0.894960 0.399288 0.169097
H9    H     H_    0.583385 0.360392 0.602632 0.132026
H10   H     H_    0.808442 0.668865 0.376760 0.207705
H11   H     H_    0.345776 0.537929 0.224250 0.154410
H12   H     H_    0.470232 0.809737 0.277387 0.151378
H13   H     H_    0.302492 0.675417 0.375812 0.211107
H14   H     H_    0.325541 0.360286 0.602439 0.129149
H15   H     H_    0.915574 0.454064 0.215558 0.162779
H16   H     H_    0.192735 0.449792 0.914247 0.147204
H17   H     H_    0.991025 0.619984 0.938592 0.139104
H18   H     H_    0.080398 0.575702 0.780193 0.150146
H19   H     H_    0.657890 0.455813 0.778002 0.143186
H20   H     H_    0.546016 0.606669 0.154208 0.153709
H21   H     H_    0.439747 0.477527 0.833966 0.140841
N1    N     N_R   0.648320 0.501210 0.499140 -0.190184
N2    N     N_R   0.352470 0.501290 0.499110 -0.191523
O1    O     O_R   0.118810 0.319640 0.500010 -0.573552
O2    O     O_R   0.881240 0.319660 0.500000 -0.573994
O3    O     O_R   0.055570 0.499980 0.629840 -0.597257
O4    O     O_R   0.818000 0.500010 0.629830 -0.577874
O5    O     O_R   0.118760 0.680340 0.500000 -0.600581
O6    O     O_R   0.881190 0.680360 0.499990 -0.588627
O7    O     O_R   0.182000 0.499990 0.370170 -0.593974
O8    O     O_R   0.944430 0.500020 0.370160 -0.601574
N3    N     N_2   0.751732 0.832205 0.261012 -0.431388
H22   H     H_    0.706997 0.887666 0.219853 0.256213
C41   C     C_3   0.895619 0.789898 0.216565 -0.717755
H23   H     H_    0.952263 0.861115 0.164773 0.230731
H24   H     H_    0.889234 0.702172 0.183537 0.231185
H25   H     H_    0.961241 0.776176 0.264747 0.216564

loop_
_geom_bond_atom_site_label_1
_geom_bond_atom_site_label_2
_ccdc_geom_bond_type
C8    C9    A    
C12   O4    A    
C16   C21   A    
Cu2   N1    S    
C34   C37   S    
Cu1   Cu2   S    
C19   C20   A    
C41   H25   S    
C4    C8    A    
C28   N3    S    
C12   O3    A    
N3    C41   S    
C24   H3    S    
C15   H11   S    
C28   C29   A    
C41   H24   S    
C5    C11   A    
C3    C7    A    
C38   C39   A    
C29   H12   S    
C35   N2    A    
C9    H16   S    
C23   C26   S    
C25   H8    S    
C15   C37   A    
C1    O2    A    
C11   C15   A    
C3    C38   A    
C16   C17   A    
C7    H1    S    
C12   C36   S    
C9    C10   A    
C27   C32   A    
C1    C22   S    
C21   C22   A    
C23   O5    A    
C17   C18   A    
Cu1   O3    S    
N3    H22   S    
C23   O6    A    
C36   C40   A    
C24   C25   A    
C32   N1    A    
C16   H4    S    
C18   C19   A    
Cu1   N2    S    
C34   O8    A    
C25   C26   A    
Cu2   O4    S    
C40   H19   S    
C2    C4    A    
C29   C30   A    
C19   H7    S    
C31   C32   A    
C30   C31   A    
C1    O1    A    
C41   H23   S    
Cu1   O1    S    
Cu1   O7    S    
Cu2   O2    S    
C22   C24   A    
C34   O7    A    
C27   H10   S    
C31   N2    A    
C14   H15   S    
Cu2   O8    S    
C35   H14   S    
C36   C39   A    
C17   H5    S    
C4    C5    A    
C10   C13   A    
C18   H6    S    
C6    C7    A    
C33   H9    S    
C30   H13   S    
C6    H20   S    
C2    C3    A    
C14   C37   A    
C5    C6    A    
C20   C26   A    
C33   N1    A    
C39   H18   S    
Cu2   O6    S    
C33   C35   A    
C10   C11   A    
C8    H21   S    
C38   H17   S    
C2    C40   A    
C20   C21   A    
C27   C28   A    
C13   C14   A    
C13   H2    S    
Cu1   O5    S    
