data_str_m2_o5_o29_f0_pcu.sym.60
_audit_creation_date              2013-03-05T16:36:14-0500
_audit_creation_method            fapswitch 2.2
_symmetry_space_group_name_H-M    P1
_symmetry_Int_Tables_number       1
_space_group_crystal_system       triclinic
_cell_length_a                    27.657915
_cell_length_b                    9.091496
_cell_length_c                    7.787277
_cell_angle_alpha                 90.000571
_cell_angle_beta                  90.000276
_cell_angle_gamma                 87.574846
_cell_volume                      1956.37120682

loop_
_atom_site_label
_atom_site_type_symbol
_atom_site_description
_atom_site_fract_x
_atom_site_fract_y
_atom_site_fract_z
_atom_type_partial_charge
O1    O     O_R   0.500000 0.288390 0.642760 -0.574570
O2    O     O_R   0.500000 0.711610 0.357240 -0.574478
O3    O     O_R   0.500000 0.711610 0.642760 -0.574564
O4    O     O_R   0.500000 0.288390 0.357240 -0.574476
C1    C     C_R   0.500133 0.220008 0.500000 0.851826
C2    C     C_R   0.499867 0.779992 0.500001 0.851831
O5    O     O_R   0.430260 0.500000 0.642770 -0.585287
O6    O     O_R   0.569740 0.500000 0.357230 -0.583761
O7    O     O_R   0.569740 0.500000 0.642770 -0.585282
O8    O     O_R   0.430260 0.500000 0.357230 -0.583762
C3    C     C_R   0.406997 0.504571 0.500202 0.792675
C4    C     C_R   0.593003 0.495425 0.500203 0.792668
Cu1   Cu    Cu3+1 0.500000 0.500000 0.669080 1.003725
Cu2   Cu    Cu3+1 0.500000 0.500000 0.330920 1.004712
C5    C     C_R   0.182147 0.405001 0.564025 0.561668
C6    C     C_R   0.817851 0.594927 0.564064 0.561677
C7    C     C_R   0.171594 0.660329 0.495592 0.529380
C8    C     C_R   0.828402 0.339597 0.495630 0.529377
O9    O     O_2   0.212617 0.286375 0.584432 -0.480023
O10   O     O_2   0.787382 0.713551 0.584482 -0.480044
O11   O     O_2   0.191755 0.786882 0.449298 -0.478285
O12   O     O_2   0.808240 0.213044 0.449343 -0.478298
N1    N     N_R   0.200642 0.536936 0.521006 -0.481125
N2    N     N_R   0.799356 0.462994 0.521036 -0.481124
C9    C     C_R   0.278901 0.550782 0.664177 -0.121556
C10   C     C_R   0.721096 0.449007 0.664170 -0.121565
C11   C     C_R   0.276234 0.529688 0.354107 -0.101837
C12   C     C_R   0.723767 0.470420 0.354117 -0.101866
C13   C     C_R   0.329213 0.537605 0.659781 -0.199353
C14   C     C_R   0.670784 0.462204 0.659773 -0.199359
C15   C     C_R   0.326785 0.517045 0.349215 -0.208628
C16   C     C_R   0.673216 0.483078 0.349223 -0.208607
C17   C     C_R   0.252219 0.545294 0.511881 0.353791
C18   C     C_R   0.747779 0.454644 0.511885 0.353834
C19   C     C_R   0.101364 0.520063 0.566849 -0.175945
C20   C     C_R   0.898634 0.479862 0.566875 -0.175936
C21   C     C_R   0.131995 0.392703 0.586626 -0.114995
C22   C     C_R   0.868003 0.607222 0.586663 -0.115026
C23   C     C_R   0.121117 0.655570 0.520306 -0.110548
C24   C     C_R   0.878881 0.344355 0.520336 -0.110584
C25   C     C_R   0.111824 0.257546 0.630277 0.490491
C26   C     C_R   0.888176 0.742379 0.630315 0.490442
C27   C     C_R   0.089677 0.780664 0.497758 0.476430
C28   C     C_R   0.910320 0.219260 0.497775 0.476440
C29   C     C_R   0.353685 0.518787 0.502501 -0.037225
C30   C     C_R   0.646314 0.481189 0.502503 -0.037218
H1    H     H_    0.344709 0.503606 0.226211 0.157522
H2    H     H_    0.655295 0.496653 0.226226 0.157523
H3    H     H_    0.348877 0.540704 0.779923 0.159275
H4    H     H_    0.651118 0.458986 0.779908 0.159271
H5    H     H_    0.255713 0.523237 0.236103 0.128180
H6    H     H_    0.744290 0.476991 0.236125 0.128171
H7    H     H_    0.260456 0.560979 0.786581 0.124234
H8    H     H_    0.739540 0.438682 0.786571 0.124226
C31   C     C_R   0.979763 0.360265 0.582563 0.021406
C32   C     C_R   0.020236 0.639661 0.582571 0.021426
C33   C     C_R   0.969641 0.628542 0.604714 0.011666
C34   C     C_R   0.030358 0.371384 0.604697 0.011661
C35   C     C_R   0.949356 0.489314 0.586933 0.067881
C36   C     C_R   0.050643 0.510611 0.586920 0.067890
C37   C     C_R   0.959221 0.225972 0.541107 -0.341092
C38   C     C_R   0.040778 0.773955 0.541127 -0.341154
C39   C     C_R   0.938503 0.752402 0.635171 -0.327419
C40   C     C_R   0.061496 0.247524 0.635147 -0.327507
H9    H     H_    0.981210 0.126049 0.525130 0.149367
H10   H     H_    0.018791 0.873884 0.525182 0.149332
H11   H     H_    0.952543 0.858998 0.662200 0.158458
H12   H     H_    0.047456 0.140928 0.662176 0.158452
C41   C     C_1   0.500045 0.065370 0.500000 -0.169278
C42   C     C_1   0.499955 0.934630 0.500002 -0.169280
N3    N     N_1   0.500000 0.500000 0.076820 -0.050246
N4    N     N_1   0.500000 0.500000 0.923180 -0.050629
O13   O     O_3   0.141132 0.131173 0.648428 -0.475609
C43   C     C_3   0.140533 0.083649 0.820913 0.104633
H13   H     H_    0.107169 0.023142 0.845931 0.121123
H14   H     H_    0.142849 0.177406 0.912729 0.118702
C44   C     C_3   0.183985 0.978972 0.852789 -0.668379
H15   H     H_    0.217876 0.032462 0.816595 0.276232
H16   H     H_    0.185998 0.948914 0.990762 0.184227
H17   H     H_    0.180659 0.877115 0.776114 0.253107
O14   O     O_3   0.858870 0.868755 0.648463 -0.475618
C45   C     C_3   0.859457 0.916256 0.820961 0.104637
H18   H     H_    0.892826 0.976715 0.846039 0.121072
H19   H     H_    0.857119 0.822495 0.912756 0.118731
C46   C     C_3   0.816016 0.020984 0.852790 -0.668344
H20   H     H_    0.782121 0.967576 0.816443 0.276294
H21   H     H_    0.813976 0.050967 0.990787 0.184195
H22   H     H_    0.819381 0.122875 0.776205 0.253022
O15   O     O_3   0.106185 0.911790 0.435273 -0.499797
C47   C     C_3   0.090587 0.932090 0.263079 0.110015
H23   H     H_    0.057153 0.873697 0.229200 0.103296
H24   H     H_    0.119845 0.891278 0.175588 0.158647
C48   C     C_3   0.080102 0.095187 0.229795 -0.794716
H25   H     H_    0.112964 0.158160 0.253966 0.270294
H26   H     H_    0.068203 0.112641 0.095156 0.172385
H27   H     H_    0.050313 0.136589 0.314215 0.243368
O16   O     O_3   0.893810 0.088132 0.435303 -0.499808
C49   C     C_3   0.909388 0.067839 0.263086 0.110129
H28   H     H_    0.942789 0.126380 0.229097 0.103242
H29   H     H_    0.880095 0.108500 0.175639 0.158691
C50   C     C_3   0.919942 0.904752 0.229860 -0.794706
H30   H     H_    0.887113 0.841635 0.254141 0.270263
H31   H     H_    0.931820 0.887301 0.095197 0.172403
H32   H     H_    0.949768 0.863501 0.314239 0.243293

loop_
_geom_bond_atom_site_label_1
_geom_bond_atom_site_label_2
_geom_bond_distance
_ccdc_geom_bond_type
O5    Cu1   1.939713 S    
C48   H25   1.110556 S    
C31   C35   1.414718 A    
O13   C43   1.411287 S    
C20   C35   1.417743 A    
O16   C49   1.418276 S    
C13   H3    1.083134 S    
C44   H15   1.110476 S    
C11   C17   1.401019 A    
C5    O9    1.349679 S    
C50   H30   1.110667 S    
C43   H14   1.116466 S    
O1    C1    1.273661 A    
C40   H12   1.079884 S    
C19   C21   1.413912 A    
C9    H7    1.083261 S    
C22   C26   1.412358 A    
C7    C23   1.411787 A    
C33   C35   1.412892 A    
C34   C36   1.412886 A    
C49   H28   1.117287 S    
C32   C33   1.417796 A    
Cu2   N3    1.978746 S    
O7    Cu1   1.939712 S    
C5    C21   1.407355 A    
C1    C41   1.405997 S    
C47   H24   1.109622 S    
C10   C18   1.398871 A    
N1    C17   1.433516 S    
C43   C44   1.521450 S    
N2    C18   1.433505 S    
C8    N2    1.366317 A    
O3    Cu1   1.934741 S    
C6    O10   1.349680 S    
O3    C2    1.273664 A    
C44   H16   1.109461 S    
C14   H4    1.083173 S    
C12   C18   1.401069 A    
C6    N2    1.365487 A    
C15   H1    1.083080 S    
Cu1   Cu2   2.633346 S    
C34   C40   1.408503 A    
C16   H2    1.083122 S    
O2    C2    1.273667 A    
C26   O14   1.385005 S    
C10   H8    1.083297 S    
C11   H5    1.082968 S    
C33   C39   1.408507 A    
C46   H21   1.109500 S    
C9    C13   1.392031 A    
C39   H11   1.079883 S    
C43   H13   1.111322 S    
C38   H10   1.078825 S    
C11   C15   1.398507 A    
C20   C24   1.415809 A    
C4    C30   1.474786 S    
O8    Cu2   1.939715 S    
C23   C27   1.413051 A    
C46   H20   1.110509 S    
O14   C45   1.411297 S    
C32   C36   1.414715 A    
C13   C29   1.406300 A    
C19   C36   1.417743 A    
C19   C23   1.415807 A    
C28   O16   1.382926 S    
O5    C3    1.282969 A    
C12   C16   1.398502 A    
O6    C4    1.285701 A    
C7    N1    1.366321 A    
C10   C14   1.392036 A    
C48   H27   1.107444 S    
C49   H29   1.109692 S    
C32   C38   1.405824 A    
C3    C29   1.474792 S    
O1    Cu1   1.934738 S    
C49   C50   1.521165 S    
C47   C48   1.521053 S    
C50   H31   1.108316 S    
C46   H22   1.108949 S    
C2    C42   1.405997 S    
O6    Cu2   1.939710 S    
C8    O12   1.348690 S    
C16   C30   1.407047 A    
C14   C30   1.406357 A    
O4    C1    1.273670 A    
Cu1   N4    1.978746 S    
C28   C37   1.397787 A    
C50   H32   1.107564 S    
C45   C46   1.521434 S    
C45   H19   1.116456 S    
C20   C22   1.413916 A    
N3    N4    1.196438 T    
O4    Cu2   1.934742 S    
C12   H6    1.083007 S    
C47   H23   1.117185 S    
C44   H17   1.108924 S    
C31   C37   1.405827 A    
C5    N1    1.365493 A    
C27   O15   1.382924 S    
C21   C25   1.412358 A    
C41   C42   1.188730 T    
O2    Cu2   1.934737 S    
O7    C4    1.282970 A    
C7    O11   1.348690 S    
O8    C3    1.285701 A    
C25   O13   1.385010 S    
C37   H9    1.078833 S    
C24   C28   1.413054 A    
C8    C24   1.411787 A    
C48   H26   1.108303 S    
C45   H18   1.111311 S    
C15   C29   1.407008 A    
C31   C34   1.417791 A    
C9    C17   1.398833 A    
C25   C40   1.399280 A    
O15   C47   1.418275 S    
C26   C39   1.399272 A    
C27   C38   1.397792 A    
C6    C22   1.407357 A    
