data_str_m9_o11_o16_f0_sra.sym.13
_audit_creation_date              2012-12-11T14:17:30-0500
_audit_creation_method            fapswitch 2.2
_symmetry_space_group_name_H-M    P1
_symmetry_Int_Tables_number       1
_space_group_crystal_system       triclinic
_cell_length_a                    6.943945
_cell_length_b                    13.624899
_cell_length_c                    20.391269
_cell_angle_alpha                 102.008014
_cell_angle_beta                  89.95247
_cell_angle_gamma                 90.744983
_cell_volume                      1886.85177419

loop_
_atom_site_label
_atom_site_type_symbol
_atom_type_description
_atom_site_fract_x
_atom_site_fract_y
_atom_site_fract_z
_atom_type_partial_charge
O1    O     O_R   0.506860 0.599390 0.449240 -0.536792
O2    O     O_R   0.180220 0.594600 0.586780 -0.543774
O3    O     O_R   0.004500 0.400610 0.550760 -0.544893
C1    C     C_R   0.349567 0.617443 0.612700 0.741140
O4    O     O_R   0.177490 0.611290 0.451970 -0.544465
O5    O     O_R   0.001750 0.417420 0.414990 -0.541526
C2    C     C_R   0.347323 0.638058 0.435198 0.699876
O6    O     O_R   0.509610 0.582580 0.585010 -0.546016
O7    O     O_3   0.337420 0.436370 0.488020 -0.371563
V1    V     V_3+5 0.064680 0.511800 0.502220 1.416420
O8    O     O_R   0.671710 0.405400 0.413220 -0.541506
C3    C     C_R   0.839734 0.383956 0.386559 0.759346
O9    O     O_R   0.674440 0.388710 0.548030 -0.537920
C4    C     C_R   0.842679 0.362103 0.564912 0.737807
V2    V     V_3+5 0.564010 0.488200 0.497780 1.435134
O10   O     O_3   0.841140 0.563630 0.511980 -0.376440
C5    C     C_R   0.895956 0.111679 0.613293 -0.198723
C6    C     C_R   0.852258 0.283982 0.604380 -0.046934
C7    C     C_R   0.869234 0.317592 0.930242 0.137425
C8    C     C_R   0.897127 0.393394 0.894400 -0.120948
C9    C     C_R   0.914049 0.371999 0.824638 0.171444
C10   C     C_R   0.886144 0.271125 0.787553 0.034905
C11   C     C_R   0.875701 0.193090 0.824800 -0.012884
C12   C     C_R   0.876195 0.243174 0.715644 0.091287
C13   C     C_R   0.890714 0.140421 0.683532 0.114373
C14   C     C_R   0.895237 0.066481 0.721501 -0.189069
C15   C     C_R   0.881072 0.091954 0.790691 -0.173213
C16   C     C_R   0.842093 0.312331 0.674284 -0.296394
C17   C     C_R   0.882187 0.183417 0.573340 0.195452
C18   C     C_R   0.866048 0.217106 0.895806 -0.100825
H1    H     H_    0.801747 0.388347 0.694803 0.121646
H2    H     H_    0.915746 0.470370 0.921333 0.139241
H3    H     H_    0.877848 0.031021 0.817327 0.106793
C19   C     C_2   0.005286 0.288687 0.285102 -0.136447
C20   C     C_2   0.842066 0.315385 0.319857 -0.286539
H4    H     H_    0.142495 0.317503 0.307026 0.136206
H5    H     H_    0.703405 0.286910 0.299634 0.128816
C21   C     C_2   0.013738 0.220517 0.217544 -0.124253
C22   C     C_2   0.858633 0.183389 0.180317 -0.295967
H6    H     H_    0.714466 0.202111 0.198542 0.120219
C23   C     C_2   0.224534 0.801140 0.778220 -0.186791
C24   C     C_2   0.359434 0.802239 0.826330 0.076820
H7    H     H_    0.112592 0.857340 0.786913 0.107802
C25   C     C_2   0.210342 0.724697 0.714596 -0.128941
C26   C     C_2   0.364352 0.691214 0.676671 -0.325646
H8    H     H_    0.066600 0.700554 0.696740 0.140003
H9    H     H_    0.506564 0.721189 0.691278 0.132663
C27   C     C_R   0.459132 0.882464 0.385703 -0.139762
H10   H     H_    0.461154 0.830688 0.478059 0.109810
C28   C     C_R   0.362752 0.715530 0.395404 -0.053767
C29   C     C_R   0.322932 0.683597 0.070506 0.164086
C30   C     C_R   0.329640 0.606958 0.106361 -0.204440
C31   C     C_R   0.359014 0.627780 0.175831 0.180943
C32   C     C_R   0.368660 0.729313 0.212439 0.071765
C33   C     C_R   0.379831 0.806656 0.174944 -0.066564
C34   C     C_R   0.376995 0.757266 0.284248 0.051979
C35   C     C_R   0.429779 0.857529 0.315731 0.107769
C36   C     C_R   0.451126 0.931505 0.277272 0.188443
C37   C     C_R   0.419529 0.906197 0.208210 -0.211160
C38   C     C_R   0.328853 0.690169 0.326388 -0.164004
C39   C     C_R   0.431574 0.811031 0.424730 -0.193720
C40   C     C_R   0.354764 0.783221 0.104304 -0.083265
H11   H     H_    0.318434 0.529426 0.079837 0.128706
H12   H     H_    0.430128 0.965631 0.180423 0.111750
O11   O     O_R   0.203230 0.917310 0.915020 -0.555480
O12   O     O_R   0.535500 0.888690 0.048040 -0.536908
O13   O     O_R   0.711080 0.082610 0.085000 -0.549464
C41   C     C_R   0.365952 0.861947 0.064820 0.748357
O14   O     O_R   0.532630 0.905370 0.913230 -0.531537
O15   O     O_R   0.708190 0.099410 0.949230 -0.547904
C42   C     C_R   0.363778 0.881796 0.887647 0.754066
O16   O     O_R   0.206120 0.900510 0.050790 -0.547052
O17   O     O_3   0.375360 0.063570 0.011990 -0.378770
V3    V     V_3+5 0.648170 0.988200 0.997780 1.446193
O18   O     O_R   0.038240 0.111390 0.951940 -0.537535
C43   C     C_R   0.870308 0.137963 0.935064 0.746942
O19   O     O_R   0.041120 0.094710 0.086750 -0.540997
C44   C     C_R   0.872552 0.115747 0.113526 0.754170
V4    V     V_3+5 0.148810 0.011930 0.002180 1.431646
O20   O     O_3   0.871750 0.936430 0.988010 -0.371410
N1    N     N_3   0.892093 0.154501 0.501485 -0.673713
H13   H     H_    0.019402 0.185060 0.486371 0.222666
H14   H     H_    0.902932 0.076578 0.486410 0.231013
H15   H     H_    0.156663 0.201113 0.197732 0.130718
N2    N     N_3   0.499294 0.724185 0.822380 -0.652002
H16   H     H_    0.614487 0.737745 0.792444 0.221808
H17   H     H_    0.436179 0.653878 0.803564 0.257868
N3    N     N_3   0.499533 0.033432 0.308848 -0.670315
H18   H     H_    0.533740 0.075695 0.272992 0.224169
H19   H     H_    0.376524 0.065253 0.333785 0.225327
H20   H     H_    0.505983 0.956993 0.410651 0.158300
H21   H     H_    0.903615 0.987829 0.697390 0.116818
H22   H     H_    0.261590 0.618228 0.307465 0.149438
N4    N     N_3   0.294938 0.660398 0.998998 -0.657674
H23   H     H_    0.285786 0.582762 0.981105 0.234512
H24   H     H_    0.161587 0.689115 0.989161 0.228473
N5    N     N_3   0.399559 0.544812 0.206551 -0.698127
H25   H     H_    0.521161 0.508346 0.183498 0.237048
H26   H     H_    0.283228 0.494241 0.197411 0.225423
H27   H     H_    0.911250 0.033214 0.589572 0.111094
N6    N     N_3   0.857837 0.341594 0.002260 -0.677973
H28   H     H_    0.873867 0.418918 0.020360 0.226115
H29   H     H_    0.719036 0.322331 0.015506 0.222400
N7    N     N_3   0.991805 0.451822 0.796147 -0.682151
H30   H     H_    0.083722 0.424855 0.756027 0.240946
H31   H     H_    0.880485 0.495303 0.783460 0.228589

loop_
_geom_bond_atom_site_label_1
_geom_bond_atom_site_label_2
_ccdc_geom_bond_type
O12   C41   A    
N6    H28   S    
O11   V4    S    
C33   C37   A    
C5    C17   A    
O17   V3    S    
C4    C6    S    
C7    C8    A    
C1    O6    A    
N7    H31   S    
N1    H13   S    
C35   C36   A    
C27   C35   A    
C31   C32   A    
C15   H3    S    
C29   C40   A    
C37   H12   S    
C20   H5    S    
O16   V4    S    
O1    C2    A    
N2    H16   S    
C21   C22   D    
C14   H21   S    
V2    O10   S    
O12   V3    S    
C33   C40   A    
C34   C35   A    
C19   C20   D    
C23   C24   D    
O14   C42   A    
N5    H26   S    
C9    N7    S    
O8    V2    S    
C27   H20   S    
O15   V3    S    
O1    V2    S    
C11   C15   A    
O7    V1    S    
C19   H4    S    
O19   C44   A    
C38   H22   S    
C26   H9    S    
N6    H29   S    
V3    O20   S    
O9    C4    A    
C23   H7    S    
O13   C44   A    
N7    H30   S    
N1    H14   S    
C25   H8    S    
N5    H25   S    
C1    C26   S    
O19   V4    S    
O17   V4    S    
C32   C34   A    
H10   C39   S    
N2    H17   S    
C29   C30   A    
C22   C44   S    
C6    C16   A    
C12   C13   A    
C22   H6    S    
C6    C17   A    
C31   N5    S    
C36   C37   A    
O11   C42   A    
C34   C38   A    
O2    C1    A    
O18   C43   A    
C11   C18   A    
C17   N1    S    
C18   C43   S    
C41   O16   A    
C14   C15   A    
O14   V3    S    
C24   N2    S    
N3    H18   S    
C3    C20   S    
N4    H24   S    
O3    C4    A    
N3    H19   S    
O6    V2    S    
O9    V2    S    
O15   C43   A    
C23   C25   S    
C10   C12   A    
O2    V1    S    
C30   C31   A    
O4    C2    A    
C8    H2    S    
C32   C33   A    
C21   H15   S    
C19   C21   S    
C16   H1    S    
C25   C26   D    
C12   C16   A    
C2    C28   S    
C30   H11   S    
C36   N3    S    
O5    V1    S    
O8    C3    A    
C40   C41   S    
C28   C38   A    
C13   C14   A    
C5    C13   A    
O4    V1    S    
O3    V1    S    
V1    O10   S    
O5    C3    A    
C7    N6    S    
C27   C39   A    
C24   C42   S    
O13   V3    S    
O7    V2    S    
N4    H23   S    
C5    H27   S    
C29   N4    S    
V4    O20   S    
C8    C9    A    
C28   C39   A    
C10   C11   A    
C9    C10   A    
C7    C18   A    
O18   V4    S    
