data_str_m9_o4_o16_f0_sra.sym.43
_audit_creation_date              2012-12-11T17:00:20-0500
_audit_creation_method            fapswitch 2.2
_symmetry_space_group_name_H-M    P1
_symmetry_Int_Tables_number       1
_space_group_crystal_system       triclinic
_cell_length_a                    6.958147
_cell_length_b                    13.661098
_cell_length_c                    20.284924
_cell_angle_alpha                 103.2826
_cell_angle_beta                  89.581454
_cell_angle_gamma                 90.82964
_cell_volume                      1876.40793148

loop_
_atom_site_label
_atom_site_type_symbol
_atom_type_description
_atom_site_fract_x
_atom_site_fract_y
_atom_site_fract_z
_atom_type_partial_charge
O1    O     O_R   0.506770 0.599700 0.449550 -0.539650
O2    O     O_R   0.179980 0.595740 0.587960 -0.545696
O3    O     O_R   0.004580 0.400300 0.550450 -0.538997
C1    C     C_R   0.348157 0.617101 0.615220 0.694033
O4    O     O_R   0.177380 0.611700 0.452380 -0.543244
O5    O     O_R   0.001970 0.416370 0.413900 -0.544447
C2    C     C_R   0.348016 0.637423 0.435045 0.693266
O6    O     O_R   0.509390 0.583630 0.586100 -0.539337
O7    O     O_3   0.337530 0.435890 0.487530 -0.369499
V1    V     V_3+5 0.064660 0.511890 0.502310 1.412247
O8    O     O_R   0.671950 0.404260 0.412040 -0.539369
C3    C     C_R   0.840770 0.384280 0.384508 0.692699
O9    O     O_R   0.674540 0.388300 0.547620 -0.541207
C4    C     C_R   0.842543 0.361626 0.563500 0.700584
V2    V     V_3+5 0.564030 0.488110 0.497690 1.427026
O10   O     O_3   0.841030 0.564110 0.512470 -0.374685
C5    C     C_R   0.841555 0.108377 0.602984 -0.150928
H1    H     H_    0.832415 0.162070 0.511813 0.104832
H2    H     H_    0.811727 0.981811 0.680181 0.120414
H3    H     H_    0.831016 0.030382 0.575606 0.109393
C6    C     C_R   0.849650 0.283415 0.600934 -0.029058
C7    C     C_R   0.894380 0.308173 0.924832 -0.166141
C8    C     C_R   0.912951 0.383303 0.889672 -0.123098
C9    C     C_R   0.905048 0.360046 0.819503 -0.146586
C10   C     C_R   0.873355 0.259985 0.782043 0.048803
C11   C     C_R   0.851468 0.181403 0.817977 0.045562
C12   C     C_R   0.863266 0.236242 0.709799 0.069689
C13   C     C_R   0.848540 0.134381 0.674050 0.103808
C14   C     C_R   0.830080 0.058838 0.708927 -0.192851
C15   C     C_R   0.818024 0.080663 0.779438 0.088995
C16   C     C_R   0.862590 0.310374 0.671417 -0.204458
C17   C     C_R   0.841486 0.182778 0.566583 -0.168449
C18   C     C_R   0.865734 0.207989 0.890531 -0.067313
H4    H     H_    0.864988 0.389733 0.694379 0.086654
H5    H     H_    0.906376 0.328147 0.979578 0.099717
H6    H     H_    0.928350 0.422507 0.796196 0.106706
H7    H     H_    0.937676 0.460335 0.917048 0.113921
C19   C     C_R   0.733954 0.265064 0.199912 0.020197
C20   C     C_R   0.864118 0.185326 0.184309 -0.108741
C21   C     C_R   0.989091 0.174029 0.236155 -0.134849
H8    H     H_    0.078726 0.108987 0.228944 0.137612
C22   C     C_R   0.987297 0.241267 0.300205 -0.170199
H9    H     H_    0.083125 0.228321 0.339096 0.137682
C23   C     C_R   0.852797 0.319290 0.315531 -0.076456
C24   C     C_R   0.732619 0.332943 0.263293 0.082359
C25   C     C_3   0.519335 0.341851 0.264428 -0.451403
C26   C     C_3   0.518659 0.260663 0.198943 -0.154891
H10   H     H_    0.474590 0.416368 0.256993 0.149192
H11   H     H_    0.449643 0.320540 0.308707 0.207321
H12   H     H_    0.457138 0.285014 0.154957 0.112626
C27   C     C_R   0.481189 0.669155 0.733665 0.106512
C28   C     C_R   0.350985 0.682619 0.684396 -0.110071
C29   C     C_R   0.204908 0.753847 0.706188 -0.178735
H13   H     H_    0.093726 0.764241 0.671435 0.124311
C30   C     C_R   0.206755 0.816660 0.772071 -0.182152
H14   H     H_    0.099056 0.874021 0.785332 0.131016
C31   C     C_R   0.353565 0.809651 0.818364 -0.105205
C32   C     C_R   0.482106 0.729955 0.798381 0.105038
C33   C     C_3   0.692989 0.717303 0.806167 -0.410525
C34   C     C_3   0.692090 0.651837 0.734006 -0.409694
H15   H     H_    0.724320 0.674071 0.844968 0.166423
H16   H     H_    0.777571 0.787911 0.811382 0.180862
H17   H     H_    0.725980 0.571851 0.731627 0.161297
H18   H     H_    0.771044 0.686543 0.697134 0.176446
C35   C     C_R   0.533133 0.864809 0.380828 -0.155847
H19   H     H_    0.517842 0.818916 0.474768 0.105226
H20   H     H_    0.648313 0.968212 0.292163 0.155251
H21   H     H_    0.617053 0.931657 0.402843 0.115152
C36   C     C_R   0.369205 0.713802 0.395128 -0.037864
C37   C     C_R   0.240011 0.696317 0.073429 -0.156615
C38   C     C_R   0.188283 0.626413 0.110636 -0.119905
C39   C     C_R   0.234654 0.643191 0.179014 -0.159187
C40   C     C_R   0.339741 0.730089 0.211746 0.081810
C41   C     C_R   0.403844 0.798236 0.171942 0.054036
C42   C     C_R   0.380951 0.752408 0.282743 0.068501
C43   C     C_R   0.490276 0.840461 0.311496 0.127815
C44   C     C_R   0.560389 0.902591 0.270755 -0.161574
C45   C     C_R   0.519167 0.881576 0.202134 -0.215072
C46   C     C_R   0.319769 0.690165 0.326345 -0.220815
C47   C     C_R   0.474815 0.801422 0.422074 -0.165772
C48   C     C_R   0.346627 0.782601 0.103147 -0.095604
H22   H     H_    0.242190 0.620483 0.308047 0.097671
H23   H     H_    0.193527 0.683969 0.021245 0.103391
H24   H     H_    0.185247 0.586777 0.204745 0.105366
H25   H     H_    0.106403 0.559860 0.086740 0.114825
H26   H     H_    0.579770 0.931542 0.173002 0.150720
O11   O     O_R   0.203450 0.916320 0.913910 -0.545767
O12   O     O_R   0.535520 0.888300 0.047620 -0.540047
O13   O     O_R   0.710860 0.083650 0.086100 -0.524485
C49   C     C_R   0.365302 0.861729 0.064580 0.689875
O14   O     O_R   0.532860 0.904250 0.912040 -0.545656
O15   O     O_R   0.708190 0.099710 0.949550 -0.542575
C50   C     C_R   0.364142 0.881192 0.885362 0.681008
O16   O     O_R   0.206120 0.900260 0.050460 -0.535991
O17   O     O_3   0.375280 0.064080 0.012470 -0.342143
V3    V     V_3+5 0.648180 0.988110 0.997690 1.429280
O18   O     O_R   0.038220 0.111740 0.952370 -0.543988
C51   C     C_R   0.870799 0.134407 0.932788 0.697514
O19   O     O_R   0.040880 0.095790 0.087940 -0.518953
C52   C     C_R   0.872072 0.116227 0.115796 0.694500
V4    V     V_3+5 0.148800 0.011950 0.002300 1.448771
O20   O     O_3   0.871820 0.935920 0.987530 -0.378592
C53   C     C_2   0.445271 0.160005 0.207688 0.768433
O21   O     O_2   0.462000 0.135488 0.261730 -0.580888
O22   O     O_R   0.365587 0.092947 0.152356 -0.634076
H27   H     H_    0.316169 0.029212 0.164260 0.264630
C54   C     C_3   0.746078 0.995629 0.808908 -0.732770
H28   H     H_    0.854346 0.973704 0.842313 0.195987
H29   H     H_    0.608747 0.018645 0.835358 0.221220
H30   H     H_    0.711526 0.927007 0.769282 0.183897

loop_
_geom_bond_atom_site_label_1
_geom_bond_atom_site_label_2
_ccdc_geom_bond_type
C30   H14   S    
O12   V3    S    
V4    O20   S    
V3    O20   S    
C15   C54   S    
C40   C42   A    
C40   C41   A    
O17   V3    S    
H20   C44   S    
C1    O6    A    
O18   C51   A    
C31   C32   A    
O15   C51   A    
C29   H13   S    
C23   C24   A    
C7    H5    S    
C6    C16   A    
C25   H11   S    
C9    H6    S    
C35   C43   A    
C1    C28   S    
C34   H17   S    
C4    C6    S    
C13   C14   A    
O5    C3    A    
C19   C20   A    
V2    O10   S    
O15   V3    S    
C5    H3    S    
C18   C51   S    
C37   C48   A    
C19   C24   A    
O14   V3    S    
O11   V4    S    
O8    V2    S    
O16   V4    S    
C54   H28   S    
C37   C38   A    
O1    V2    S    
O7    V1    S    
C45   H26   S    
C21   C22   A    
C33   C34   S    
C35   C47   A    
C31   C50   S    
O9    C4    A    
C54   H29   S    
C22   C23   A    
C49   O16   A    
C26   H12   S    
C29   C30   A    
C6    C17   A    
C25   H10   S    
C33   H15   S    
C26   C53   S    
O13   C52   A    
C12   C16   A    
C27   C28   A    
C43   C44   A    
C20   C21   A    
O4    C2    A    
C10   C11   A    
C44   C45   A    
O2    C1    A    
C42   C43   A    
O5    V1    S    
C14   C15   A    
O14   C50   A    
C11   C18   A    
O19   C52   A    
C8    C9    A    
C35   H21   S    
C16   H4    S    
C53   O22   S    
C27   C32   A    
C9    C10   A    
C37   H23   S    
C19   C26   S    
C39   H24   S    
O3    C4    A    
C48   C49   S    
C21   H8    S    
O19   V4    S    
O12   C49   A    
C11   C15   A    
O6    V2    S    
O9    V2    S    
C54   H30   S    
C36   C46   A    
H1    C17   S    
C22   H9    S    
C41   C48   A    
O2    V1    S    
C12   C13   A    
C28   C29   A    
C7    C18   A    
C25   C26   S    
C33   H16   S    
O1    C2    A    
C5    C13   A    
C39   C40   A    
C2    C36   S    
C46   H22   S    
O8    C3    A    
C10   C12   A    
H19   C47   S    
O22   H27   S    
C34   H18   S    
O13   V3    S    
C30   C31   A    
O7    V2    S    
O4    V1    S    
C3    C23   S    
O3    V1    S    
C8    H7    S    
C20   C52   S    
C38   H25   S    
O11   C50   A    
C32   C33   S    
C24   C25   S    
C38   C39   A    
C41   C45   A    
C53   O21   D    
C5    C17   A    
C7    C8    A    
C36   C47   A    
V1    O10   S    
C27   C34   S    
C42   C46   A    
O18   V4    S    
O17   V4    S    
H2    C14   S    
