data_str_m12_o4_o9_f0_bcu.sym.111
_audit_creation_date              2012-12-11T17:10:14-0500
_audit_creation_method            fapswitch 2.2
_symmetry_space_group_name_H-M    P1
_symmetry_Int_Tables_number       1
_space_group_crystal_system       triclinic
_cell_length_a                    14.781741
_cell_length_b                    14.87391
_cell_length_c                    14.826543
_cell_angle_alpha                 109.51097
_cell_angle_beta                  109.560533
_cell_angle_gamma                 108.985434
_cell_volume                      2520.32187979

loop_
_atom_site_label
_atom_site_type_symbol
_atom_type_description
_atom_site_fract_x
_atom_site_fract_y
_atom_site_fract_z
_atom_type_partial_charge
C1    C     C_R   0.186022 0.279579 0.254397 -0.136846
C2    C     C_R   0.450111 0.449600 0.776765 0.076135
C3    C     C_R   0.565265 0.196556 0.498175 0.081178
C4    C     C_R   0.198405 0.571835 0.496926 0.059047
C5    C     C_R   0.474533 0.720703 0.406372 -0.143667
C6    C     C_R   0.815133 0.566230 0.592452 -0.128435
C7    C     C_R   0.493091 0.401090 0.194629 -0.161935
C8    C     C_R   0.703471 0.796491 0.804461 0.569660
C9    C     C_R   0.800768 0.710297 0.805677 -0.219975
C10   C     C_R   0.402351 0.493273 0.193846 -0.136203
C11   C     C_R   0.564367 0.814826 0.590710 -0.122870
C12   C     C_R   0.525433 0.432904 0.747524 -0.142884
C13   C     C_R   0.723123 0.477055 0.408290 -0.124141
C14   C     C_R   0.548518 0.824285 0.497019 0.048941
C15   C     C_R   0.826734 0.555663 0.500740 0.051152
C16   C     C_R   0.429974 0.428608 0.128886 0.079806
C17   C     C_R   0.799632 0.802300 0.869269 -0.098842
C18   C     C_R   0.102565 0.598458 0.183176 -0.129341
C19   C     C_R   0.103326 0.623944 0.283244 -0.148453
C20   C     C_R   0.021660 0.548654 0.289284 0.118772
C21   C     C_R   0.938273 0.448484 0.193206 -0.187864
C22   C     C_R   0.937906 0.423472 0.093368 -0.114826
C23   C     C_R   0.504644 0.200693 0.407766 -0.156683
C24   C     C_R   0.020060 0.498276 0.088404 -0.092972
C25   C     C_R   0.928961 0.569241 0.399333 -0.234259
C26   C     C_R   0.930427 0.606434 0.500123 0.054093
C27   C     C_R   0.033603 0.676791 0.598426 0.030482
C28   C     C_R   0.126035 0.673285 0.595500 -0.234160
C29   C     C_R   0.117750 0.610909 0.495102 0.056970
C30   C     C_R   0.023678 0.575503 0.395834 0.030906
C31   C     C_R   0.995051 0.822122 0.693223 -0.137349
C32   C     C_R   0.012380 0.904004 0.788646 -0.107294
C33   C     C_R   0.083306 0.924771 0.892252 -0.078058
C34   C     C_R   0.291199 0.598910 0.589500 -0.117054
C35   C     C_R   0.135503 0.862368 0.900707 -0.119489
C36   C     C_R   0.118287 0.780123 0.805470 -0.179316
C37   C     C_R   0.048194 0.759484 0.700530 0.113966
C38   C     C_R   0.434597 0.333872 0.866657 0.136325
C39   C     C_R   0.401226 0.399448 0.830607 0.041728
C40   C     C_R   0.332790 0.430685 0.864425 -0.205254
C41   C     C_R   0.327112 0.424723 0.954757 -0.190627
C42   C     C_R   0.388957 0.386382 0.010326 -0.010494
C43   C     C_R   0.425688 0.324250 0.953327 0.149958
C44   C     C_3   0.526462 0.310881 0.989071 -0.002874
C45   C     C_R   0.595345 0.289744 0.590587 -0.141247
C46   C     C_3   0.537699 0.325778 0.896320 -0.592802
C47   C     C_R   0.547992 0.925020 0.393086 0.169341
C48   C     C_R   0.593241 0.924829 0.492515 0.036267
C49   C     C_R   0.666906 0.026628 0.590227 -0.205248
C50   C     C_R   0.670265 0.122098 0.591101 -0.200539
C51   C     C_R   0.600859 0.115224 0.493951 0.030903
C52   C     C_R   0.552267 0.019241 0.393877 0.161393
C53   C     C_3   0.439585 0.957444 0.294670 -0.529223
C54   C     C_3   0.434346 0.854494 0.294088 -0.529026
C55   C     C_R   0.971776 0.080132 0.112061 0.136679
C56   C     C_R   0.199829 0.504755 0.407311 -0.156920
C57   C     C_R   0.067647 0.076765 0.164921 0.038508
C58   C     C_R   0.060344 0.974048 0.141937 -0.228762
C59   C     C_R   0.965328 0.878642 0.050643 -0.193770
C60   C     C_R   0.878709 0.887091 0.983563 0.048032
C61   C     C_R   0.879083 0.986804 0.022536 0.187740
C62   C     C_3   0.852033 0.046723 0.963197 -0.427539
C63   C     C_3   0.953724 0.149025 0.060949 -0.585146
C64   C     C_R   0.434606 0.527000 0.750481 -0.150395
C65   C     C_R   0.276327 0.184898 0.248956 -0.136530
C66   C     C_R   0.173411 0.176008 0.224065 0.069939
H1    H     H_    0.124052 0.303266 0.250767 0.115269
H2    H     H_    0.877795 0.616277 0.678119 0.119110
H3    H     H_    0.512408 0.336912 0.167866 0.091316
H4    H     H_    0.855610 0.680469 0.834823 0.130236
H5    H     H_    0.340121 0.515659 0.165546 0.086451
H6    H     H_    0.617769 0.879145 0.675720 0.133189
H7    H     H_    0.700644 0.446822 0.322691 0.090954
H8    H     H_    0.019747 0.478635 0.011083 0.097268
H9    H     H_    0.166002 0.656314 0.179094 0.106642
H10   H     H_    0.167906 0.701753 0.356136 0.115973
H11   H     H_    0.553157 0.375079 0.750652 0.113965
H12   H     H_    0.874760 0.389148 0.195986 0.108275
H13   H     H_    0.874118 0.345879 0.019907 0.111126
H14   H     H_    0.853564 0.531902 0.322724 0.120691
H15   H     H_    0.203557 0.717911 0.671644 0.118882
H16   H     H_    0.941260 0.808521 0.613638 0.113990
H17   H     H_    0.971474 0.951999 0.782291 0.103506
H18   H     H_    0.097809 0.989323 0.965919 0.122410
H19   H     H_    0.189757 0.878099 0.981170 0.107109
H20   H     H_    0.159289 0.732502 0.813787 0.105309
H21   H     H_    0.296102 0.473134 0.832404 0.124340
H22   H     H_    0.485283 0.153523 0.324006 0.100715
H23   H     H_    0.287113 0.463853 0.988611 0.122452
H24   H     H_    0.597109 0.379728 0.070927 0.102325
H25   H     H_    0.611924 0.404254 0.928594 0.180509
H26   H     H_    0.527210 0.253108 0.830144 0.204921
H27   H     H_    0.710520 0.031462 0.668121 0.124978
H28   H     H_    0.716222 0.196969 0.669628 0.124403
H29   H     H_    0.378107 0.975216 0.312615 0.200181
H30   H     H_    0.441806 0.961638 0.221905 0.187230
H31   H     H_    0.370019 0.814699 0.312184 0.198016
H32   H     H_    0.324485 0.660418 0.673531 0.087976
H33   H     H_    0.432737 0.799151 0.220591 0.188749
H34   H     H_    0.131501 0.968092 0.185101 0.132635
H35   H     H_    0.965575 0.801602 0.026120 0.135569
H36   H     H_    0.858012 0.021631 0.886745 0.173364
H37   H     H_    0.775525 0.049834 0.954074 0.221311
H38   H     H_    0.018036 0.182763 0.040238 0.210453
H39   H     H_    0.934709 0.209532 0.106942 0.200002
H40   H     H_    0.656531 0.321229 0.674540 0.085580
H41   H     H_    0.148431 0.475468 0.321622 0.122191
H42   H     H_    0.380495 0.558899 0.760256 0.094037
H43   H     H_    0.296932 0.120059 0.236284 0.093593
H44   H     H_    0.447333 0.696223 0.320847 0.111513
N1    N     N_R   0.291070 0.347930 0.293870 -0.040635
N2    N     N_R   0.708930 0.502750 0.556810 -0.039677
N3    N     N_R   0.502760 0.445970 0.293860 -0.037941
N4    N     N_R   0.652110 0.708890 0.706130 -0.091005
N5    N     N_R   0.708930 0.652070 0.706130 -0.067937
N6    N     N_R   0.445950 0.502780 0.293850 -0.039808
N7    N     N_R   0.502760 0.708900 0.556790 -0.034826
N8    N     N_R   0.652110 0.445950 0.443190 -0.040692
N9    N     N_R   0.554050 0.497220 0.706150 -0.043587
N10   N     N_R   0.497240 0.291100 0.443210 -0.036461
N11   N     N_R   0.347890 0.554050 0.556810 -0.036089
N12   N     N_R   0.554050 0.347900 0.556830 -0.036906
N13   N     N_R   0.291070 0.497250 0.443190 -0.041958
N14   N     N_R   0.497240 0.554030 0.706140 -0.040851
N15   N     N_R   0.347890 0.291110 0.293870 -0.037791
N16   N     N_R   0.445950 0.652100 0.443170 -0.041670
Ni1   Ni    Ni4+2 0.369690 0.500010 0.369700 0.211353
Ni2   Ni    Ni4+2 0.630310 0.499990 0.630300 0.200911
Ni3   Ni    Ni4+2 0.500000 0.369720 0.369720 0.205405
Ni4   Ni    Ni4+2 0.500000 0.630280 0.630280 0.241427
O1    O     O_3   0.647566 0.845219 0.840423 -0.651637
C67   C     C_3   0.618841 0.811417 0.910130 -0.262194
H45   H     H_    0.628134 0.739899 0.909916 0.134280
H46   H     H_    0.531193 0.788499 0.883510 0.155976
H47   H     H_    0.669450 0.881047 0.995994 0.152387
C68   C     C_3   0.505146 0.196552 0.975418 -0.316831
C69   C     C_3   0.392768 0.100033 0.878833 -0.844110
H48   H     H_    0.324982 0.107207 0.891567 0.253734
H49   H     H_    0.381303 0.096079 0.799453 0.254597
H50   H     H_    0.387701 0.022201 0.873785 0.239871
H51   H     H_    0.571243 0.182323 0.965094 0.190935
H52   H     H_    0.512235 0.196051 0.052057 0.164404

loop_
_geom_bond_atom_site_label_1
_geom_bond_atom_site_label_2
_ccdc_geom_bond_type
C44   C68   S    
C41   H23   S    
C18   H9    S    
C53   H29   S    
C25   H14   S    
C41   C42   A    
C3    C23   A    
C35   C36   A    
C57   C66   S    
C34   H32   S    
C2    C12   A    
N4    N5    A    
C44   H24   S    
C1    C66   A    
C20   C30   S    
C53   C54   S    
C52   C53   S    
C69   H49   S    
C28   C29   A    
C26   C27   A    
N16   Ni1   S    
C31   H16   S    
N3    Ni3   S    
C18   C24   A    
C40   H21   S    
C19   H10   S    
C22   H13   S    
C38   C39   A    
C11   C14   A    
C46   H26   S    
C5    H44   S    
C18   C19   A    
C68   H52   S    
C1    H1    S    
C6    C15   A    
C2    C39   S    
C19   C20   A    
C44   C46   S    
C67   H45   S    
N6    Ni1   S    
C55   C63   S    
C21   H12   S    
N1    N15   A    
C54   H31   S    
C63   H39   S    
N7    N16   A    
N11   Ni4   S    
C4    C29   S    
C8    N4    A    
N3    N6    A    
C10   H5    S    
C6    H2    S    
C59   C60   A    
N9    N14   A    
C21   C22   A    
C4    C56   A    
C53   H30   S    
N4    Ni4   S    
C8    O1    S    
C2    C64   A    
C64   H42   S    
C69   H50   S    
C4    C34   A    
N11   N13   A    
N10   Ni3   S    
C59   H35   S    
C56   N13   A    
C13   N8    A    
C58   H34   S    
C9    H4    S    
C23   N10   A    
C3    C51   S    
C11   H6    S    
C50   H28   S    
C15   C26   S    
C14   C48   S    
C46   H25   S    
C36   H20   S    
C58   C59   A    
C64   N14   A    
C3    C45   A    
N5    Ni2   S    
C51   C52   A    
C60   C61   A    
C9    N5    A    
C5    N16   A    
C43   C44   S    
C56   H41   S    
C29   C30   A    
N15   Ni3   S    
C12   N9    A    
N13   Ni1   S    
C47   C48   A    
C12   H11   S    
C62   C63   S    
C50   C51   A    
N14   Ni4   S    
N7    Ni4   S    
C65   H43   S    
C5    C14   A    
C47   C54   S    
C9    C17   A    
C40   C41   A    
C13   H7    S    
C49   C50   A    
C34   N11   A    
C23   H22   S    
C13   C15   A    
N1    Ni1   S    
C22   C24   A    
C54   H33   S    
C42   C43   A    
O1    C67   S    
C11   N7    A    
C16   C42   S    
C39   C40   A    
C10   N6    A    
C45   H40   S    
N10   N12   A    
C62   H37   S    
C25   C30   A    
C32   H17   S    
C36   C37   A    
C28   H15   S    
C6    N2    A    
C31   C32   A    
C7    C16   A    
C63   H38   S    
C7    H3    S    
C47   C52   A    
C45   N12   A    
C69   H48   S    
C8    C17   A    
C32   C33   A    
C7    N3    A    
C55   C57   A    
C25   C26   A    
C38   C43   A    
N8    Ni3   S    
C10   C16   A    
N9    Ni2   S    
C38   C46   S    
N2    N8    A    
C35   H19   S    
C24   H8    S    
C57   C58   A    
C27   C37   S    
C67   H47   S    
C48   C49   A    
C55   C61   A    
C33   C35   A    
C68   H51   S    
N12   Ni2   S    
C61   C62   S    
C33   H18   S    
N2    Ni2   S    
C17   C60   S    
C31   C37   A    
C20   C21   A    
C67   H46   S    
C65   C66   A    
C27   C28   A    
C68   C69   S    
C49   H27   S    
C1    N1    A    
C65   N15   A    
C62   H36   S    
