data_str_m9_o2_o19_f0_sra.sym.115
_audit_creation_date              2012-12-11T16:28:22-0500
_audit_creation_method            fapswitch 2.2
_symmetry_space_group_name_H-M    P1
_symmetry_Int_Tables_number       1
_space_group_crystal_system       triclinic
_cell_length_a                    16.690161
_cell_length_b                    7.248646
_cell_length_c                    15.127203
_cell_angle_alpha                 89.999836
_cell_angle_beta                  94.581405
_cell_angle_gamma                 89.999766
_cell_volume                      1824.25773325

loop_
_atom_site_label
_atom_site_type_symbol
_atom_type_description
_atom_site_fract_x
_atom_site_fract_y
_atom_site_fract_z
_atom_type_partial_charge
O1    O     O_R   0.663460 0.361760 0.165970 -0.518668
O2    O     O_R   0.336540 0.638240 0.834030 -0.518673
O3    O     O_R   0.836540 0.861760 0.334030 -0.518670
O4    O     O_R   0.163460 0.138240 0.665970 -0.518668
O5    O     O_R   0.827100 0.689870 0.163730 -0.540443
O6    O     O_R   0.172900 0.310130 0.836270 -0.540442
O7    O     O_R   0.672900 0.189870 0.336270 -0.540442
O8    O     O_R   0.327100 0.810130 0.663730 -0.540443
C1    C     C_R   0.853799 0.523110 0.144165 0.759700
C2    C     C_R   0.146200 0.476890 0.855834 0.759706
C3    C     C_R   0.646200 0.023110 0.355834 0.759707
C4    C     C_R   0.353799 0.976889 0.644165 0.759702
O9    O     O_R   0.663490 0.691370 0.155500 -0.543999
O10   O     O_R   0.336510 0.308630 0.844500 -0.543996
O11   O     O_R   0.836510 0.191370 0.344500 -0.543998
O12   O     O_R   0.163490 0.808630 0.655500 -0.544000
O13   O     O_R   0.671770 0.863320 0.325740 -0.526117
O14   O     O_R   0.328230 0.136680 0.674260 -0.526115
O15   O     O_R   0.828230 0.363320 0.174260 -0.526116
O16   O     O_R   0.171770 0.636680 0.825740 -0.526117
C5    C     C_R   0.636619 0.521720 0.132888 0.800777
C6    C     C_R   0.363381 0.478280 0.867112 0.800783
C7    C     C_R   0.863382 0.021719 0.367111 0.800775
C8    C     C_R   0.136619 0.978281 0.632888 0.800773
O17   O     O_3   0.752910 0.528800 0.305860 -0.375410
O18   O     O_3   0.247090 0.471200 0.694140 -0.375409
O19   O     O_3   0.747090 0.028800 0.194140 -0.375409
O20   O     O_3   0.252910 0.971200 0.805860 -0.375411
V1    V     V_3+5 0.749460 0.803010 0.239640 1.461549
V2    V     V_3+5 0.250540 0.196990 0.760360 1.461554
V3    V     V_3+5 0.750540 0.303010 0.260360 1.461552
V4    V     V_3+5 0.249460 0.696990 0.739640 1.461547
C9    C     C_1   0.469019 0.994652 0.530335 0.039607
C10   C     C_1   0.530981 0.005348 0.469664 0.039606
C11   C     C_1   0.030981 0.494652 0.969664 0.039604
C12   C     C_1   0.969018 0.505347 0.030335 0.039602
H1    H     H_    0.779533 0.768192 0.651732 0.122791
H2    H     H_    0.220469 0.231796 0.348264 0.122791
H3    H     H_    0.720460 0.268134 0.848273 0.122797
H4    H     H_    0.279536 0.731842 0.151725 0.122796
C13   C     C_R   0.029899 0.069782 0.317935 0.087061
C14   C     C_R   0.970102 0.930207 0.682064 0.087065
C15   C     C_R   0.470105 0.569828 0.182062 0.087074
C16   C     C_R   0.529895 0.430180 0.817939 0.087068
C17   C     C_R   0.102615 0.150994 0.298080 0.377395
C18   C     C_R   0.897388 0.848989 0.701917 0.377391
C19   C     C_R   0.397392 0.651056 0.201911 0.377388
C20   C     C_R   0.602606 0.348942 0.798087 0.377390
C21   C     C_R   0.163669 0.174261 0.364921 -0.323996
C22   C     C_R   0.836333 0.825729 0.635076 -0.323996
C23   C     C_R   0.336335 0.674301 0.135070 -0.323993
C24   C     C_R   0.663662 0.325684 0.864929 -0.323997
C25   C     C_R   0.155030 0.114602 0.451577 0.316255
C26   C     C_R   0.844970 0.885398 0.548422 0.316259
C27   C     C_R   0.344971 0.614611 0.048420 0.316262
C28   C     C_R   0.655027 0.385375 0.951580 0.316259
C29   C     C_R   0.078566 0.050611 0.476340 0.009117
C30   C     C_R   0.921435 0.949389 0.523659 0.009116
C31   C     C_R   0.421435 0.550619 0.023658 0.009117
C32   C     C_R   0.578565 0.449377 0.976342 0.009116
C33   C     C_R   0.012888 0.042521 0.409192 -0.087220
C34   C     C_R   0.987113 0.957476 0.590807 -0.087220
C35   C     C_R   0.487114 0.542540 0.090806 -0.087220
C36   C     C_R   0.512886 0.457462 0.909195 -0.087221
C37   C     C_R   0.066423 0.995672 0.565610 -0.109292
C38   C     C_R   0.933577 0.004328 0.434389 -0.109293
C39   C     C_R   0.433577 0.495668 0.934390 -0.109298
C40   C     C_R   0.566423 0.504332 0.065610 -0.109295
C41   C     C_1   0.416452 0.985938 0.581974 -0.180115
C42   C     C_1   0.583547 0.014062 0.418026 -0.180116
C43   C     C_1   0.083547 0.485939 0.918025 -0.180120
C44   C     C_1   0.916452 0.514061 0.081974 -0.180119
O21   O     O_3   0.221085 0.123687 0.512375 -0.646645
H5    H     H_    0.268542 0.171243 0.484051 0.284514
O22   O     O_3   0.778914 0.876326 0.487626 -0.646646
H6    H     H_    0.731457 0.828771 0.515950 0.284513
O23   O     O_3   0.278912 0.623660 0.987627 -0.646650
H7    H     H_    0.231454 0.671215 0.015951 0.284514
O24   O     O_3   0.721085 0.376314 0.012375 -0.646647
H8    H     H_    0.768542 0.328753 0.984051 0.284516
O25   O     O_3   0.113585 0.201657 0.211635 -0.646000
H9    H     H_    0.167729 0.256758 0.208897 0.289318
O26   O     O_3   0.886419 0.798316 0.788360 -0.646002
H10   H     H_    0.832277 0.743201 0.791096 0.289319
O27   O     O_3   0.386426 0.701751 0.288352 -0.646003
H11   H     H_    0.332280 0.756847 0.291088 0.289320
O28   O     O_3   0.613572 0.298251 0.711645 -0.645999
H12   H     H_    0.667714 0.243133 0.708909 0.289318
C45   C     C_3   0.978740 0.989654 0.239800 -0.666059
H13   H     H_    0.959511 0.848058 0.255808 0.183132
H14   H     H_    0.927081 0.080447 0.219949 0.203686
H15   H     H_    0.012728 0.972001 0.180220 0.229063
C46   C     C_3   0.021261 0.010330 0.760200 -0.666061
H16   H     H_    0.040490 0.151926 0.744196 0.183132
H17   H     H_    0.987272 0.027975 0.819781 0.229064
H18   H     H_    0.072919 0.919534 0.780050 0.203688
C47   C     C_3   0.521259 0.489705 0.260200 -0.666078
H19   H     H_    0.540483 0.348103 0.244200 0.183128
H20   H     H_    0.572920 0.580486 0.280048 0.203695
H21   H     H_    0.487270 0.472075 0.319781 0.229064
C48   C     C_3   0.478743 0.510320 0.739802 -0.666072
H22   H     H_    0.459515 0.651915 0.755808 0.183129
H23   H     H_    0.512737 0.527972 0.680226 0.229058
H24   H     H_    0.427084 0.419535 0.719945 0.203695

loop_
_geom_bond_atom_site_label_1
_geom_bond_atom_site_label_2
_ccdc_geom_bond_type
O17   V3    S    
C13   C45   S    
O28   H12   S    
O1    C5    A    
C48   H22   S    
C27   C31   A    
O19   V1    S    
C14   C46   S    
O13   V1    S    
O21   H5    S    
O3    C7    A    
C11   C12   S    
C1    C44   S    
C13   C33   A    
C4    C41   S    
O15   V3    S    
C47   H19   S    
C3    C42   S    
C15   C35   A    
H2    C21   S    
O27   H11   S    
C16   C36   A    
O7    C3    A    
C46   H16   S    
C28   O24   S    
C19   O27   S    
C7    C38   S    
O9    V1    S    
C26   C30   A    
O4    C8    A    
O1    V3    S    
O2    V4    S    
C14   C18   A    
O3    V1    S    
C31   C39   A    
C33   C38   A    
C30   C38   A    
C2    O16   A    
O2    C6    A    
O14   V2    S    
C45   H14   S    
C10   C42   T    
C9    C41   T    
C2    C43   S    
O11   C7    A    
H3    C24   S    
C11   C43   T    
O12   C8    A    
O10   V2    S    
C47   H20   S    
C1    O15   A    
O25   H9    S    
O5    V1    S    
C25   O21   S    
O7    V3    S    
O8    V4    S    
C36   C39   A    
C25   C29   A    
O18   V4    S    
C19   C23   A    
O23   H7    S    
O24   H8    S    
O22   H6    S    
O5    C1    A    
O26   H10   S    
C17   C21   A    
O8    C4    A    
C9    C10   S    
C20   O28   S    
O9    C5    A    
C22   C26   A    
C45   H15   S    
O11   V3    S    
C30   C34   A    
C8    C37   S    
O6    V2    S    
C46   H18   S    
C5    C40   S    
C47   H21   S    
O16   V4    S    
C14   C34   A    
C35   C40   A    
C3    O13   A    
C34   C37   A    
C17   O25   S    
C15   C47   S    
C29   C37   A    
O6    C2    A    
C16   C48   S    
C29   C33   A    
O12   V4    S    
H4    C23   S    
C18   C22   A    
C31   C35   A    
C32   C36   A    
O10   C6    A    
O20   V2    S    
C16   C20   A    
H1    C22   S    
C46   H17   S    
C21   C25   A    
C23   C27   A    
C6    C39   S    
C18   O26   S    
C12   C44   T    
C20   C24   A    
C28   C32   A    
C32   C40   A    
C48   H23   S    
C4    O14   A    
C13   C17   A    
C48   H24   S    
C45   H13   S    
C15   C19   A    
C27   O23   S    
O4    V2    S    
C24   C28   A    
C26   O22   S    
