data_str_m3_o41_o41_f0_fof.sym.95
_audit_creation_date              2012-12-10T16:39:40-0500
_audit_creation_method            fapswitch 2.2
_symmetry_space_group_name_H-M    P1
_symmetry_Int_Tables_number       1
_space_group_crystal_system       triclinic
_cell_length_a                    16.781889
_cell_length_b                    16.908098
_cell_length_c                    16.842637
_cell_angle_alpha                 66.010967
_cell_angle_beta                  65.688794
_cell_angle_gamma                 65.813385
_cell_volume                      3806.83585356

loop_
_atom_site_label
_atom_site_type_symbol
_atom_type_description
_atom_site_fract_x
_atom_site_fract_y
_atom_site_fract_z
_atom_type_partial_charge
C1    C     C_R   0.326120 0.950673 0.459327 0.060570
C2    C     C_R   0.322509 0.452745 0.968195 0.064583
C3    C     C_R   0.522532 0.397240 0.047827 0.033527
C4    C     C_R   0.077476 0.436105 0.567531 0.031649
C5    C     C_R   0.067498 0.520463 0.388765 0.034246
C6    C     C_R   0.077209 0.668789 0.534826 0.058512
C7    C     C_R   0.028792 0.300950 0.434117 0.059236
C8    C     C_R   0.456823 0.983487 0.456601 -0.052231
C9    C     C_R   0.537866 0.035475 0.538461 -0.053565
C10   C     C_R   0.057122 0.433125 0.433157 -0.048901
C11   C     C_R   0.077966 0.526862 0.526426 -0.053166
C12   C     C_R   0.443697 0.446380 0.018603 -0.050770
C13   C     C_R   0.531192 0.534920 0.053976 -0.052772
C14   C     C_R   0.983212 0.174989 0.430773 0.923753
C15   C     C_R   0.671350 0.061322 0.538232 0.058259
C16   C     C_R   0.037731 0.820699 0.562175 0.910480
C17   C     C_R   0.179483 0.436953 0.965165 0.887846
C18   C     C_R   0.820409 0.561729 0.038874 0.928992
C19   C     C_R   0.437164 0.964516 0.179391 0.897028
C20   C     C_R   0.562187 0.037401 0.820609 0.935706
C21   C     C_R   0.562698 0.820932 0.036330 0.919608
C22   C     C_R   0.430383 0.175394 0.982072 0.923701
C23   C     C_R   0.037859 0.562165 0.820690 0.910643
C24   C     C_R   0.983433 0.430745 0.174842 0.921405
C25   C     C_R   0.820493 0.037799 0.562104 0.934914
C26   C     C_R   0.029786 0.433225 0.300593 0.057364
C27   C     C_R   0.179510 0.963971 0.437326 0.894771
C28   C     C_R   0.414508 0.961283 0.413980 0.063003
C29   C     C_R   0.581785 0.053669 0.582572 0.068501
C30   C     C_R   0.037479 0.389516 0.389735 0.063331
C31   C     C_R   0.078502 0.576882 0.576317 0.073038
C32   C     C_R   0.401080 0.402710 0.998460 0.064642
C33   C     C_R   0.578375 0.581505 0.063993 0.069993
C34   C     C_R   0.278593 0.944399 0.408923 -0.106813
C35   C     C_R   0.720903 0.061156 0.590306 -0.121783
C36   C     C_R   0.997656 0.392358 0.263623 -0.096284
C37   C     C_R   0.077982 0.535427 0.668252 0.056715
C38   C     C_R   0.063460 0.590878 0.721261 -0.118954
C39   C     C_R   0.394443 0.268150 0.983384 -0.100342
C40   C     C_R   0.590637 0.722536 0.059609 -0.116155
C41   C     C_R   0.590026 0.060339 0.721499 -0.120622
C42   C     C_R   0.409040 0.945452 0.278000 -0.105879
C43   C     C_R   0.720348 0.590578 0.063721 -0.123546
C44   C     C_R   0.276764 0.404972 0.955849 -0.107230
C45   C     C_R   0.063032 0.721554 0.590587 -0.118387
C46   C     C_R   0.997150 0.263790 0.392766 -0.097618
C47   C     C_R   0.444165 0.062078 0.710166 -0.243127
C48   C     C_R   0.434981 0.308500 0.011645 0.051880
C49   C     C_R   0.552240 0.953610 0.286556 -0.251102
C50   C     C_R   0.090700 0.703473 0.439472 -0.251641
C51   C     C_R   0.054417 0.253748 0.516112 -0.245602
C52   C     C_R   0.700032 0.441629 0.089530 -0.247042
C53   C     C_R   0.290702 0.547507 0.955230 -0.250156
C54   C     C_R   0.288145 0.949579 0.552284 -0.249027
C55   C     C_R   0.708557 0.065580 0.444586 -0.242526
C56   C     C_R   0.507245 0.259073 0.052705 -0.244402
C57   C     C_R   0.444292 0.712128 0.061655 -0.244626
C58   C     C_R   0.056624 0.514295 0.252573 -0.244884
C59   C     C_R   0.536945 0.673237 0.062611 0.057691
C60   C     C_R   0.092209 0.440386 0.702995 -0.250517
C61   C     C_R   0.322678 0.936055 0.322381 -0.319311
C62   C     C_R   0.677707 0.066730 0.678035 -0.304814
C63   C     C_R   0.978879 0.311674 0.311671 -0.332982
C64   C     C_R   0.060701 0.680704 0.680582 -0.301998
C65   C     C_R   0.318228 0.317109 0.954473 -0.318600
C66   C     C_R   0.678920 0.679615 0.064213 -0.304143
C67   C     C_R   0.668642 0.041031 0.403164 0.112660
C68   C     C_R   0.326005 0.978486 0.591807 0.108624
C69   C     C_R   0.088721 0.391625 0.654719 0.111476
C70   C     C_R   0.537710 0.059809 0.672441 0.059092
C71   C     C_R   0.070474 0.559801 0.297010 0.099019
C72   C     C_R   0.403978 0.671304 0.037428 0.109720
C73   C     C_R   0.554354 0.303057 0.065062 0.102278
C74   C     C_R   0.591170 0.982728 0.324825 0.106956
C75   C     C_R   0.403301 0.037037 0.670105 0.111832
C76   C     C_R   0.327356 0.588899 0.983315 0.109035
C77   C     C_R   0.650517 0.394253 0.084982 0.110795
C78   C     C_R   0.069226 0.298169 0.561007 0.099472
C79   C     C_R   0.088075 0.654670 0.390612 0.111224
C80   C     C_R   0.714350 0.029513 0.315869 -0.201965
C81   C     C_R   0.459545 0.952471 0.325102 0.060221
C82   C     C_R   0.279353 0.992022 0.678282 -0.214040
C83   C     C_R   0.095176 0.299100 0.692637 -0.201366
C84   C     C_R   0.086918 0.644620 0.251012 -0.196833
C85   C     C_R   0.321804 0.719321 0.014710 -0.200761
C86   C     C_R   0.632911 0.254315 0.094588 -0.196416
C87   C     C_R   0.676976 0.998334 0.277976 -0.217061
C88   C     C_R   0.316663 0.023331 0.716124 -0.200719
C89   C     C_R   0.285641 0.679452 0.984454 -0.213620
C90   C     C_R   0.681659 0.299716 0.102611 -0.203473
C91   C     C_R   0.085821 0.252678 0.646046 -0.196022
C92   C     C_R   0.667750 0.537131 0.072393 0.059586
C93   C     C_R   0.095053 0.691906 0.297573 -0.202152
C94   C     C_R   0.543342 0.997733 0.410418 0.035001
C95   C     C_R   0.450802 0.022543 0.584160 0.032099
C96   C     C_R   0.067143 0.389354 0.520859 0.034182
C97   C     C_R   0.077349 0.567543 0.435439 0.031959
C98   C     C_R   0.406106 0.538904 0.012014 0.033226
C99   C     C_R   0.568572 0.442274 0.061479 0.032113
C100  C     C_R   0.583311 0.024612 0.450784 0.031934
C101  C     C_R   0.410883 0.995597 0.543803 0.034037
C102  C     C_R   0.447291 0.581764 0.034162 0.032505
H1    H     H_    0.285596 0.931325 0.285535 0.189538
H2    H     H_    0.089350 0.181723 0.677587 0.134916
H3    H     H_    0.743645 0.260902 0.122508 0.135007
H4    H     H_    0.223893 0.718636 0.964178 0.130879
H5    H     H_    0.213199 0.980140 0.715850 0.128319
H6    H     H_    0.780337 0.041746 0.278161 0.131379
H7    H     H_    0.658214 0.181334 0.108853 0.140023
H8    H     H_    0.287693 0.788829 0.016623 0.131217
H9    H     H_    0.091047 0.675523 0.179600 0.135991
H10   H     H_    0.105490 0.263070 0.759142 0.132983
H11   H     H_    0.401074 0.083127 0.770581 0.173717
H12   H     H_    0.716306 0.066561 0.716343 0.194157
H13   H     H_    0.597162 0.930480 0.227758 0.178820
H14   H     H_    0.104840 0.767579 0.401201 0.171566
H15   H     H_    0.065565 0.182160 0.547080 0.188326
H16   H     H_    0.761987 0.402759 0.109106 0.168539
H17   H     H_    0.238235 0.591105 0.922222 0.172753
H18   H     H_    0.229914 0.925142 0.596585 0.175769
H19   H     H_    0.768630 0.087595 0.402089 0.172540
H20   H     H_    0.527779 0.186305 0.077691 0.183376
H21   H     H_    0.400991 0.773886 0.079243 0.176111
H22   H     H_    0.069440 0.543953 0.180339 0.188928
H23   H     H_    0.951953 0.283805 0.283631 0.189002
H24   H     H_    0.107303 0.402382 0.766886 0.170927
H25   H     H_    0.049301 0.721718 0.721894 0.196240
H26   H     H_    0.286346 0.284264 0.937324 0.188889
H27   H     H_    0.718978 0.718780 0.059596 0.195025
H28   H     H_    0.279077 0.034000 0.782625 0.129805
H29   H     H_    0.714375 0.988105 0.211279 0.130468
H30   H     H_    0.105066 0.758290 0.261189 0.133046
O1    O     O_R   0.982940 0.138950 0.510160 -0.650835
O2    O     O_R   0.982940 0.510160 0.138950 -0.650697
O3    O     O_R   0.861050 0.017060 0.489840 -0.633082
O4    O     O_R   0.138950 0.982940 0.510160 -0.654760
O5    O     O_R   0.867700 0.025880 0.612340 -0.617337
O6    O     O_R   0.132300 0.974120 0.387660 -0.634519
O7    O     O_R   0.025880 0.612340 0.867700 -0.628865
O8    O     O_R   0.974120 0.387660 0.132300 -0.635572
O9    O     O_R   0.612340 0.867700 0.025880 -0.628562
O10   O     O_R   0.387660 0.132300 0.974120 -0.636802
O11   O     O_R   0.387660 0.974120 0.132300 -0.633969
O12   O     O_R   0.017060 0.861050 0.489840 -0.631860
O13   O     O_R   0.612340 0.025880 0.867700 -0.617162
O14   O     O_R   0.132300 0.387660 0.974120 -0.632756
O15   O     O_R   0.867700 0.612340 0.025880 -0.618257
O16   O     O_R   0.974120 0.132300 0.387660 -0.634722
O17   O     O_R   0.025880 0.867700 0.612340 -0.629478
O18   O     O_R   0.138950 0.510160 0.982940 -0.653039
O19   O     O_R   0.861050 0.489840 0.017060 -0.626609
O20   O     O_R   0.510160 0.982940 0.138950 -0.657110
O21   O     O_R   0.489840 0.017060 0.861050 -0.636132
O22   O     O_R   0.489840 0.861050 0.017060 -0.639647
O23   O     O_R   0.510160 0.138950 0.982940 -0.645485
O24   O     O_R   0.017060 0.489840 0.861050 -0.630236
Zn1   Zn    Zn3+2 0.004880 0.004880 0.583590 0.919552
Zn2   Zn    Zn3+2 0.995120 0.995120 0.416410 0.926301
Zn3   Zn    Zn3+2 0.004880 0.583590 0.004880 0.918855
Zn4   Zn    Zn3+2 0.995120 0.416410 0.995120 0.930879
Zn5   Zn    Zn3+2 0.583590 0.004880 0.004880 0.924941
Zn6   Zn    Zn3+2 0.416410 0.995120 0.995120 0.920023

loop_
_geom_bond_atom_site_label_1
_geom_bond_atom_site_label_2
_ccdc_geom_bond_type
C55   H19   S    
O9    Zn5   S    
C6    C45   A    
C54   H18   S    
C32   C48   A    
C74   C94   A    
C17   O18   A    
C79   C93   A    
C88   H28   S    
C91   H2    S    
O15   Zn3   S    
C50   C79   A    
C20   C41   S    
C75   C95   A    
C14   C46   S    
O23   Zn5   S    
C21   C40   S    
C24   C36   S    
C72   C102  A    
C27   O4    A    
C23   O7    A    
C61   H1    S    
C62   H12   S    
C80   C87   A    
C47   H11   S    
C58   C71   A    
C57   C59   A    
O14   Zn4   S    
C87   H29   S    
C14   O16   A    
C2    C32   A    
C49   C81   A    
O6    Zn2   S    
C3    C12   A    
C4    C96   A    
C78   C96   A    
C89   H4    S    
C1    C28   A    
C21   O22   A    
C77   C99   A    
C16   O17   A    
C10   C96   A    
C74   C87   A    
C35   C62   A    
C93   H30   S    
C8    C101  A    
C9    C95   A    
O11   Zn6   S    
C12   C98   A    
O20   Zn5   S    
C19   C42   S    
C9    C29   A    
C76   C89   A    
C66   H27   S    
O2    Zn3   S    
C11   C31   A    
C33   C59   A    
C40   C59   A    
C40   C66   A    
C23   O24   A    
C12   C32   A    
C39   C65   A    
C44   C65   A    
C42   C81   A    
C41   C62   A    
C3    C73   A    
C15   C35   A    
C4    C69   A    
C79   C97   A    
C1    C34   A    
C15   C29   A    
C38   C64   A    
C22   O23   A    
C27   C34   S    
C83   H10   S    
C77   C90   A    
C84   H9    S    
O18   Zn3   S    
C27   O6    A    
C7    C46   A    
O24   Zn4   S    
C86   H7    S    
C8    C94   A    
C68   C101  A    
C85   H8    S    
C20   O21   A    
C33   C92   A    
C2    C44   A    
C85   C89   A    
C52   C77   A    
C98   C102  A    
C34   C61   A    
C24   O8    A    
C31   C37   A    
C15   C55   A    
C13   C99   A    
C25   O5    A    
C1    C54   A    
C65   H26   S    
C47   C70   A    
C13   C33   A    
C37   C38   A    
C69   C83   A    
C57   H21   S    
C10   C30   A    
C94   C100  A    
C64   H25   S    
C22   O10   A    
C50   H14   S    
C19   O20   A    
O16   Zn2   S    
C82   H5    S    
C6    C50   A    
C4    C11   A    
C26   C58   A    
C42   C61   A    
C63   H23   S    
C67   C100  A    
C25   C35   S    
O4    Zn1   S    
C26   C36   A    
C49   H13   S    
C5    C97   A    
C18   O15   A    
C9    C100  A    
C86   C90   A    
C8    C28   A    
C52   C92   A    
C53   C76   A    
O12   Zn2   S    
C18   O19   A    
C36   C63   A    
C71   C84   A    
C7    C51   A    
C24   O2    A    
C48   C56   A    
C19   O11   A    
C56   C73   A    
C16   O12   A    
C28   C81   A    
C49   C74   A    
O22   Zn6   S    
C67   C80   A    
C90   H3    S    
C47   C75   A    
C2    C53   A    
C16   C45   S    
O10   Zn6   S    
C55   C67   A    
C53   H17   S    
C26   C30   A    
C14   O1    A    
C78   C91   A    
C23   C38   S    
C83   C91   A    
C80   H6    S    
C45   C64   A    
C58   H22   S    
C43   C92   A    
O5    Zn1   S    
O21   Zn6   S    
C11   C97   A    
C68   C82   A    
O19   Zn4   S    
C60   H24   S    
C17   O14   A    
C17   C44   S    
C21   O9    A    
C5    C10   A    
C5    C71   A    
C18   C43   S    
O8    Zn4   S    
C72   C85   A    
C46   C63   A    
O13   Zn5   S    
C60   C69   A    
C43   C66   A    
C82   C88   A    
C22   C39   S    
C51   H15   S    
C6    C31   A    
C29   C70   A    
O1    Zn1   S    
C84   C93   A    
C57   C72   A    
C25   O3    A    
C73   C86   A    
C51   C78   A    
C37   C60   A    
O7    Zn3   S    
C3    C99   A    
C75   C88   A    
C54   C68   A    
C7    C30   A    
O3    Zn2   S    
C20   O13   A    
C41   C70   A    
O17   Zn1   S    
C13   C102  A    
C76   C98   A    
C95   C101  A    
C56   H20   S    
C39   C48   A    
C52   H16   S    
