data_str_m3_o4_o17_f0_pcu.sym.70
_audit_creation_date              2012-12-10T20:31:08-0500
_audit_creation_method            fapswitch 2.2
_symmetry_space_group_name_H-M    P1
_symmetry_Int_Tables_number       1
_space_group_crystal_system       triclinic
_cell_length_a                    14.963899
_cell_length_b                    10.720781
_cell_length_c                    9.861719
_cell_angle_alpha                 89.751384
_cell_angle_beta                  89.976401
_cell_angle_gamma                 89.435938
_cell_volume                      1581.97148893

loop_
_atom_site_label
_atom_site_type_symbol
_atom_type_description
_atom_site_fract_x
_atom_site_fract_y
_atom_site_fract_z
_atom_type_partial_charge
C1    C     C_R   0.498650 0.260451 0.500286 0.946626
C2    C     C_R   0.188384 0.416882 0.585225 -0.277114
C3    C     C_R   0.232187 0.500951 0.501521 -0.034617
C4    C     C_R   0.327162 0.500260 0.500127 0.867674
C5    C     C_R   0.186268 0.587611 0.422859 -0.259098
C6    C     C_R   0.541580 0.062815 0.602917 0.113651
C7    C     C_R   0.500168 0.128946 0.498731 -0.114450
C8    C     C_R   0.467355 0.067572 0.384726 -0.262350
C9    C     C_R   0.467372 0.938658 0.381348 0.192182
C10   C     C_R   0.501480 0.872100 0.494547 -0.124482
C11   C     C_R   0.543111 0.935178 0.599996 -0.014570
C12   C     C_R   0.907427 0.598767 0.433874 0.111797
C13   C     C_3   0.531358 0.923576 0.750310 -0.283519
C14   C     C_3   0.525967 0.066342 0.753038 -0.305434
C15   C     C_R   0.421542 0.494659 0.071334 0.211882
C16   C     C_R   0.498635 0.739916 0.499119 0.884967
C17   C     C_R   0.577097 0.514259 0.071756 -0.063980
C18   C     C_R   0.577151 0.513591 0.928001 0.036348
C19   C     C_R   0.421519 0.494892 0.928728 0.217046
C20   C     C_3   0.354792 0.392664 0.923438 -0.501474
C21   C     C_3   0.354999 0.392198 0.077395 -0.481607
C22   C     C_R   0.672945 0.502023 0.499870 0.940621
C23   C     C_R   0.955880 0.327170 0.663481 -0.187143
C24   C     C_R   0.813813 0.601159 0.435928 -0.101428
C25   C     C_R   0.768928 0.502313 0.499970 -0.167798
C26   C     C_R   0.814687 0.408240 0.572887 -0.045951
C27   C     C_R   0.907853 0.414083 0.583959 -0.007303
C28   C     C_R   0.954156 0.506633 0.510487 0.028852
C29   C     C_2   0.762253 0.708924 0.378219 0.343975
C30   C     C_3   0.479190 0.869287 0.150074 -0.616444
C31   C     C_2   0.612760 0.864474 0.814778 0.470733
C32   C     C_2   0.599050 0.132161 0.828408 0.519575
C33   C     C_2   0.764729 0.302702 0.634360 0.418820
C34   C     C_R   0.048840 0.329730 0.671757 -0.011626
C35   C     C_2   0.094625 0.240752 0.766032 0.397436
C36   C     C_R   0.095370 0.417102 0.591375 0.027552
C37   C     C_R   0.047728 0.505432 0.510790 0.083480
C38   C     C_R   0.094017 0.591622 0.428102 0.132922
C39   C     C_R   0.047823 0.679803 0.350492 -0.236356
C40   C     C_R   0.955494 0.683933 0.353685 -0.139912
H1    H     H_    0.467371 0.878766 0.779745 0.187653
H2    H     H_    0.228416 0.349529 0.640630 0.124106
H3    H     H_    0.222657 0.652920 0.359611 0.145436
H4    H     H_    0.083188 0.745387 0.286514 0.158219
H5    H     H_    0.922505 0.751828 0.289042 0.193576
H6    H     H_    0.437696 0.119178 0.300992 0.165256
H7    H     H_    0.703793 0.694152 0.315776 0.096032
H8    H     H_    0.361995 0.913180 0.250443 0.209332
H9    H     H_    0.490553 0.963657 0.106552 0.233432
H10   H     H_    0.444411 0.811722 0.073457 0.224579
H11   H     H_    0.544646 0.824275 0.173400 0.273608
H12   H     H_    0.457838 0.101677 0.778766 0.168770
H13   H     H_    0.679248 0.885876 0.777736 0.080340
H14   H     H_    0.668728 0.112518 0.806082 0.064380
H15   H     H_    0.774696 0.277532 0.739897 0.043490
H16   H     H_    0.160987 0.258794 0.804463 0.050354
H17   H     H_    0.639555 0.524393 0.125352 0.142379
H18   H     H_    0.639680 0.522987 0.874229 0.147430
H19   H     H_    0.290134 0.424806 0.879491 0.196259
H20   H     H_    0.382565 0.305594 0.878474 0.223360
H21   H     H_    0.290415 0.423779 0.121899 0.205627
H22   H     H_    0.383138 0.304921 0.122226 0.218666
H23   H     H_    0.921443 0.257319 0.722306 0.178987
N1    N     N_R   0.499390 0.499140 0.142800 -0.117370
N2    N     N_R   0.499390 0.499180 0.857150 -0.110388
N3    N     N_2   0.424903 0.877732 0.271126 -0.313331
O1    O     O_R   0.500010 0.316790 0.614690 -0.610290
O2    O     O_2   0.604600 0.791661 0.909067 -0.620381
O3    O     O_2   0.580208 0.208307 0.915708 -0.593280
O4    O     O_2   0.712571 0.242642 0.566188 -0.575283
O5    O     O_2   0.057497 0.146043 0.804623 -0.558093
O6    O     O_R   0.500000 0.316760 0.385350 -0.607412
O7    O     O_R   0.367850 0.499990 0.614680 -0.629664
O8    O     O_R   0.367840 0.499950 0.385340 -0.627928
O9    O     O_R   0.500000 0.683240 0.614650 -0.620606
O10   O     O_R   0.499990 0.683210 0.385310 -0.604933
O11   O     O_R   0.632160 0.500050 0.614660 -0.622354
O12   O     O_R   0.632150 0.500010 0.385320 -0.638392
O13   O     O_2   0.783185 0.815915 0.404608 -0.546049
Zn1   Zn    Zn3+2 0.500010 0.500020 0.653130 0.983446
Zn2   Zn    Zn3+2 0.499990 0.499980 0.346870 0.971556

loop_
_geom_bond_atom_site_label_1
_geom_bond_atom_site_label_2
_ccdc_geom_bond_type
C33   H15   S    
C30   H11   S    
C16   O9    A    
C19   C20   S    
C13   H1    S    
C7    C8    A    
C18   N2    A    
C15   C19   A    
C26   C27   A    
C12   C28   A    
C36   C37   A    
C17   N1    A    
C38   C39   A    
C34   C35   S    
C9    N3    S    
C24   C29   S    
C18   H18   S    
C14   H12   S    
C8    C9    A    
C22   C25   S    
C15   N1    A    
C23   C27   A    
C20   H20   S    
C9    C10   A    
C4    O8    A    
O6    Zn2   S    
C23   H23   S    
C5    H3    S    
C35   O5    D    
N2    Zn1   S    
C16   O10   A    
C5    C38   A    
C40   H5    S    
C32   H14   S    
C31   O2    D    
C1    O6    A    
C24   C25   A    
C22   O12   A    
C39   C40   A    
C25   C26   A    
C12   C40   A    
C37   C38   A    
C6    C14   S    
C26   C33   S    
C29   O13   D    
C23   C34   A    
C17   C18   A    
C21   H22   S    
C31   H13   S    
C20   H19   S    
C4    O7    A    
C30   N3    S    
C33   O4    D    
C30   H9    S    
C29   H7    S    
C39   H4    S    
C3    C4    S    
C6    C11   A    
O9    Zn1   S    
O11   Zn1   S    
C2    C36   A    
C35   H16   S    
C1    C7    S    
C32   O3    D    
C21   H21   S    
C13   C31   S    
O1    Zn1   S    
C22   O11   A    
C14   C32   S    
C3    C5    A    
O10   Zn2   S    
C6    C7    A    
C12   C24   A    
C2    C3    A    
C10   C16   S    
C11   C13   S    
O12   Zn2   S    
C28   C37   A    
C2    H2    S    
C1    O1    A    
O7    Zn1   S    
C19   N2    A    
C34   C36   A    
C30   H10   S    
C8    H6    S    
N1    Zn2   S    
C10   C11   A    
C15   C21   S    
C20   C21   S    
C27   C28   A    
O8    Zn2   S    
H8    N3    S    
C13   C14   S    
C17   H17   S    
