data_str_m2_o11_o17_f0_pcu.sym.149
_audit_creation_date              2012-12-10T16:54:30-0500
_audit_creation_method            fapswitch 2.2
_symmetry_space_group_name_H-M    P1
_symmetry_Int_Tables_number       1
_space_group_crystal_system       triclinic
_cell_length_a                    14.986651
_cell_length_b                    10.912934
_cell_length_c                    9.787551
_cell_angle_alpha                 90.964583
_cell_angle_beta                  87.879498
_cell_angle_gamma                 90.689437
_cell_volume                      1599.31053037

loop_
_atom_site_label
_atom_site_type_symbol
_atom_type_description
_atom_site_fract_x
_atom_site_fract_y
_atom_site_fract_z
_atom_type_partial_charge
C1    C     C_R   0.500111 0.265603 0.498304 0.825136
C2    C     C_R   0.905250 0.609637 0.542577 -0.056650
C3    C     C_R   0.956685 0.307429 0.369572 0.416677
C4    C     C_R   0.049635 0.309432 0.374719 -0.221098
C5    C     C_R   0.094395 0.407171 0.437110 0.070587
C6    C     C_R   0.046492 0.507264 0.495058 0.026215
C7    C     C_R   0.092001 0.605376 0.560724 -0.059200
C8    C     C_R   0.043305 0.707180 0.615480 0.229111
C9    C     C_R   0.951082 0.715059 0.590251 0.229915
C10   C     C_R   0.187029 0.405822 0.441672 -0.187622
C11   C     C_R   0.232220 0.501533 0.505527 -0.053423
C12   C     C_R   0.329027 0.501214 0.502077 0.781936
C13   C     C_R   0.185744 0.600492 0.564403 -0.065511
C14   C     C_2   0.515686 0.931950 0.395481 -0.298082
C15   C     C_2   0.529886 0.864012 0.505814 0.241565
C16   C     C_2   0.529814 0.064117 0.392726 0.239997
C17   C     C_2   0.492744 0.133587 0.493831 -0.267813
C18   C     C_2   0.429937 0.509905 0.931239 0.476959
C19   C     C_2   0.433411 0.470520 0.076304 -0.070641
C20   C     C_R   0.506879 0.734084 0.501200 0.774648
C21   C     C_R   0.670826 0.500290 0.497624 0.811565
C22   C     C_R   0.811929 0.602695 0.549313 -0.106706
C23   C     C_R   0.767320 0.503521 0.491522 -0.091752
C24   C     C_R   0.814123 0.408587 0.426544 -0.105438
C25   C     C_R   0.907585 0.406818 0.427528 0.012458
C26   C     C_R   0.953173 0.507640 0.489104 -0.020014
Cu1   Cu    Cu3+1 0.500020 0.500020 0.638630 1.120064
Cu2   Cu    Cu3+1 0.499980 0.499980 0.361370 1.093026
H1    H     H_    0.772816 0.673400 0.600667 0.230976
H2    H     H_    0.453380 0.091408 0.575965 0.182147
H3    H     H_    0.544982 0.436616 0.877783 0.226712
H4    H     H_    0.373679 0.429842 0.123195 0.115351
H5    H     H_    0.776160 0.335249 0.379998 0.209208
H6    H     H_    0.087730 0.233894 0.330500 0.202821
H7    H     H_    0.224411 0.330176 0.395648 0.144425
H8    H     H_    0.224376 0.675482 0.606027 0.221922
H9    H     H_    0.490475 0.889766 0.303020 0.203137
N1    N     N_2   0.499020 0.498660 0.846910 -0.268477
N2    N     N_2   0.499000 0.498630 0.153040 -0.013346
O1    O     O_R   0.500020 0.321960 0.617040 -0.576138
O2    O     O_R   0.499980 0.321920 0.382900 -0.579637
O3    O     O_R   0.370270 0.499990 0.617090 -0.521792
O4    O     O_R   0.370240 0.499950 0.382940 -0.610100
O5    O     O_R   0.500020 0.678080 0.617100 -0.486878
O6    O     O_R   0.499980 0.678040 0.382960 -0.545487
O7    O     O_R   0.629760 0.500050 0.617060 -0.553614
O8    O     O_R   0.629730 0.500010 0.382910 -0.510470
S1    S     S_3+6 0.587378 0.919777 0.651653 0.086201
O9    O     O_2   0.651992 0.021013 0.613260 -0.204123
O10   O     O_2   0.520537 0.966308 0.757867 -0.252789
O11   O     O_3   0.644399 0.805010 0.718970 -0.478445
H10   H     H_    0.665325 0.838181 0.807148 0.410016
I1    I     I_    0.608880 0.129998 0.223530 -0.148221
S2    S     S_3+6 0.335648 0.597148 0.895937 0.087664
O12   O     O_2   0.358127 0.693944 0.792706 -0.179199
O13   O     O_2   0.263390 0.513702 0.844178 -0.324152
O14   O     O_3   0.297757 0.666817 0.041155 -0.470328
H11   H     H_    0.259507 0.604955 0.088591 0.341506
S3    S     S_3+6 0.584317 0.598738 0.091790 0.139100
O15   O     O_2   0.654855 0.526497 0.013923 -0.279483
O16   O     O_2   0.547732 0.694563 0.001005 -0.244538
O17   O     O_3   0.635715 0.675172 0.217402 -0.473022
H12   H     H_    0.681892 0.726667 0.170478 0.369719
S4    S     S_3+6 0.904697 0.179481 0.289614 0.050499
O18   O     O_2   0.972694 0.086091 0.242882 -0.242718
O19   O     O_2   0.838859 0.121292 0.389034 -0.214214
O20   O     O_3   0.850383 0.228067 0.153701 -0.503745
H13   H     H_    0.825992 0.152588 0.110765 0.403201
S5    S     S_3+6 0.095831 0.817241 0.724673 0.097778
O21   O     O_2   0.152527 0.902850 0.638657 -0.220536
O22   O     O_2   0.029557 0.890570 0.809824 -0.171826
O23   O     O_3   0.161294 0.745585 0.832730 -0.429691
H14   H     H_    0.120517 0.689613 0.884450 0.362483
S6    S     S_3+6 0.895750 0.859466 0.594607 0.123469
O24   O     O_2   0.850172 0.878444 0.732524 -0.193979
O25   O     O_2   0.960747 0.963087 0.567993 -0.160921
O26   O     O_3   0.818295 0.862507 0.474538 -0.460366
H15   H     H_    0.851872 0.848261 0.386735 0.363992

loop_
_geom_bond_atom_site_label_1
_geom_bond_atom_site_label_2
_ccdc_geom_bond_type
Cu2   O8    S    
C22   H1    S    
C7    C8    A    
O26   H15   S    
C8    S5    S    
S6    O25   D    
C12   O4    A    
C5    C6    A    
C16   C17   D    
Cu1   N1    S    
Cu2   O2    S    
C18   C19   S    
S5    O22   D    
C16   I1    S    
C12   O3    A    
C1    O1    A    
Cu1   O5    S    
S1    O11   S    
C8    C9    A    
S6    O26   S    
C2    C22   A    
C23   C24   A    
C10   H7    S    
C20   O6    A    
S1    O10   D    
S3    O15   D    
C17   H2    S    
C15   S1    S    
C19   H4    S    
C20   O5    A    
C4    H6    S    
C15   C20   S    
S2    O13   D    
Cu2   O6    S    
S3    O16   D    
S6    O24   D    
O11   H10   S    
S4    O20   S    
C3    C25   A    
C24   C25   A    
C13   H8    S    
C4    C5    A    
Cu2   N2    S    
C25   C26   A    
C3    S4    S    
O20   H13   S    
S4    O19   D    
S5    O23   S    
O17   H12   S    
Cu1   O1    S    
N2    S3    S    
C2    C26   A    
C19   N2    D    
Cu1   O7    S    
C1    O2    A    
S1    O9    D    
C21   C23   S    
C14   C16   S    
C9    S6    S    
C3    C4    A    
C21   O7    A    
S2    O12   D    
S3    O17   S    
C14   C15   D    
O23   H14   S    
C11   C12   S    
C6    C7    A    
Cu2   O4    S    
C1    C17   S    
C24   H5    S    
H3    N1    S    
S4    O18   D    
C18   N1    D    
C5    C10   A    
C14   H9    S    
C11   C13   A    
Cu1   O3    S    
O14   H11   S    
C6    C26   A    
S5    O21   D    
C10   C11   A    
C18   S2    S    
C7    C13   A    
Cu1   Cu2   S    
C22   C23   A    
C2    C9    A    
C21   O8    A    
S2    O14   S    
