data_str_m3_o10_o29_f0_pcu.sym.96
_audit_creation_date              2012-12-10T16:59:23-0500
_audit_creation_method            fapswitch 2.2
_symmetry_space_group_name_H-M    P1
_symmetry_Int_Tables_number       1
_space_group_crystal_system       triclinic
_cell_length_a                    7.834419
_cell_length_b                    8.554526
_cell_length_c                    27.715422
_cell_angle_alpha                 93.096983
_cell_angle_beta                  85.878193
_cell_angle_gamma                 93.230407
_cell_volume                      1847.40133073

loop_
_atom_site_label
_atom_site_type_symbol
_atom_type_description
_atom_site_fract_x
_atom_site_fract_y
_atom_site_fract_z
_atom_type_partial_charge
C1    C     C_R   0.545078 0.794301 0.498788 0.952876
C2    C     C_R   0.510021 0.637602 0.130061 -0.054242
C3    C     C_R   0.508432 0.500997 0.646696 -0.161693
C4    C     C_R   0.491568 0.499001 0.353304 -0.161692
C5    C     C_R   0.544290 0.640647 0.027882 0.005637
C6    C     C_R   0.455708 0.359346 0.972118 0.005637
C7    C     C_R   0.454849 0.358280 0.023236 0.067818
C8    C     C_R   0.545150 0.641714 0.976763 0.067818
C9    C     C_R   0.489166 0.500021 0.050839 0.058475
C10   C     C_R   0.510832 0.499973 0.949161 0.058475
C11   C     C_R   0.603119 0.771650 0.057525 0.104637
C12   C     C_R   0.454922 0.205699 0.501212 0.952875
C13   C     C_R   0.396879 0.228343 0.942475 0.104637
C14   C     C_R   0.571987 0.772720 0.107467 -0.153725
C15   C     C_R   0.428011 0.227274 0.892533 -0.153725
C16   C     C_R   0.502002 0.500008 0.593897 0.890509
C17   C     C_R   0.497998 0.499991 0.406103 0.890510
C18   C     C_R   0.564026 0.782494 0.952325 -0.134812
C19   C     C_R   0.435972 0.217500 0.047675 -0.134812
C20   C     C_2   0.569018 0.957581 0.498049 -0.358007
C21   C     C_2   0.430982 0.042419 0.501951 -0.358008
C22   C     C_R   0.571121 0.641161 0.823979 0.530961
C23   C     C_R   0.523005 0.501260 0.897931 -0.050677
C24   C     C_R   0.428878 0.358833 0.176021 0.530962
C25   C     C_R   0.502776 0.365704 0.819466 0.532999
C26   C     C_R   0.497222 0.634290 0.180534 0.532998
C27   C     C_R   0.370121 0.497513 0.727710 -0.194932
C28   C     C_R   0.629878 0.502481 0.272290 -0.194934
C29   C     C_R   0.357191 0.491440 0.677718 0.507723
C30   C     C_R   0.642809 0.508556 0.322282 0.507724
C31   C     C_R   0.669166 0.510618 0.666633 -0.266959
C32   C     C_R   0.330834 0.489379 0.333367 -0.266960
C33   C     C_R   0.680177 0.513365 0.716406 -0.089424
C34   C     C_R   0.476993 0.498734 0.102069 -0.050677
C35   C     C_R   0.319822 0.486631 0.283594 -0.089425
C36   C     C_R   0.530774 0.506934 0.746808 0.243022
C37   C     C_R   0.469225 0.493060 0.253192 0.243024
C38   C     C_3   0.866765 0.674628 0.341020 -0.248338
C39   C     C_3   0.133239 0.325367 0.658977 -0.248338
C40   C     C_R   0.562252 0.642512 0.874606 -0.030058
C41   C     C_R   0.437747 0.357482 0.125394 -0.030058
C42   C     C_R   0.578814 0.782886 0.902221 -0.106455
C43   C     C_R   0.421184 0.217108 0.097779 -0.106455
C44   C     C_R   0.489977 0.362392 0.869939 -0.054242
H1    H     H_    0.787016 0.516194 0.643836 0.218266
H2    H     H_    0.386663 0.124409 0.870999 0.213545
H3    H     H_    0.557646 0.894933 0.971348 0.175077
H4    H     H_    0.442352 0.105061 0.028651 0.175077
H5    H     H_    0.699879 0.007437 0.494295 0.200601
H6    H     H_    0.300121 0.992563 0.505705 0.200601
H7    H     H_    0.777685 0.752896 0.362570 0.161365
H8    H     H_    0.892623 0.715565 0.303642 0.170171
H9    H     H_    0.989860 0.683509 0.358637 0.193113
H10   H     H_    0.107383 0.284423 0.696354 0.170172
H11   H     H_    0.222320 0.247105 0.637426 0.161363
H12   H     H_    0.212983 0.483805 0.356164 0.218265
H13   H     H_    0.010143 0.316487 0.641361 0.193113
H14   H     H_    0.804502 0.519508 0.731364 0.167339
H15   H     H_    0.195497 0.480488 0.268637 0.167339
H16   H     H_    0.597041 0.894389 0.885289 0.195281
H17   H     H_    0.402957 0.105605 0.114711 0.195281
H18   H     H_    0.744999 0.507083 0.248174 0.154153
H19   H     H_    0.254999 0.492910 0.751825 0.154154
H20   H     H_    0.613335 0.875585 0.129001 0.213545
I1    I     I_    0.035608 0.282969 0.437839 -0.218583
I2    I     I_    0.964392 0.717030 0.562160 -0.218583
I3    I     I_    0.793678 0.948316 0.037001 -0.337503
I4    I     I_    0.206320 0.051678 0.962999 -0.337503
N1    N     N_R   0.540647 0.504010 0.797786 -0.349126
N2    N     N_R   0.459352 0.495984 0.202214 -0.349126
N3    N     N_2   0.950320 0.457960 0.486880 0.020593
N4    N     N_2   0.049680 0.542040 0.513120 0.020593
O1    O     O_R   0.389250 0.738570 0.503220 -0.608462
O2    O     O_2   0.393877 0.224215 0.198914 -0.522401
O3    O     O_2   0.525914 0.767404 0.207884 -0.532516
O4    O     O_2   0.474084 0.232591 0.792115 -0.532515
O5    O     O_3   0.803243 0.517009 0.340337 -0.591198
O6    O     O_3   0.196756 0.482988 0.659662 -0.591198
O7    O     O_R   0.610750 0.261430 0.496780 -0.608462
O8    O     O_R   0.678390 0.711630 0.494810 -0.613229
O9    O     O_R   0.321610 0.288370 0.505190 -0.613230
O10   O     O_R   0.355440 0.513440 0.575450 -0.555737
O11   O     O_R   0.644560 0.486560 0.424550 -0.555736
O12   O     O_R   0.644590 0.486500 0.567040 -0.623471
O13   O     O_R   0.355410 0.513500 0.432960 -0.623471
O14   O     O_2   0.606122 0.775779 0.801085 -0.522400
Zn1   Zn    Zn3+2 0.306940 0.517990 0.505620 1.037388
Zn2   Zn    Zn3+2 0.693060 0.482010 0.494380 1.037388

loop_
_geom_bond_atom_site_label_1
_geom_bond_atom_site_label_2
_ccdc_geom_bond_type
C33   H14   S    
C27   C29   A    
C18   H3    S    
C24   N2    A    
C17   O13   A    
C35   C37   A    
C15   C44   A    
C5    C11   A    
C18   C42   A    
C11   C14   A    
C39   H10   S    
C38   H8    S    
C23   C40   A    
C39   H13   S    
C12   O7    A    
C16   O12   A    
C33   C36   A    
C35   H15   S    
C3    C29   A    
C21   H6    S    
C10   C23   A    
C30   O5    S    
C39   H11   S    
C29   O6    S    
C11   I3    S    
C31   C33   A    
C22   N1    A    
C2    C34   A    
C40   C42   A    
O11   Zn2   S    
C14   H20   S    
C37   N2    S    
C24   C41   A    
C41   C43   A    
C34   C41   A    
C25   C44   A    
O7    Zn2   S    
C19   C43   A    
O13   Zn1   S    
I2    N4    S    
C32   C35   A    
C42   H16   S    
C19   H4    S    
C38   H7    S    
I1    N3    S    
C12   C21   S    
C8    C18   A    
C23   C44   A    
C17   O11   A    
C39   O6    S    
C5    C9    A    
C20   H5    S    
C22   C40   A    
C16   O10   A    
C26   O3    S    
C2    C26   A    
C4    C32   A    
C3    C31   A    
O9    Zn1   S    
C27   H19   S    
C4    C17   S    
C7    C19   A    
C13   C15   A    
C9    C34   A    
C26   N2    A    
C25   N1    A    
O1    Zn1   S    
N4    Zn1   S    
C36   N1    S    
C43   H17   S    
C7    C9    A    
C1    C20   S    
O12   Zn2   S    
C6    C10   A    
C5    C8    A    
C6    C7    A    
C38   O5    S    
C27   C36   A    
C25   O4    S    
C1    O1    A    
C28   C30   A    
N3    N4    D    
O8    Zn2   S    
C6    C13   A    
C24   O2    S    
C38   H9    S    
C28   C37   A    
C12   O9    A    
C22   O14   S    
C2    C14   A    
N3    Zn2   S    
C20   C21   D    
C8    C10   A    
C31   H1    S    
C1    O8    A    
C15   H2    S    
C32   H12   S    
C4    C30   A    
C3    C16   S    
O10   Zn1   S    
C13   I4    S    
C28   H18   S    
