data_str_m2_o10_o29_f0_pcu.sym.135
_audit_creation_date              2012-12-10T16:51:13-0500
_audit_creation_method            fapswitch 2.2
_symmetry_space_group_name_H-M    P1
_symmetry_Int_Tables_number       1
_space_group_crystal_system       triclinic
_cell_length_a                    27.821135
_cell_length_b                    8.742925
_cell_length_c                    7.504295
_cell_angle_alpha                 102.796777
_cell_angle_beta                  94.865815
_cell_angle_gamma                 93.762801
_cell_volume                      1766.87179319

loop_
_atom_site_label
_atom_site_type_symbol
_atom_type_description
_atom_site_fract_x
_atom_site_fract_y
_atom_site_fract_z
_atom_type_partial_charge
C1    C     C_R   0.498127 0.200468 0.454392 0.840005
C2    C     C_R   0.501874 0.799531 0.545608 0.840008
C3    C     C_R   0.102173 0.503848 0.501842 -0.105602
C4    C     C_R   0.897826 0.496140 0.498158 -0.105602
C5    C     C_R   0.124015 0.362501 0.448125 -0.078482
C6    C     C_R   0.875984 0.637486 0.551876 -0.078482
C7    C     C_R   0.095185 0.222630 0.376510 -0.082170
C8    C     C_R   0.904815 0.777358 0.623490 -0.082169
C9    C     C_R   0.131683 0.648025 0.554876 -0.114461
C10   C     C_R   0.868317 0.351963 0.445125 -0.114460
C11   C     C_R   0.354747 0.506811 0.504241 -0.173992
C12   C     C_R   0.645253 0.493185 0.495758 -0.173991
C13   C     C_R   0.970874 0.354762 0.454967 0.023053
C14   C     C_R   0.029125 0.645225 0.545033 0.023053
C15   C     C_R   0.978281 0.644925 0.557565 0.007821
C16   C     C_R   0.021719 0.355062 0.442434 0.007822
C17   C     C_R   0.949173 0.498934 0.501228 0.036510
C18   C     C_R   0.050827 0.501053 0.498771 0.036510
C19   C     C_R   0.941117 0.214454 0.436362 -0.131646
C20   C     C_R   0.058883 0.785534 0.563637 -0.131646
C21   C     C_R   0.890928 0.210080 0.417574 0.408909
C22   C     C_R   0.109072 0.789908 0.582426 0.408910
C23   C     C_R   0.407641 0.503086 0.501337 0.843808
C24   C     C_R   0.592359 0.496913 0.498663 0.843799
C25   C     C_R   0.045040 0.217787 0.366177 0.341979
C26   C     C_R   0.954960 0.782200 0.633822 0.341979
C27   C     C_2   0.491121 0.033963 0.433002 0.124529
C28   C     C_2   0.508880 0.966037 0.567001 0.124519
C29   C     C_R   0.174538 0.365087 0.455569 0.678502
C30   C     C_R   0.825462 0.634901 0.544431 0.678502
C31   C     C_R   0.182559 0.643649 0.567237 0.632251
C32   C     C_R   0.817441 0.356339 0.432764 0.632251
C33   C     C_R   0.275718 0.555755 0.374979 -0.140429
C34   C     C_R   0.724281 0.444235 0.625021 -0.140428
C35   C     C_R   0.325658 0.558009 0.368265 0.286258
C36   C     C_R   0.674341 0.441984 0.631735 0.286253
C37   C     C_R   0.332551 0.457410 0.645994 -0.223413
C38   C     C_R   0.667450 0.542583 0.354005 -0.223413
C39   C     C_R   0.282514 0.455419 0.651516 0.465900
C40   C     C_R   0.717486 0.544570 0.348483 0.465898
C41   C     C_R   0.253999 0.504441 0.515009 0.174394
C42   C     C_R   0.746001 0.495547 0.484990 0.174395
Cu1   Cu    Cu3+1 0.505380 0.517380 0.684380 1.169274
Cu2   Cu    Cu3+1 0.494620 0.482620 0.315620 1.169275
H1    H     H_    0.353940 0.418507 0.751903 0.235422
H2    H     H_    0.646060 0.581487 0.248095 0.235423
H3    H     H_    0.111652 0.116096 0.319073 0.237101
H4    H     H_    0.888348 0.883892 0.680927 0.237101
H5    H     H_    0.746561 0.405004 0.728882 0.211170
H6    H     H_    0.253438 0.594985 0.271118 0.211169
H7    H     H_    0.956120 0.105884 0.445033 0.225737
H8    H     H_    0.043880 0.894104 0.554965 0.225737
N1    N     N_R   0.202525 0.503823 0.516927 -0.463418
N2    N     N_R   0.797474 0.496165 0.483074 -0.463418
N3    N     N_2   0.486510 0.456430 0.038510 0.078371
N4    N     N_2   0.513490 0.543570 0.961490 0.078369
O1    O     O_R   0.503500 0.286120 0.619780 -0.549355
O2    O     O_R   0.496500 0.713880 0.380220 -0.549356
O3    O     O_R   0.494410 0.256780 0.308360 -0.524876
O4    O     O_R   0.505590 0.743220 0.691640 -0.524879
O5    O     O_R   0.434810 0.514700 0.655690 -0.574434
O6    O     O_R   0.565190 0.485300 0.344310 -0.574433
O7    O     O_R   0.425720 0.485350 0.344280 -0.533477
O8    O     O_R   0.574280 0.514650 0.655720 -0.533479
O9    O     O_2   0.195670 0.230221 0.400478 -0.434223
O10   O     O_2   0.804330 0.769767 0.599522 -0.434225
O11   O     O_2   0.787802 0.223360 0.371452 -0.405181
O12   O     O_2   0.212198 0.776628 0.628551 -0.405180
Br1   Br    Br    0.439972 0.298886 0.902746 -0.252419
Br2   Br    Br    0.560029 0.701112 0.097254 -0.252432
Cl1   Cl    Cl    0.256221 0.391828 0.830660 -0.472714
Cl2   Cl    Cl    0.743780 0.608159 0.169338 -0.472717
Br3   Br    Br    0.648977 0.358924 0.824634 -0.317797
Br4   Br    Br    0.351021 0.641068 0.175364 -0.317787
Cl3   Cl    Cl    0.859446 0.021121 0.367737 -0.451423
Cl4   Cl    Cl    0.140554 0.978867 0.632263 -0.451423
Cl5   Cl    Cl    0.016105 0.041986 0.223542 -0.539139
Cl6   Cl    Cl    0.983895 0.958002 0.776456 -0.539139
Cl7   Cl    Cl    0.452454 0.933979 0.234937 -0.452338
Cl8   Cl    Cl    0.547538 0.066028 0.765098 -0.452323

loop_
_geom_bond_atom_site_label_1
_geom_bond_atom_site_label_2
_ccdc_geom_bond_type
N3    N4    D    
C35   Br4   S    
C8    C26   A    
C14   C18   A    
C34   C42   A    
C22   Cl4   S    
C39   C41   A    
C30   N2    A    
C26   Cl6   S    
C10   C32   A    
C25   Cl5   S    
C19   C21   A    
C27   Cl7   S    
C1    O3    A    
C2    O4    A    
C9    C22   A    
Cu2   O3    S    
C3    C18   A    
C11   C37   A    
Cu2   O2    S    
C12   C36   A    
C23   O7    A    
C24   O8    A    
C32   N2    A    
Cu1   O8    S    
C5    C29   A    
C10   C21   A    
C31   O12   S    
C37   C39   A    
C13   C19   A    
C14   C20   A    
C4    C6    A    
C5    C7    A    
Cu1   O1    S    
C15   C26   A    
C6    C8    A    
Cu2   O6    S    
C33   H6    S    
C7    H3    S    
Cu1   Cu2   S    
C8    H4    S    
C3    C9    A    
C1    O1    A    
C30   O10   S    
C31   N1    A    
C41   N1    S    
N3    Br1   S    
Cu1   O4    S    
C32   O11   S    
C29   O9    S    
C4    C17   A    
C6    C30   A    
C20   C22   A    
N4    Br2   S    
C4    C10   A    
Cu1   O5    S    
C16   C25   A    
C15   C17   A    
C12   C24   S    
C34   H5    S    
C24   O6    A    
C40   Cl2   S    
C40   C42   A    
C3    C5    A    
C2    O2    A    
C21   Cl3   S    
C7    C25   A    
C13   C17   A    
C33   C41   A    
C11   C35   A    
C20   H8    S    
C42   N2    S    
C38   C40   A    
Cu2   N3    S    
C29   N1    A    
C11   C23   S    
C33   C35   A    
C34   C36   A    
C12   C38   A    
C28   Cl8   S    
C38   H2    S    
C36   Br3   S    
C9    C31   A    
C19   H7    S    
Cu1   N4    S    
C23   O5    A    
C16   C18   A    
Cu2   O7    S    
C13   C16   A    
C27   C28   D    
C1    C27   S    
C39   Cl1   S    
C14   C15   A    
C2    C28   S    
C37   H1    S    
