data_str_m2_o9_o19_f0_pcu.sym.151
_audit_creation_date              2012-12-10T19:46:24-0500
_audit_creation_method            fapswitch 2.2
_symmetry_space_group_name_H-M    P1
_symmetry_Int_Tables_number       1
_space_group_crystal_system       triclinic
_cell_length_a                    10.887205
_cell_length_b                    10.882856
_cell_length_c                    10.417077
_cell_angle_alpha                 91.409767
_cell_angle_beta                  91.798573
_cell_angle_gamma                 89.527236
_cell_volume                      1233.23972025

loop_
_atom_site_label
_atom_site_type_symbol
_atom_type_description
_atom_site_fract_x
_atom_site_fract_y
_atom_site_fract_z
_atom_type_partial_charge
C1    C     C_R   0.502733 0.261418 0.498582 0.798436
C2    C     C_R   0.497472 0.738584 0.501421 0.798577
C3    C     C_R   0.872154 0.499557 0.506234 -0.089018
C4    C     C_R   0.127846 0.501099 0.493813 -0.089158
C5    C     C_R   0.944079 0.529745 0.618059 0.010030
C6    C     C_R   0.055908 0.471193 0.381957 0.009944
C7    C     C_R   0.530184 0.151099 0.039819 -0.127412
C8    C     C_R   0.474183 0.845630 0.959178 -0.127681
C9    C     C_R   0.492166 0.106886 0.156835 -0.128151
C10   C     C_R   0.511319 0.889810 0.841806 -0.125940
C11   C     C_R   0.571784 0.110976 0.265250 0.135208
C12   C     C_R   0.429717 0.888949 0.734983 0.135241
C13   C     C_R   0.689968 0.159656 0.255711 -0.113732
C14   C     C_R   0.310600 0.843149 0.746267 -0.117026
C15   C     C_R   0.728177 0.202564 0.138193 -0.163676
C16   C     C_R   0.273374 0.800101 0.864093 -0.163886
C17   C     C_R   0.648624 0.197575 0.030095 -0.132698
C18   C     C_R   0.354803 0.802170 0.970750 -0.132596
C19   C     C_R   0.528558 0.930333 0.390795 -0.243623
C20   C     C_R   0.472018 0.069639 0.609228 -0.243535
C21   C     C_R   0.496616 0.872112 0.503264 -0.083663
C22   C     C_R   0.503925 0.127881 0.496754 -0.083884
C23   C     C_R   0.261362 0.499452 0.497589 0.798213
C24   C     C_R   0.738636 0.500798 0.502429 0.797570
C25   C     C_R   0.467389 0.942648 0.613733 -0.008653
C26   C     C_R   0.533376 0.057342 0.386315 -0.008102
C27   C     C_1   0.500037 0.499992 0.071915 0.087302
C28   C     C_1   0.499957 0.499988 0.928085 0.087826
C29   C     C_R   0.179725 0.514012 0.051449 -0.200662
C30   C     C_R   0.819826 0.488210 0.948643 -0.200695
C31   C     C_R   0.153879 0.535737 0.180512 -0.098071
C32   C     C_R   0.845758 0.466054 0.819670 -0.097606
C33   C     C_R   0.104682 0.442081 0.253057 0.110503
C34   C     C_R   0.895292 0.559350 0.746885 0.110062
C35   C     C_R   0.079575 0.327160 0.193197 -0.221792
C36   C     C_R   0.920743 0.674342 0.806497 -0.222211
C37   C     C_R   0.102519 0.306253 0.062242 0.223463
C38   C     C_R   0.897765 0.695670 0.937403 0.223236
C39   C     C_R   0.153332 0.400683 0.992153 -0.107053
C40   C     C_R   0.846584 0.601573 0.007684 -0.107418
C41   C     C_R   0.929165 0.470428 0.390679 -0.251356
C42   C     C_R   0.070848 0.530379 0.609347 -0.251044
Cu1   Cu    Cu3+1 0.500000 0.500000 0.625300 0.975711
Cu2   Cu    Cu3+1 0.500000 0.500000 0.374700 0.975655
H1    H     H_    0.169671 0.387762 0.890682 0.135735
H2    H     H_    0.830273 0.614732 0.109131 0.135685
H3    H     H_    0.752768 0.162529 0.338443 0.105036
H4    H     H_    0.246390 0.842617 0.664695 0.105988
H5    H     H_    0.819878 0.238457 0.130825 0.115648
H6    H     H_    0.181002 0.766389 0.872833 0.115582
H7    H     H_    0.552613 0.876742 0.305895 0.155227
H8    H     H_    0.447999 0.123184 0.694169 0.155221
H9    H     H_    0.217061 0.586008 0.995744 0.136903
H10   H     H_    0.782129 0.416503 0.004486 0.136777
H11   H     H_    0.169020 0.626435 0.222943 0.117675
H12   H     H_    0.830394 0.375290 0.777497 0.117804
H13   H     H_    0.036726 0.256260 0.247306 0.118658
H14   H     H_    0.963969 0.744922 0.752271 0.118738
H15   H     H_    0.874361 0.447356 0.304742 0.160358
H16   H     H_    0.125687 0.553484 0.695251 0.160541
H17   H     H_    0.678620 0.229363 0.938675 0.120865
H18   H     H_    0.325575 0.770360 0.062460 0.121234
H19   H     H_    0.468551 0.147676 0.956286 0.133099
H20   H     H_    0.537246 0.846743 0.041590 0.132788
H21   H     H_    0.401481 0.068161 0.163311 0.120089
H22   H     H_    0.602878 0.926011 0.833806 0.119850
N1    N     N_1   0.500010 0.499990 0.186410 -0.142448
N2    N     N_1   0.499990 0.500010 0.813590 -0.142373
O1    O     O_R   0.499990 0.319650 0.605810 -0.592424
O2    O     O_R   0.500010 0.680350 0.394190 -0.592646
O3    O     O_R   0.499990 0.319640 0.394190 -0.561245
O4    O     O_R   0.500010 0.680360 0.605810 -0.561288
O5    O     O_R   0.319640 0.500010 0.605810 -0.584828
O6    O     O_R   0.680360 0.499990 0.394190 -0.584995
O7    O     O_R   0.319650 0.500010 0.394190 -0.574824
O8    O     O_R   0.680350 0.499990 0.605810 -0.575175
C43   C     C_3   0.063498 0.188018 0.994641 -0.445717
C44   C     C_3   0.172681 0.116146 0.942081 -0.819652
H23   H     H_    0.225231 0.172272 0.875535 0.242594
H24   H     H_    0.234235 0.086319 0.022222 0.251611
H25   H     H_    0.138937 0.033271 0.888278 0.240885
H26   H     H_    0.014817 0.128106 0.060942 0.199866
H27   H     H_    0.998064 0.209771 0.914169 0.199024
C45   C     C_3   0.937448 0.813820 0.004824 -0.446031
C46   C     C_3   0.828914 0.886018 0.058394 -0.819846
H28   H     H_    0.767172 0.916673 0.978794 0.251350
H29   H     H_    0.776379 0.829879 0.124929 0.242166
H30   H     H_    0.863342 0.968448 0.112495 0.241183
H31   H     H_    0.003376 0.791823 0.084782 0.199168
H32   H     H_    0.985773 0.873689 0.938198 0.199508

loop_
_geom_bond_atom_site_label_1
_geom_bond_atom_site_label_2
_ccdc_geom_bond_type
Cu1   O5    S    
C30   C32   A    
C5    C42   A    
Cu1   O4    S    
C43   C44   S    
C40   H2    S    
C30   H10   S    
C1    O3    A    
C4    C42   A    
C28   N2    T    
C16   H6    S    
C36   H14   S    
C44   H24   S    
C20   C25   A    
C43   H27   S    
Cu2   O3    S    
C7    C9    A    
C19   C26   A    
C17   H17   S    
Cu1   N2    S    
C7    C17   A    
C6    C41   A    
C31   C33   A    
Cu2   O2    S    
C39   H1    S    
C46   H29   S    
C1    C22   S    
Cu1   O1    S    
C1    O1    A    
C3    C24   S    
C45   H32   S    
C23   O5    A    
C2    O4    A    
C10   H22   S    
C37   C39   A    
C45   C46   S    
C41   H15   S    
C4    C6    A    
C42   H16   S    
C13   H3    S    
C4    C23   S    
C44   H23   S    
C24   O8    A    
C14   H4    S    
C11   C26   S    
C46   H28   S    
C37   C43   S    
C8    C18   A    
C32   C34   A    
Cu2   O7    S    
Cu1   Cu2   S    
C5    C34   S    
C29   C39   A    
C2    C21   S    
C30   C40   A    
C16   C18   A    
Cu2   O6    S    
C9    C11   A    
C7    H19   S    
C10   C12   A    
C8    H20   S    
C8    C10   A    
C12   C14   A    
C13   C15   A    
C14   C16   A    
C45   H31   S    
C20   C22   A    
C35   C37   A    
C46   H30   S    
Cu1   O8    S    
C15   C17   A    
C21   C25   A    
C3    C41   A    
C38   C45   S    
C18   H18   S    
C23   O7    A    
C3    C5    A    
C6    C33   S    
C12   C25   S    
C35   H13   S    
C36   C38   A    
C20   H8    S    
C38   C40   A    
C11   C13   A    
C44   H25   S    
C24   O6    A    
C29   H9    S    
C43   H26   S    
C33   C35   A    
C34   C36   A    
C15   H5    S    
C9    H21   S    
C27   N1    T    
C19   H7    S    
C29   C31   A    
C22   C26   A    
C27   C28   S    
Cu2   N1    S    
C31   H11   S    
C2    O2    A    
C32   H12   S    
C19   C21   A    
