data_str_m2_o16_o18_f0_pcu.sym.106
_audit_creation_date              2012-12-10T17:32:56-0500
_audit_creation_method            fapswitch 2.2
_symmetry_space_group_name_H-M    P1
_symmetry_Int_Tables_number       1
_space_group_crystal_system       triclinic
_cell_length_a                    12.341957
_cell_length_b                    13.337162
_cell_length_c                    14.253439
_cell_angle_alpha                 92.737574
_cell_angle_beta                  107.82839
_cell_angle_gamma                 117.099234
_cell_volume                      1939.20818498

loop_
_atom_site_label
_atom_site_type_symbol
_atom_type_description
_atom_site_fract_x
_atom_site_fract_y
_atom_site_fract_z
_atom_type_partial_charge
C1    C     C_R   0.650789 0.713873 0.508015 0.794641
C2    C     C_R   0.833582 0.468560 0.907726 0.094662
C3    C     C_R   0.755331 0.435351 0.967710 0.177953
C4    C     C_R   0.951460 0.463080 0.936675 0.063172
C5    C     C_R   0.997348 0.438475 0.032083 0.070850
C6    C     C_R   0.913455 0.399495 0.086902 -0.229231
C7    C     C_R   0.793672 0.396646 0.054240 -0.228482
C8    C     C_R   0.023990 0.479582 0.873137 -0.214498
C9    C     C_R   0.142308 0.479982 0.905349 -0.210670
C10   C     C_R   0.195656 0.470141 0.003432 0.159820
C11   C     C_R   0.125152 0.452239 0.068843 0.092290
C12   C     C_R   0.616969 0.514336 0.686294 0.797062
C13   C     C_R   0.320498 0.480945 0.037693 -0.199529
C14   C     C_R   0.379620 0.481330 0.138056 -0.192344
C15   C     C_R   0.188242 0.456040 0.170616 -0.253885
C16   C     C_R   0.136283 0.973836 0.353803 -0.175072
C17   C     C_R   0.246157 0.164341 0.459195 -0.036455
C18   C     C_R   0.724768 0.920002 0.566096 -0.233916
C19   C     C_R   0.809109 0.037816 0.578973 0.014260
C20   C     C_R   0.910568 0.071975 0.542213 -0.223192
C21   C     C_R   0.925696 0.989875 0.488800 0.056623
C22   C     C_R   0.827898 0.872314 0.463439 0.020154
C23   C     C_R   0.344697 0.285832 0.484395 0.798099
C24   C     C_R   0.033403 0.021740 0.457377 0.026680
C25   C     C_R   0.032333 0.940371 0.388611 0.053340
C26   C     C_R   0.927377 0.827009 0.355497 0.397106
C27   C     C_R   0.825383 0.794668 0.390808 -0.281280
C28   C     C_R   0.144333 0.131793 0.494862 -0.222772
C29   C     C_R   0.242519 0.085081 0.388988 -0.198524
C30   C     C_R   0.734244 0.836547 0.510345 -0.107207
C31   C     C_R   0.252890 0.683981 0.660474 -0.387184
C32   C     C_R   0.654765 0.343043 0.364094 0.083638
C33   C     C_R   0.732175 0.306640 0.336282 -0.266181
C34   C     C_R   0.381011 0.482498 0.313216 0.783539
C35   C     C_R   0.867158 0.363381 0.389188 -0.178646
C36   C     C_R   0.927042 0.458445 0.470768 0.036142
C37   C     C_R   0.843135 0.491918 0.497169 0.281958
C38   C     C_R   0.066707 0.523183 0.525634 -0.025722
C39   C     C_R   0.118006 0.617939 0.606117 0.104513
C40   C     C_R   0.034844 0.647866 0.631538 -0.285705
C41   C     C_R   0.901008 0.586803 0.578166 -0.220482
C42   C     C_R   0.159006 0.500413 0.503193 -0.085583
C43   C     C_R   0.339048 0.655522 0.636991 0.668879
C44   C     C_R   0.670830 0.503742 0.789743 -0.052725
C45   C     C_R   0.315195 0.472296 0.205574 -0.044841
C46   C     C_R   0.638317 0.439633 0.939589 -0.179454
C47   C     C_R   0.595691 0.472888 0.850530 -0.210521
C48   C     C_R   0.791305 0.506765 0.820993 -0.238879
Cu1   Cu    Cu3+1 0.416420 0.526630 0.522910 0.969372
Cu2   Cu    Cu3+1 0.583580 0.473370 0.477090 0.931582
H1    H     H_    0.731937 0.366277 0.098314 0.139968
H2    H     H_    0.373939 0.492437 0.987578 0.127350
H3    H     H_    0.319469 0.110131 0.358795 0.150552
H4    H     H_    0.135202 0.914857 0.298158 0.172954
H5    H     H_    0.154793 0.194079 0.552938 0.147979
H6    H     H_    0.651212 0.893169 0.599959 0.217291
H7    H     H_    0.973669 0.163417 0.552710 0.172716
H8    H     H_    0.743379 0.708353 0.358122 0.192821
H9    H     H_    0.142681 0.451750 0.225085 0.142173
H10   H     H_    0.073868 0.720575 0.693081 0.159945
H11   H     H_    0.291085 0.757901 0.720385 0.157437
H12   H     H_    0.128475 0.430682 0.442472 0.142223
H13   H     H_    0.550118 0.298025 0.322698 0.122150
H14   H     H_    0.922294 0.331728 0.364286 0.130906
H15   H     H_    0.687323 0.234114 0.273355 0.144161
H16   H     H_    0.846954 0.618619 0.602560 0.210316
H17   H     H_    0.477669 0.493062 0.163646 0.156492
H18   H     H_    0.194686 0.492485 0.854306 0.143982
H19   H     H_    0.578099 0.414275 0.985116 0.130423
H20   H     H_    0.501703 0.469558 0.827109 0.142088
H21   H     H_    0.849473 0.538195 0.775066 0.140795
H22   H     H_    0.937074 0.368280 0.154562 0.145102
H23   H     H_    0.990395 0.489311 0.796747 0.155822
N1    N     N_R   0.290690 0.566960 0.557640 -0.215296
N2    N     N_R   0.709100 0.433710 0.442970 -0.203234
O1    O     O_R   0.545970 0.684450 0.528810 -0.530202
O2    O     O_R   0.687130 0.639470 0.490120 -0.614533
O3    O     O_R   0.519670 0.535100 0.660030 -0.562438
O4    O     O_R   0.660830 0.490120 0.621340 -0.593837
O5    O     O_R   0.312870 0.360530 0.509880 -0.593591
O6    O     O_R   0.454030 0.315550 0.471190 -0.579474
O7    O     O_R   0.339170 0.509880 0.378660 -0.586889
O8    O     O_R   0.480330 0.464900 0.339970 -0.598353
O9    O     O_3   0.923331 0.745879 0.288470 -0.584638
C49   C     C_3   0.993680 0.695777 0.344618 0.056407
H24   H     H_    0.953780 0.658474 0.402300 0.161033
H25   H     H_    0.099453 0.760141 0.383228 0.148290
C50   C     C_3   0.981749 0.599766 0.273816 -0.764878
H26   H     H_    0.012083 0.632616 0.210773 0.261381
H27   H     H_    0.045240 0.565869 0.315175 0.197714
H28   H     H_    0.878586 0.528947 0.243308 0.250014
C51   C     C_2   0.792689 0.125645 0.632023 0.847435
O10   O     O_2   0.708608 0.095643 0.669222 -0.598742
O11   O     O_R   0.872524 0.243187 0.638753 -0.775528
H29   H     H_    0.849863 0.294061 0.674643 0.337129
O12   O     O_3   0.473586 0.722365 0.686173 -0.561115
C52   C     C_3   0.512126 0.735171 0.792436 0.030032
H30   H     H_    0.582573 0.703029 0.817968 0.178155
H31   H     H_    0.431162 0.685193 0.819537 0.107731
C53   C     C_3   0.582444 0.862618 0.843083 -0.770589
H32   H     H_    0.515383 0.898463 0.819768 0.245916
H33   H     H_    0.616901 0.873238 0.926468 0.205638
H34   H     H_    0.668289 0.911518 0.821368 0.267463

loop_
_geom_bond_atom_site_label_1
_geom_bond_atom_site_label_2
_ccdc_geom_bond_type
C40   H10   S    
C1    O2    A    
C31   H11   S    
C35   C36   A    
C4    C8    A    
Cu2   O4    S    
C32   N2    A    
C52   H30   S    
C33   H15   S    
C49   H24   S    
C6    H22   S    
C26   C27   A    
C17   C23   S    
C31   C43   A    
C36   C37   A    
C38   C42   A    
C3    C7    A    
C5    C6    A    
C12   O4    A    
C17   C29   A    
Cu1   O3    S    
C18   C19   A    
C1    C30   S    
C46   H19   S    
C19   C51   S    
C11   C15   A    
C19   C20   A    
C8    C9    A    
C12   O3    A    
C14   H17   S    
C35   H14   S    
C18   C30   A    
C23   O5    A    
C23   O6    A    
C9    C10   A    
C42   H12   S    
C44   C47   A    
C18   H6    S    
C43   N1    A    
C37   N2    A    
C21   C22   A    
C1    O1    A    
C51   O11   S    
C52   H31   S    
C28   H5    S    
Cu2   O8    S    
C14   C45   A    
C49   H25   S    
C42   N1    A    
C24   C25   A    
C39   C40   A    
C2    C48   A    
C16   C29   A    
C27   H8    S    
C53   H34   S    
Cu1   O7    S    
C2    C4    A    
C47   H20   S    
C8    H23   S    
C13   H2    S    
C50   H28   S    
O12   C52   S    
C20   C21   A    
C53   H33   S    
C43   O12   S    
Cu1   O1    S    
C34   C45   S    
O9    C49   S    
C6    C7    A    
C40   C41   A    
C50   H27   S    
C22   C27   A    
C34   O8    A    
C15   C45   A    
C48   H21   S    
Cu2   O2    S    
C52   C53   S    
C49   C50   S    
C16   C25   A    
C46   C47   A    
C26   O9    S    
C22   C30   A    
C17   C28   A    
C15   H9    S    
C24   C28   A    
C32   H13   S    
C4    C5    A    
C10   C13   A    
C5    C11   A    
C41   H16   S    
C3    C46   A    
Cu1   O5    S    
C32   C33   A    
C36   C38   A    
C2    C3    A    
C25   C26   A    
C9    H18   S    
C7    H1    S    
C12   C44   S    
Cu2   N2    S    
C38   C39   A    
C29   H3    S    
C51   O10   D    
C33   C35   A    
C31   C39   A    
C37   C41   A    
O11   H29   S    
C16   H4    S    
C10   C11   A    
C50   H26   S    
Cu1   Cu2   S    
C21   C24   A    
Cu1   N1    S    
C53   H32   S    
C34   O7    A    
C20   H7    S    
C13   C14   A    
C44   C48   A    
Cu2   O6    S    
