data_str_m2_o1_o16_f0_pcu.sym.137
_audit_creation_date              2013-03-05T16:04:19-0500
_audit_creation_method            fapswitch 2.2
_symmetry_space_group_name_H-M    P1
_symmetry_Int_Tables_number       1
_space_group_crystal_system       triclinic
_cell_length_a                    9.538566
_cell_length_b                    10.884967
_cell_length_c                    13.689311
_cell_angle_alpha                 89.626025
_cell_angle_beta                  73.510435
_cell_angle_gamma                 91.477491
_cell_volume                      1362.26769659

loop_
_atom_site_label
_atom_site_type_symbol
_atom_site_description
_atom_site_fract_x
_atom_site_fract_y
_atom_site_fract_z
_atom_type_partial_charge
O1    O     O_R   0.381250 0.680340 0.500010 -0.609741
O2    O     O_R   0.618820 0.680370 0.500010 -0.507335
C1    C     C_R   0.502822 0.737473 0.497211 0.916707
O3    O     O_R   0.323240 0.499950 0.650980 -0.522039
O4    O     O_R   0.560810 0.499980 0.650980 -0.595118
C2    C     C_R   0.423485 0.490889 0.699801 0.844294
Cu1   Cu    Cu3+1 0.359340 0.499980 0.500000 1.091140
Cu2   Cu    Cu3+1 0.640660 0.500020 0.500000 1.098768
O5    O     O_R   0.381180 0.319630 0.499990 -0.526455
O6    O     O_R   0.618750 0.319660 0.499990 -0.592204
O7    O     O_R   0.439190 0.500020 0.349020 -0.553320
O8    O     O_R   0.676760 0.500050 0.349020 -0.515636
C3    C     C_R   0.498065 0.261714 0.497691 0.889495
C4    C     C_R   0.577856 0.499588 0.300644 0.914489
C5    C     C_R   0.799837 0.578128 0.030147 -0.200480
H1    H     H_    0.856534 0.561622 0.831856 0.193428
H2    H     H_    0.910330 0.606613 0.988247 0.166357
C6    C     C_R   0.622940 0.512324 0.188481 -0.222471
C7    C     C_R   0.237074 0.458365 0.872290 0.383058
C8    C     C_R   0.194181 0.489392 0.974616 -0.147364
C9    C     C_R   0.296105 0.525974 0.023437 -0.121201
C10   C     C_R   0.445658 0.515917 0.975226 0.081501
C11   C     C_R   0.492648 0.500485 0.868047 0.041403
C12   C     C_R   0.550414 0.524213 0.031039 -0.005314
C13   C     C_R   0.696491 0.555333 0.978130 0.045645
C14   C     C_R   0.742371 0.547371 0.873050 -0.111705
C15   C     C_R   0.646106 0.503806 0.821633 -0.073860
C16   C     C_R   0.517601 0.490141 0.135047 0.225862
C17   C     C_R   0.765963 0.555871 0.134469 0.354290
C18   C     C_R   0.384627 0.480837 0.813728 -0.218671
H3    H     H_    0.256800 0.558677 0.100179 0.237481
H4    H     H_    0.081601 0.478834 0.019006 0.226991
H5    H     H_    0.699786 0.470191 0.747452 0.188071
C19   C     C_R   0.623972 0.939337 0.427431 0.370670
C20   C     C_R   0.623585 0.068113 0.433425 0.213994
C21   C     C_R   0.494638 0.127115 0.488929 -0.321169
C22   C     C_R   0.365987 0.054342 0.534839 0.413069
C23   C     C_R   0.380308 0.929085 0.545600 -0.263165
H6    H     H_    0.286621 0.873489 0.587830 0.212421
C24   C     C_R   0.506734 0.870967 0.492583 -0.244296
C25   C     C_R   0.912328 0.593709 0.544924 0.410392
C26   C     C_R   0.060018 0.591303 0.545810 -0.004852
H7    H     H_    0.104384 0.663987 0.582746 0.163657
N1    N     N_R   0.147940 0.499970 0.499970 -0.200328
C27   C     C_R   0.090778 0.410096 0.452262 0.104126
H8    H     H_    0.160113 0.338376 0.413358 0.222098
C28   C     C_R   0.942333 0.409873 0.452590 -0.004931
H9    H     H_    0.901025 0.339006 0.413024 0.231620
N2    N     N_R   0.852060 0.500060 0.499990 -0.246790
N3    N     N_R   0.882014 0.568727 0.181611 0.148138
O9    O     O_R   0.965476 0.667544 0.163786 -0.333301
O10   O     O_R   0.929737 0.470988 0.215566 -0.295723
N4    N     N_R   0.749961 0.138551 0.376664 0.158361
O11   O     O_R   0.739246 0.217684 0.307624 -0.303204
O12   O     O_R   0.878613 0.112410 0.384751 -0.250224
S1    S     S_3+6 0.182391 0.100553 0.552476 0.072080
O13   O     O_2   0.158830 0.110330 0.448801 -0.232969
O14   O     O_2   0.077138 0.004185 0.613376 -0.235918
O15   O     O_3   0.141965 0.234476 0.611717 -0.451073
H10   H     H_    0.034860 0.240960 0.624444 0.374545
N5    N     N_R   0.832800 0.700760 0.585308 0.133055
O16   O     O_R   0.721601 0.692279 0.666030 -0.364522
O17   O     O_R   0.893494 0.808816 0.558418 -0.268469
N6    N     N_R   0.399016 0.403256 0.176736 0.128928
O18   O     O_R   0.410298 0.290299 0.145663 -0.276079
O19   O     O_R   0.275419 0.438187 0.237000 -0.342020
S2    S     S_3+6 0.113091 0.363842 0.830368 0.016937
O20   O     O_2   0.062364 0.427848 0.749607 -0.339423
O21   O     O_2   0.190607 0.248785 0.789025 -0.216809
O22   O     O_3   0.966048 0.325153 0.928129 -0.518088
H11   H     H_    0.898581 0.280222 0.896753 0.388662
S3    S     S_3+6 0.750851 0.867035 0.324156 0.116579
O23   O     O_2   0.869527 0.810774 0.360429 -0.176295
O24   O     O_2   0.670787 0.768322 0.283699 -0.347733
O25   O     O_3   0.826885 0.966678 0.228104 -0.418522
H12   H     H_    0.891992 0.916824 0.174614 0.400505

loop_
_geom_bond_atom_site_label_1
_geom_bond_atom_site_label_2
_geom_bond_distance
_ccdc_geom_bond_type
C20   N4    1.434419 S    
C25   C26   1.413149 A    
C4    C6    1.476836 S    
C7    C8    1.389824 A    
C25   N5    1.433455 S    
Cu1   Cu2   2.683379 S    
C28   N2    1.364153 A    
N4    O11   1.301689 A    
C15   H5    1.070801 S    
Cu1   O7    1.989512 S    
C9    H3    1.076612 S    
C14   C15   1.382830 A    
C19   C24   1.407863 A    
C21   C22   1.426155 A    
O3    Cu1   1.996560 S    
O4    C2    1.291410 A    
O7    C4    1.300442 A    
C5    C13   1.388728 A    
S1    O13   1.502125 D    
C5    H2    1.083316 S    
C19   C20   1.404702 A    
N5    O17   1.300895 A    
O5    C3    1.287643 A    
C22   S1    1.784694 S    
C20   C21   1.420973 A    
N3    O10   1.301445 A    
C7    S2    1.765429 S    
O22   H11   0.990578 S    
C11   C15   1.420077 A    
C27   C28   1.414622 A    
O15   H10   0.990906 S    
C9    C10   1.398943 A    
C26   N1    1.355674 A    
S3    O25   1.682489 S    
C25   N2    1.388049 A    
C5    C17   1.389979 A    
C17   N3    1.435318 S    
N4    O12   1.301471 A    
H1    C14   1.081396 S    
S2    O20   1.500927 D    
C11   C18   1.444286 A    
C6    C16   1.417739 A    
C12   C13   1.407256 A    
C3    C21   1.471073 S    
S3    O24   1.500025 D    
C13   C14   1.383638 A    
C27   H8    1.078226 S    
O1    C1    1.292372 A    
N6    O19   1.300052 A    
O25   H12   0.990322 S    
C22   C23   1.384797 A    
C28   H9    1.074510 S    
Cu2   O8    1.996561 S    
N3    O9    1.300938 A    
C6    C17   1.421957 A    
Cu1   N1    2.016567 S    
C16   N6    1.439059 S    
O3    C2    1.318127 A    
C2    C18   1.499734 S    
O8    C4    1.297321 A    
C1    C24   1.453104 S    
C10   C12   1.421275 A    
C26   H7    1.081709 S    
C19   S3    1.781888 S    
N1    C27   1.365225 A    
C8    H4    1.076067 S    
Cu1   O5    1.979456 S    
O1    Cu1   1.968945 S    
O2    Cu2   1.979458 S    
C12   C16   1.413096 A    
S3    O23   1.501287 D    
O6    C3    1.306665 A    
O4    Cu2   1.989511 S    
S1    O15   1.672809 S    
S2    O22   1.682909 S    
N6    O18   1.300743 A    
O2    C1    1.292776 A    
C23   C24   1.389125 A    
C23   H6    1.083181 S    
S1    O14   1.504139 D    
N5    O16   1.297270 A    
C8    C9    1.379403 A    
Cu2   O6    1.968945 S    
C10   C11   1.419712 A    
S2    O21   1.501654 D    
C7    C18   1.422170 A    
Cu2   N2    2.016403 S    
