data_str_m9_o4_o16_f0_sra.sym.99
_audit_creation_date              2012-12-11T17:00:27-0500
_audit_creation_method            fapswitch 2.2
_symmetry_space_group_name_H-M    P1
_symmetry_Int_Tables_number       1
_space_group_crystal_system       triclinic
_cell_length_a                    6.975069
_cell_length_b                    13.558673
_cell_length_c                    20.253092
_cell_angle_alpha                 103.018592
_cell_angle_beta                  89.93717
_cell_angle_gamma                 90.38532
_cell_volume                      1866.11559864

loop_
_atom_site_label
_atom_site_type_symbol
_atom_type_description
_atom_site_fract_x
_atom_site_fract_y
_atom_site_fract_z
_atom_type_partial_charge
O1    O     O_R   0.506770 0.599700 0.449550 -0.539205
O2    O     O_R   0.179980 0.595740 0.587960 -0.545413
O3    O     O_R   0.004580 0.400300 0.550450 -0.538397
C1    C     C_R   0.348200 0.617540 0.615104 0.698054
O4    O     O_R   0.177380 0.611700 0.452380 -0.540035
O5    O     O_R   0.001970 0.416370 0.413900 -0.540329
C2    C     C_R   0.345820 0.638059 0.435504 0.695342
O6    O     O_R   0.509390 0.583630 0.586100 -0.536293
O7    O     O_3   0.337530 0.435890 0.487530 -0.374821
V1    V     V_3+5 0.064660 0.511890 0.502310 1.411609
O8    O     O_R   0.671950 0.404260 0.412040 -0.544725
C3    C     C_R   0.840685 0.383656 0.384543 0.698448
O9    O     O_R   0.674540 0.388300 0.547620 -0.539587
C4    C     C_R   0.842584 0.361974 0.564487 0.700148
V2    V     V_3+5 0.564030 0.488110 0.497690 1.410310
O10   O     O_3   0.841030 0.564110 0.512470 -0.369930
C5    C     C_R   0.803433 0.110480 0.610896 -0.129976
H1    H     H_    0.799252 0.160857 0.517909 0.109486
H2    H     H_    0.780258 0.032532 0.584463 0.157956
C6    C     C_R   0.846653 0.284436 0.604130 -0.029509
C7    C     C_R   0.887870 0.319642 0.931540 0.165282
C8    C     C_R   0.891670 0.395049 0.894675 -0.118780
C9    C     C_R   0.877485 0.370684 0.824310 -0.195066
C10   C     C_R   0.857496 0.269030 0.787756 0.076690
C11   C     C_R   0.847050 0.192026 0.825215 -0.000106
C12   C     C_R   0.847146 0.241490 0.715366 0.031855
C13   C     C_R   0.818377 0.138002 0.682095 0.138514
C14   C     C_R   0.803998 0.063530 0.720155 0.172437
C15   C     C_R   0.820770 0.090541 0.790501 -0.246357
C16   C     C_R   0.863734 0.313396 0.674601 -0.200653
C17   C     C_R   0.815475 0.183300 0.572459 -0.203991
C18   C     C_R   0.864556 0.217716 0.896936 -0.076222
H3    H     H_    0.886734 0.392869 0.695753 0.092135
H4    H     H_    0.881607 0.433863 0.800304 0.114477
H5    H     H_    0.907504 0.473857 0.920489 0.121549
H6    H     H_    0.811074 0.030449 0.817656 0.116828
C19   C     C_R   0.705842 0.186660 0.225786 0.064250
C20   C     C_R   0.864119 0.185954 0.183342 -0.103527
C21   C     C_R   0.014832 0.252733 0.207955 -0.205779
H7    H     H_    0.131842 0.257469 0.174637 0.153246
C22   C     C_R   0.008182 0.317528 0.273022 -0.177252
H8    H     H_    0.123490 0.371446 0.288678 0.135552
C23   C     C_R   0.851639 0.314407 0.316559 -0.125404
C24   C     C_R   0.704032 0.245509 0.292270 0.072062
C25   C     C_3   0.496678 0.268728 0.289469 -0.023698
C26   C     C_3   0.503906 0.216661 0.214400 -0.014958
H9    H     H_    0.465438 0.351182 0.300131 0.147509
H10   H     H_    0.404861 0.150833 0.199230 0.146787
C27   C     C_R   0.497924 0.677559 0.730479 0.103032
C28   C     C_R   0.351486 0.683315 0.684372 -0.107967
C29   C     C_R   0.196665 0.748142 0.708334 -0.177161
H11   H     H_    0.078354 0.753889 0.675032 0.132052
C30   C     C_R   0.198426 0.811006 0.774050 -0.176892
H12   H     H_    0.082474 0.863735 0.789282 0.124715
C31   C     C_R   0.355170 0.811014 0.817749 -0.111768
C32   C     C_R   0.500039 0.739985 0.795338 0.100359
C33   C     C_3   0.711968 0.754096 0.793769 -0.403821
C34   C     C_3   0.709398 0.686195 0.722922 -0.408021
H13   H     H_    0.786741 0.719769 0.831460 0.172896
H14   H     H_    0.752566 0.833730 0.794798 0.164493
H15   H     H_    0.782896 0.612759 0.719716 0.165384
H16   H     H_    0.747832 0.726305 0.682546 0.177751
C35   C     C_R   0.277803 0.886105 0.387351 -0.164883
H17   H     H_    0.279852 0.837154 0.480831 0.110775
H18   H     H_    0.226763 0.006515 0.303008 0.126313
H19   H     H_    0.240991 0.963050 0.412279 0.116407
C36   C     C_R   0.349695 0.715513 0.395773 -0.034234
C37   C     C_R   0.397931 0.682805 0.069143 -0.167444
C38   C     C_R   0.409725 0.605904 0.104612 0.218277
C39   C     C_R   0.390526 0.629260 0.175185 -0.174276
C40   C     C_R   0.356576 0.729680 0.211725 0.039174
C41   C     C_R   0.334980 0.806426 0.174389 0.066162
C42   C     C_R   0.343103 0.756552 0.284043 0.086271
C43   C     C_R   0.296829 0.857850 0.316640 0.145472
C44   C     C_R   0.267658 0.930227 0.278570 -0.216763
C45   C     C_R   0.290278 0.905775 0.208818 -0.186594
C46   C     C_R   0.372295 0.686542 0.325405 -0.220044
C47   C     C_R   0.301796 0.815029 0.426536 -0.167345
C48   C     C_R   0.360230 0.782414 0.103221 -0.120226
H20   H     H_    0.407305 0.608391 0.304707 0.090458
H21   H     H_    0.418499 0.665302 0.014674 0.103743
H22   H     H_    0.401514 0.566877 0.199792 0.113870
H23   H     H_    0.269569 0.965530 0.182044 0.120198
O11   O     O_R   0.203450 0.916320 0.913910 -0.540160
O12   O     O_R   0.535520 0.888300 0.047620 -0.537947
O13   O     O_R   0.710860 0.083650 0.086100 -0.536649
C49   C     C_R   0.366768 0.861391 0.064154 0.699352
O14   O     O_R   0.532860 0.904250 0.912040 -0.543552
O15   O     O_R   0.708190 0.099710 0.949550 -0.539760
C50   C     C_R   0.364432 0.882455 0.884909 0.697299
O16   O     O_R   0.206120 0.900260 0.050460 -0.538830
O17   O     O_3   0.375280 0.064080 0.012470 -0.373881
V3    V     V_3+5 0.648180 0.988110 0.997690 1.410087
O18   O     O_R   0.038220 0.111740 0.952370 -0.540157
C51   C     C_R   0.870051 0.138216 0.935672 0.709455
O19   O     O_R   0.040880 0.095790 0.087940 -0.548014
C52   C     C_R   0.872055 0.118280 0.114765 0.705310
V4    V     V_3+5 0.148800 0.011950 0.002300 1.402117
O20   O     O_3   0.871820 0.935920 0.987530 -0.370656
C53   C     C_3   0.382415 0.211068 0.333792 -0.801318
H24   H     H_    0.235875 0.193203 0.313804 0.220476
H25   H     H_    0.452395 0.138459 0.335988 0.204898
H26   H     H_    0.372449 0.257911 0.386175 0.234910
C54   C     C_3   0.497620 0.293011 0.167855 -0.811028
H27   H     H_    0.470935 0.252160 0.114682 0.227948
H28   H     H_    0.384589 0.350481 0.183854 0.192723
H29   H     H_    0.633494 0.336800 0.169630 0.221027
N1    N     N_3   0.772206 0.959417 0.687346 -0.698593
H30   H     H_    0.886366 0.917223 0.699453 0.221561
H31   H     H_    0.646700 0.934693 0.707066 0.237618
C55   C     C_3   0.445893 0.498442 0.067881 -0.802345
H32   H     H_    0.461855 0.491354 0.012428 0.216325
H33   H     H_    0.579400 0.471252 0.087439 0.213553
H34   H     H_    0.324341 0.449586 0.076558 0.211455
C56   C     C_3   0.908694 0.348719 0.007644 -0.816909
H35   H     H_    0.920473 0.432040 0.026677 0.213315
H36   H     H_    0.781980 0.321543 0.031844 0.200689
H37   H     H_    0.039883 0.313961 0.023249 0.208809

loop_
_geom_bond_atom_site_label_1
_geom_bond_atom_site_label_2
_ccdc_geom_bond_type
C34   H16   S    
C31   C32   A    
C49   O16   A    
C22   H8    S    
C55   H32   S    
C36   C46   A    
C7    C56   S    
C48   C49   S    
O17   V4    S    
C21   C22   A    
C6    C16   A    
C25   C26   S    
N1    H30   S    
C8    H5    S    
C15   H6    S    
C12   C13   A    
C37   H21   S    
C14   C15   A    
C10   C12   A    
C3    C23   S    
O5    C3    A    
C20   C21   A    
C33   H13   S    
O18   V4    S    
C56   H35   S    
V4    O20   S    
C32   C33   S    
C42   C43   A    
C25   H9    S    
O13   C52   A    
C53   H24   S    
C14   N1    S    
O12   V3    S    
C37   C38   A    
C56   H36   S    
O19   V4    S    
C9    C10   A    
C39   C40   A    
O1    V2    S    
O7    V1    S    
V3    O20   S    
C1    O6    A    
C9    H4    S    
C34   H15   S    
O12   C49   A    
C35   H19   S    
C7    C8    A    
C22   C23   A    
O18   C51   A    
C36   C47   A    
O11   C50   A    
C20   C52   S    
C45   H23   S    
C54   H28   S    
C54   H27   S    
C30   C31   A    
C11   C15   A    
C7    C18   A    
C26   H10   S    
C43   C44   A    
C29   H11   S    
C5    C13   A    
C4    C6    S    
C10   C11   A    
C21   H7    S    
C40   C42   A    
C33   H14   S    
C30   H12   S    
C26   C54   S    
C53   H26   S    
C27   C34   S    
C1    C28   S    
C29   C30   A    
O15   C51   A    
O2    C1    A    
C44   C45   A    
C19   C20   A    
O13   V3    S    
C56   H37   S    
O19   C52   A    
C53   H25   S    
C28   C29   A    
C41   C45   A    
C55   H33   S    
O3    C4    A    
C41   C48   A    
O14   C50   A    
C12   C16   A    
O6    V2    S    
O8    V2    S    
O9    V2    S    
C23   C24   A    
C5    C17   A    
O2    V1    S    
C24   C25   S    
O4    C2    A    
C46   H20   S    
O14   V3    S    
C16   H3    S    
O1    C2    A    
H17   C47   S    
C25   C53   S    
O5    V1    S    
O8    C3    A    
C35   C43   A    
C31   C50   S    
C27   C32   A    
H18   C44   S    
O11   V4    S    
C19   C24   A    
O7    V2    S    
O4    V1    S    
O3    V1    S    
V1    O10   S    
C38   C55   S    
C33   C34   S    
C11   C18   A    
O17   V3    S    
C5    H2    S    
N1    H31   S    
C55   H34   S    
O16   V4    S    
O15   V3    S    
C38   C39   A    
C39   H22   S    
C2    C36   S    
C40   C41   A    
C18   C51   S    
C37   C48   A    
C27   C28   A    
C13   C14   A    
C42   C46   A    
C8    C9    A    
H1    C17   S    
C19   C26   S    
O9    C4    A    
C35   C47   A    
C54   H29   S    
V2    O10   S    
C6    C17   A    
