data_str_m9_o2_o16_f0_sra.sym.88
_audit_creation_date              2012-12-11T16:25:37-0500
_audit_creation_method            fapswitch 2.2
_symmetry_space_group_name_H-M    P1
_symmetry_Int_Tables_number       1
_space_group_crystal_system       triclinic
_cell_length_a                    20.13952
_cell_length_b                    7.280599
_cell_length_c                    13.597249
_cell_angle_alpha                 89.999771
_cell_angle_beta                  103.265828
_cell_angle_gamma                 90.000037
_cell_volume                      1940.5332917

loop_
_atom_site_label
_atom_site_type_symbol
_atom_type_description
_atom_site_fract_x
_atom_site_fract_y
_atom_site_fract_z
_atom_type_partial_charge
O1    O     O_R   0.449520 0.506760 0.599710 -0.540663
O2    O     O_R   0.550480 0.006760 0.400290 -0.540665
O3    O     O_R   0.587930 0.180200 0.595790 -0.539966
O4    O     O_R   0.412070 0.680200 0.404210 -0.539966
C1    C     C_R   0.614370 0.344355 0.617554 0.690906
C2    C     C_R   0.385629 0.844354 0.382448 0.690909
O5    O     O_R   0.452350 0.177380 0.611700 -0.537608
O6    O     O_R   0.547650 0.677380 0.388300 -0.537607
O7    O     O_R   0.413930 0.001760 0.416320 -0.535143
O8    O     O_R   0.586070 0.501760 0.583680 -0.535142
C3    C     C_R   0.436355 0.345906 0.637537 0.676736
C4    C     C_R   0.563645 0.845906 0.362463 0.676737
O9    O     O_3   0.487550 0.337460 0.435880 -0.378122
O10   O     O_3   0.512450 0.837460 0.564120 -0.378122
V1    V     V_3+5 0.502310 0.064670 0.511900 1.426703
V2    V     V_3+5 0.497690 0.564670 0.488100 1.426705
C5    C     C_R   0.609464 0.908007 0.111852 -0.143437
C6    C     C_R   0.390537 0.408004 0.888149 -0.143417
H1    H     H_    0.516062 0.895664 0.161261 0.096838
H2    H     H_    0.483939 0.395656 0.838741 0.096835
H3    H     H_    0.692496 0.944352 0.987557 0.125642
H4    H     H_    0.307505 0.444347 0.012444 0.125644
H5    H     H_    0.583271 0.932211 0.033946 0.110127
H6    H     H_    0.416731 0.432205 0.966056 0.110122
C7    C     C_R   0.603401 0.856658 0.285077 -0.012485
C8    C     C_R   0.396600 0.356659 0.714923 -0.012480
C9    C     C_R   0.931382 0.821585 0.314494 -0.173587
C10   C     C_R   0.068619 0.321590 0.685506 -0.173589
C11   C     C_R   0.895756 0.796649 0.389503 -0.122998
C12   C     C_R   0.104245 0.296656 0.610497 -0.123006
C13   C     C_R   0.824932 0.808774 0.366765 -0.190639
C14   C     C_R   0.175069 0.308781 0.633235 -0.190607
C15   C     C_R   0.787639 0.850929 0.267682 0.075241
C16   C     C_R   0.212362 0.350935 0.732318 0.075249
C17   C     C_R   0.824545 0.873892 0.190682 0.055198
C18   C     C_R   0.175455 0.373895 0.809318 0.055187
C19   C     C_R   0.714927 0.864942 0.241881 0.077625
C20   C     C_R   0.285073 0.364949 0.758119 0.077598
C21   C     C_R   0.680895 0.897964 0.139635 0.189223
C22   C     C_R   0.319106 0.397965 0.860365 0.189225
C23   C     C_R   0.718181 0.919006 0.065583 -0.172003
C24   C     C_R   0.281820 0.419005 0.934418 -0.172004
C25   C     C_R   0.788816 0.906585 0.090436 -0.223180
C26   C     C_R   0.211185 0.406586 0.909564 -0.223192
C27   C     C_R   0.674553 0.846857 0.313929 -0.251380
C28   C     C_R   0.325447 0.346868 0.686071 -0.251399
C29   C     C_R   0.571017 0.886926 0.184115 -0.168070
C30   C     C_R   0.428983 0.386922 0.815886 -0.168063
C31   C     C_R   0.896585 0.858262 0.215195 -0.078562
C32   C     C_R   0.103415 0.358265 0.784805 -0.078559
H7    H     H_    0.696585 0.827318 0.393253 0.102404
H8    H     H_    0.303416 0.327336 0.606747 0.102411
H9    H     H_    0.986351 0.809583 0.333874 0.098843
H10   H     H_    0.013649 0.309589 0.666126 0.098846
H11   H     H_    0.801038 0.782751 0.428544 0.121190
H12   H     H_    0.198963 0.282764 0.571456 0.121193
H13   H     H_    0.923219 0.765600 0.465904 0.121957
H14   H     H_    0.076781 0.265610 0.534095 0.121959
H15   H     H_    0.815211 0.923318 0.030057 0.131081
H16   H     H_    0.184789 0.423318 0.969943 0.131085
H17   H     H_    0.101721 0.634506 0.450808 0.115639
H18   H     H_    0.898273 0.134436 0.549197 0.115640
C33   C     C_R   0.235084 0.935744 0.041836 -0.265508
C34   C     C_R   0.764919 0.435774 0.958160 -0.265509
C35   C     C_R   0.293056 0.959794 0.001037 0.483387
C36   C     C_R   0.706948 0.459822 0.998962 0.483383
C37   C     C_R   0.357000 0.968915 0.067286 -0.174508
C38   C     C_R   0.643003 0.468938 0.932715 -0.174515
C39   C     C_R   0.364518 0.940088 0.170556 -0.233708
C40   C     C_R   0.635483 0.440104 0.829445 -0.233705
C41   C     C_R   0.307794 0.898727 0.211124 0.072074
C42   C     C_R   0.692206 0.398739 0.788876 0.072073
C43   C     C_R   0.241625 0.899602 0.145775 0.024647
C44   C     C_R   0.758376 0.399618 0.854223 0.024648
C45   C     C_R   0.316368 0.850782 0.314328 -0.160913
C46   C     C_R   0.683631 0.350782 0.685673 -0.160914
C47   C     C_R   0.258880 0.795982 0.350779 0.062547
C48   C     C_R   0.741118 0.295968 0.649222 0.062547
C49   C     C_R   0.192503 0.799258 0.285686 0.067573
C50   C     C_R   0.807496 0.299240 0.714314 0.067572
C51   C     C_R   0.183613 0.856527 0.183989 -0.151622
C52   C     C_R   0.816387 0.356528 0.816010 -0.151624
C53   C     C_R   0.266227 0.735362 0.451475 -0.145112
C54   C     C_R   0.733769 0.235336 0.548528 -0.145111
C55   C     C_R   0.210055 0.675822 0.486057 -0.136547
C56   C     C_R   0.789940 0.175780 0.513947 -0.136541
C57   C     C_R   0.145195 0.680301 0.423027 -0.121397
C58   C     C_R   0.854801 0.180248 0.576976 -0.121393
C59   C     C_R   0.136214 0.742307 0.323975 -0.139918
C60   C     C_R   0.863784 0.242266 0.676027 -0.139926
H19   H     H_    0.184965 0.940125 0.992017 0.098781
H20   H     H_    0.815038 0.440164 0.007977 0.098794
H21   H     H_    0.401797 0.994669 0.037966 0.135288
H22   H     H_    0.598206 0.494690 0.962037 0.135288
H23   H     H_    0.415517 0.945392 0.217917 0.117185
H24   H     H_    0.584484 0.445403 0.782085 0.117185
H25   H     H_    0.315381 0.730878 0.504298 0.116226
H26   H     H_    0.684615 0.230857 0.495706 0.116229
H27   H     H_    0.217205 0.625047 0.562137 0.126919
H28   H     H_    0.782786 0.124996 0.437869 0.126914
H29   H     H_    0.084998 0.741957 0.277262 0.095355
H30   H     H_    0.915001 0.241905 0.722739 0.095365
O11   O     O_R   0.913760 0.203480 0.916370 -0.536363
O12   O     O_R   0.086240 0.703480 0.083630 -0.536363
O13   O     O_R   0.047590 0.535230 0.888250 -0.542199
O14   O     O_R   0.952410 0.035230 0.111750 -0.542199
C61   C     C_R   0.063763 0.368193 0.862518 0.673358
C62   C     C_R   0.936237 0.868193 0.137482 0.673359
O15   O     O_R   0.912020 0.532880 0.904260 -0.535722
O16   O     O_R   0.087980 0.032880 0.095740 -0.535722
O17   O     O_R   0.949590 0.708460 0.099750 -0.540299
O18   O     O_R   0.050410 0.208460 0.900250 -0.540300
C63   C     C_R   0.885841 0.364726 0.883402 0.684797
C64   C     C_R   0.114159 0.864726 0.116596 0.684801
O19   O     O_3   0.012370 0.375360 0.064120 -0.378191
O20   O     O_3   0.987630 0.875360 0.935880 -0.378192
V3    V     V_3+5 0.997700 0.648160 0.988110 1.408381
V4    V     V_3+5 0.002300 0.148160 0.011890 1.408378
O21   O     O_3   0.290834 0.981172 0.898388 -0.553462
C65   C     C_3   0.232381 0.901355 0.835224 0.099083
H31   H     H_    0.188186 0.995749 0.827304 0.138291
H32   H     H_    0.219455 0.766683 0.864319 0.123369
C66   C     C_3   0.245361 0.867865 0.731166 -0.686595
H33   H     H_    0.284115 0.758215 0.734816 0.215382
H34   H     H_    0.196754 0.825715 0.679592 0.176253
H35   H     H_    0.264067 0.994004 0.701027 0.235633
O22   O     O_3   0.709174 0.481202 0.101612 -0.553458
C67   C     C_3   0.767623 0.401345 0.164770 0.099067
H36   H     H_    0.811825 0.495725 0.172703 0.138289
H37   H     H_    0.780542 0.266679 0.135659 0.123362
C68   C     C_3   0.754642 0.367814 0.268825 -0.686523
H38   H     H_    0.715850 0.258239 0.265148 0.215407
H39   H     H_    0.803245 0.325519 0.320377 0.176231
H40   H     H_    0.735982 0.493990 0.299007 0.235595

loop_
_geom_bond_atom_site_label_1
_geom_bond_atom_site_label_2
_ccdc_geom_bond_type
C36   C38   A    
C33   C35   A    
C9    C11   A    
C61   O18   A    
O1    C3    A    
C42   C46   A    
C68   H40   S    
O2    C4    A    
C67   H36   S    
O16   V4    S    
C2    O7    A    
O15   V3    S    
C66   H33   S    
C21   C23   A    
C68   H39   S    
O20   V3    S    
O5    C3    A    
O13   C61   A    
C5    H5    S    
C27   H7    S    
C6    H6    S    
C46   C48   A    
O11   C63   A    
C54   C56   A    
C56   C58   A    
C66   H34   S    
C47   C53   A    
C28   H8    S    
C36   O22   S    
C5    C21   A    
C39   C41   A    
C6    C22   A    
C60   H30   S    
H17   C57   S    
C10   C32   A    
C35   C37   A    
C51   C64   S    
C17   C31   A    
C13   C15   A    
C12   C14   A    
C17   C25   A    
C7    C29   A    
C16   C18   A    
C65   C66   S    
O15   C63   A    
O5    V1    S    
O6    V2    S    
C20   C22   A    
O14   V4    S    
C23   C25   A    
O13   V3    S    
C24   C26   A    
C44   C52   A    
C43   C51   A    
C65   H32   S    
C31   C62   S    
C47   C49   A    
C49   C59   A    
C55   C57   A    
C9    C31   A    
C2    C45   S    
C8    C30   A    
C42   C44   A    
C49   C51   A    
C10   H10   S    
C66   H35   S    
C33   C43   A    
C3    C8    S    
C39   H23   S    
H18   C58   S    
C15   C19   A    
C6    C30   A    
C37   C39   A    
C14   C16   A    
O4    V2    S    
C40   H24   S    
C55   H27   S    
O18   V4    S    
O6    C4    A    
O19   V4    S    
C35   O21   S    
H1    C29   S    
O1    V2    S    
O2    V1    S    
C45   C47   A    
H2    C30   S    
H3    C23   S    
O4    C2    A    
C53   C55   A    
C11   H13   S    
C57   C59   A    
C32   C61   S    
O12   C64   A    
C18   C26   A    
O11   V4    S    
C34   H20   S    
C19   C27   A    
O22   C67   S    
C67   C68   S    
C7    C27   A    
C18   C32   A    
C65   H31   S    
C41   C43   A    
O12   V3    S    
O16   C64   A    
C59   H29   S    
C16   C20   A    
C5    C29   A    
C52   C63   S    
C58   C60   A    
O3    C1    A    
C67   H37   S    
O21   C65   S    
C9    H9    S    
C25   H15   S    
C62   O17   A    
C4    C7    S    
O17   V3    S    
C54   H26   S    
C1    C46   S    
C10   C12   A    
O7    V1    S    
C1    O8    A    
C19   C21   A    
O8    V2    S    
C41   C45   A    
C56   H28   S    
H4    C24   S    
O14   C62   A    
C26   H16   S    
C12   H14   S    
C22   C24   A    
C15   C17   A    
C50   C52   A    
C48   C50   A    
C50   C60   A    
C38   H22   S    
C20   C28   A    
C8    C28   A    
C48   C54   A    
C11   C13   A    
C53   H25   S    
O9    V2    S    
C33   H19   S    
C37   H21   S    
C38   C40   A    
C34   C44   A    
O10   V1    S    
O3    V1    S    
C40   C42   A    
C13   H11   S    
C14   H12   S    
C68   H38   S    
C34   C36   A    
