data_str_m9_o18_o23_f0_sra.sym.19
_audit_creation_date              2012-12-11T15:30:32-0500
_audit_creation_method            fapswitch 2.2
_symmetry_space_group_name_H-M    P1
_symmetry_Int_Tables_number       1
_space_group_crystal_system       triclinic
_cell_length_a                    6.973276
_cell_length_b                    20.471548
_cell_length_c                    24.427816
_cell_angle_alpha                 89.718889
_cell_angle_beta                  90.40582
_cell_angle_gamma                 89.537003
_cell_volume                      3486.91816353

loop_
_atom_site_label
_atom_site_type_symbol
_atom_type_description
_atom_site_fract_x
_atom_site_fract_y
_atom_site_fract_z
_atom_type_partial_charge
O1    O     O_R   0.507310 0.423620 0.460450 -0.535794
O2    O     O_R   0.170760 0.556060 0.437190 -0.537101
O3    O     O_R   0.004040 0.576380 0.539550 -0.536833
C1    C     C_R   0.338675 0.576161 0.421327 0.723155
O4    O     O_R   0.177350 0.422870 0.454070 -0.537755
O5    O     O_R   0.010680 0.442240 0.556560 -0.535243
C2    C     C_R   0.346252 0.399095 0.443294 0.692810
O6    O     O_R   0.500670 0.557760 0.443440 -0.535385
O7    O     O_3   0.340380 0.506510 0.533610 -0.367005
V1    V     V_3+5 0.064130 0.498790 0.493770 1.418898
O8    O     O_R   0.681170 0.443940 0.562810 -0.537236
C3    C     C_R   0.850466 0.423968 0.578648 0.726137
O9    O     O_R   0.674570 0.577130 0.545930 -0.537310
C4    C     C_R   0.842602 0.601130 0.556361 0.692471
V2    V     V_3+5 0.564560 0.501210 0.506230 1.420870
O10   O     O_3   0.838170 0.493490 0.466390 -0.367378
C5    C     C_R   0.971941 0.839757 0.909288 -0.043578
C6    C     C_R   0.846007 0.662346 0.587799 -0.039843
C7    C     C_R   0.967816 0.721806 0.906526 -0.168337
C8    C     C_R   0.965314 0.779530 0.936177 -0.215508
C9    C     C_R   0.975266 0.842288 0.851163 0.098078
C10   C     C_R   0.943987 0.783394 0.820525 0.087851
C11   C     C_R   0.958870 0.723140 0.849230 0.111896
C12   C     C_R   0.896836 0.781213 0.763131 0.016809
C13   C     C_R   0.910383 0.721080 0.733744 0.054045
C14   C     C_R   0.948439 0.663389 0.763944 -0.173018
C15   C     C_R   0.964031 0.664331 0.820650 -0.192349
C16   C     C_R   0.815146 0.835527 0.736108 -0.200604
C17   C     C_R   0.773143 0.835317 0.680142 0.143996
C18   C     C_R   0.804957 0.778012 0.649366 0.123175
C19   C     C_R   0.873078 0.720010 0.675886 0.049137
C20   C     C_R   0.761956 0.776786 0.592811 -0.160729
C21   C     C_R   0.779632 0.719555 0.562851 -0.176314
C22   C     C_R   0.896161 0.662701 0.643543 -0.203555
H1    H     H_    0.981238 0.618337 0.842409 0.119867
H2    H     H_    0.738929 0.719713 0.519946 0.104644
H3    H     H_    0.973162 0.675747 0.928585 0.119730
H4    H     H_    0.966588 0.777188 0.980512 0.114712
H5    H     H_    0.954287 0.615807 0.745431 0.118641
H6    H     H_    0.773057 0.878069 0.759130 0.153071
H7    H     H_    0.709389 0.819621 0.571217 0.126511
C23   C     C_3   0.785683 0.264092 0.806818 0.001876
C24   C     C_3   0.144406 0.243416 0.779727 0.371450
C25   C     C_3   0.111326 0.298387 0.733741 0.039904
H8    H     H_    0.775472 0.364319 0.770328 0.160212
H9    H     H_    0.205894 0.287447 0.698269 0.125943
C26   C     C_1   0.861637 0.379221 0.624816 -0.198648
C27   C     C_3   0.943316 0.210960 0.793660 0.254635
C28   C     C_3   0.758927 0.312666 0.757583 -0.335060
C29   C     C_3   0.900495 0.296064 0.710856 0.207414
C30   C     C_3   0.857981 0.225128 0.692021 -0.409283
C31   C     C_3   0.866811 0.176448 0.741030 -0.434908
C32   C     C_1   0.875110 0.341765 0.663435 -0.067022
C33   C     C_1   0.956035 0.161448 0.838821 -0.066961
C34   C     C_1   0.964018 0.122003 0.876099 -0.199725
H10   H     H_    0.713234 0.222968 0.672628 0.164521
H11   H     H_    0.651281 0.236102 0.810965 0.146588
H12   H     H_    0.963234 0.209965 0.660425 0.151894
C35   C     C_3   0.524846 0.680030 0.248399 -0.347136
C36   C     C_3   0.190044 0.722938 0.262542 -0.338789
C37   C     C_3   0.214896 0.774851 0.215732 0.057630
H13   H     H_    0.083572 0.739416 0.293362 0.145655
H14   H     H_    0.132168 0.677125 0.244748 0.123187
H15   H     H_    0.168219 0.751879 0.176784 0.133502
C38   C     C_1   0.476259 0.878597 0.124674 -0.201557
C39   C     C_3   0.384417 0.707988 0.291564 0.199434
C40   C     C_3   0.548130 0.728182 0.198910 -0.051870
C41   C     C_3   0.432463 0.793426 0.209353 0.258212
C42   C     C_3   0.514332 0.820692 0.265000 0.010059
C43   C     C_3   0.465514 0.773443 0.313226 -0.338280
C44   C     C_1   0.460807 0.840448 0.162784 -0.073329
C45   C     C_1   0.360768 0.660413 0.337649 -0.071190
C46   C     C_1   0.347437 0.621824 0.375540 -0.197085
H16   H     H_    0.597466 0.763991 0.338049 0.124852
H17   H     H_    0.358660 0.796135 0.341107 0.159699
H18   H     H_    0.673163 0.820781 0.261643 0.122923
H19   H     H_    0.667603 0.671273 0.267912 0.129198
H20   H     H_    0.702862 0.740479 0.196130 0.132728
C47   C     C_R   0.472114 0.162125 0.088321 -0.083755
C48   C     C_R   0.352724 0.338575 0.410791 -0.041039
C49   C     C_R   0.528275 0.278955 0.091713 0.177757
C50   C     C_R   0.520220 0.220408 0.062500 -0.163573
C51   C     C_R   0.431870 0.161681 0.144477 -0.223423
C52   C     C_R   0.441275 0.219781 0.176269 0.052851
C53   C     C_R   0.489900 0.278937 0.148844 0.123112
C54   C     C_R   0.406158 0.220939 0.234326 0.071167
C55   C     C_R   0.419898 0.281115 0.264053 0.060837
C56   C     C_R   0.467421 0.338082 0.234825 -0.196697
C57   C     C_R   0.501015 0.336960 0.178952 -0.198693
C58   C     C_R   0.358201 0.163853 0.263742 -0.185888
C59   C     C_R   0.324534 0.165185 0.319654 -0.205771
C60   C     C_R   0.336439 0.223233 0.348979 0.140251
C61   C     C_R   0.384906 0.282343 0.322037 0.085606
C62   C     C_R   0.297928 0.222374 0.405307 -0.162974
C63   C     C_R   0.304424 0.279585 0.435752 -0.169255
C64   C     C_R   0.393822 0.340077 0.354467 -0.214759
H21   H     H_    0.537125 0.382856 0.159640 0.136363
H22   H     H_    0.427910 0.387115 0.337347 0.092594
H23   H     H_    0.552740 0.219920 0.019150 0.107882
H24   H     H_    0.397962 0.114865 0.161992 0.101459
H25   H     H_    0.480474 0.385070 0.253997 0.121422
H26   H     H_    0.260160 0.177251 0.425816 0.110702
O11   O     O_R   0.323590 0.942280 0.056590 -0.534548
O12   O     O_R   0.647030 0.077140 0.045940 -0.537693
O13   O     O_R   0.813570 0.057750 0.943430 -0.534649
C65   C     C_R   0.478196 0.101012 0.056614 0.704927
O14   O     O_R   0.653510 0.943950 0.062820 -0.537157
O15   O     O_R   0.820100 0.923600 0.960440 -0.537119
C66   C     C_R   0.485553 0.923920 0.078712 0.726796
O16   O     O_R   0.317060 0.076430 0.039590 -0.535414
O17   O     O_3   0.483830 0.993520 0.966410 -0.368575
V3    V     V_3+5 0.760140 0.001200 0.006230 1.421202
O18   O     O_R   0.149560 0.922820 0.954030 -0.539981
C67   C     C_R   0.981076 0.899270 0.943123 0.713679
O19   O     O_R   0.143080 0.056020 0.937150 -0.538637
C68   C     C_R   0.973841 0.075980 0.921340 0.730918
V4    V     V_3+5 0.259690 0.998730 0.993720 1.416604
O20   O     O_3   0.986120 0.006480 0.033580 -0.367208
C69   C     C_3   0.801822 0.299985 0.862116 -0.821511
H27   H     H_    0.656581 0.313389 0.876856 0.206815
H28   H     H_    0.869677 0.268771 0.894169 0.224744
H29   H     H_    0.880517 0.346569 0.858541 0.212338
C70   C     C_3   0.285445 0.191263 0.756389 -0.848500
H30   H     H_    0.306516 0.149729 0.785315 0.222140
H31   H     H_    0.238820 0.171950 0.716226 0.197162
H32   H     H_    0.426196 0.213482 0.748238 0.200241
C71   C     C_3   0.245516 0.269273 0.832269 -0.751286
H33   H     H_    0.165632 0.307688 0.853545 0.209426
H34   H     H_    0.274922 0.229203 0.862060 0.205339
H35   H     H_    0.384022 0.291523 0.821917 0.201358
C72   C     C_3   0.170183 0.368450 0.750636 -0.819682
H36   H     H_    0.326258 0.370652 0.759103 0.208613
H37   H     H_    0.142271 0.403897 0.716973 0.214415
H38   H     H_    0.092097 0.385509 0.787251 0.218879
H39   H     H_    0.721157 0.156670 0.748359 0.156553
H40   H     H_    0.953680 0.132672 0.730470 0.170326
H41   H     H_    0.949419 0.617294 0.660434 0.094806
H42   H     H_    0.610024 0.309139 0.741526 0.127644
C73   C     C_3   0.499827 0.694037 0.144405 -0.814837
H43   H     H_    0.604959 0.653958 0.137299 0.213504
H44   H     H_    0.354999 0.672054 0.145025 0.211295
H45   H     H_    0.509124 0.728496 0.109350 0.218891
H46   H     H_    0.472740 0.631540 0.234513 0.162420
C74   C     C_3   0.076863 0.833560 0.222556 -0.806021
H47   H     H_    0.052533 0.845492 0.266186 0.210314
H48   H     H_    0.128510 0.877804 0.201055 0.229344
H49   H     H_    0.935778 0.821713 0.204186 0.190067
C75   C     C_3   0.462742 0.892092 0.278684 -0.794119
H50   H     H_    0.553075 0.908423 0.313600 0.203165
H51   H     H_    0.492046 0.925130 0.243645 0.214889
H52   H     H_    0.311847 0.898122 0.291202 0.223219
H53   H     H_    0.270602 0.277926 0.478962 0.103828
H54   H     H_    0.287582 0.119980 0.340207 0.121953
C76   C     C_3   0.580591 0.340419 0.060987 -0.819145
H55   H     H_    0.605334 0.331031 0.016823 0.211019
H56   H     H_    0.462406 0.376861 0.064034 0.207586
H57   H     H_    0.714512 0.361055 0.078343 0.210932
C77   C     C_3   0.690113 0.896822 0.654589 -0.809743
H58   H     H_    0.786469 0.914707 0.621877 0.205866
H59   H     H_    0.546086 0.886694 0.637065 0.211795
H60   H     H_    0.673613 0.936779 0.684846 0.208710
H61   H     H_    0.344665 0.116749 0.244851 0.122607
C78   C     C_3   0.041954 0.905105 0.824532 -0.824973
H62   H     H_    0.091454 0.897657 0.781987 0.222108
H63   H     H_    0.926267 0.942655 0.825754 0.193828
H64   H     H_    0.169102 0.924191 0.846663 0.216057

loop_
_geom_bond_atom_site_label_1
_geom_bond_atom_site_label_2
_ccdc_geom_bond_type
C13   C19   A    
C18   C20   A    
C55   C56   A    
C9    C78   S    
O14   V3    S    
C4    C6    S    
O13   C68   A    
O2    C1    A    
C7    C8    A    
C75   H52   S    
C1    O6    A    
C72   H38   S    
C35   H19   S    
O12   C65   A    
C56   H25   S    
C70   H30   S    
C25   C72   S    
C27   C33   S    
C14   C15   A    
C58   H61   S    
C36   H14   S    
C16   C17   A    
C78   H63   S    
C75   H51   S    
C59   H54   S    
C42   C43   S    
C3    C26   S    
C35   C39   S    
O5    C3    A    
C18   C19   A    
C73   H45   S    
C14   H5    S    
C70   H31   S    
C34   C68   S    
C16   H6    S    
V2    O10   S    
C21   H2    S    
O16   V4    S    
C42   H18   S    
C36   H13   S    
C30   H10   S    
C50   H23   S    
O15   C67   A    
C7    H3    S    
C77   H60   S    
C35   C40   S    
O8    V2    S    
C39   C45   S    
C78   H62   S    
C41   C42   S    
O19   V4    S    
C64   H22   S    
C43   H16   S    
C20   H7    S    
O1    V2    S    
C11   C15   A    
C48   C64   A    
C40   C73   S    
C24   C27   S    
C76   H56   S    
C26   C32   T    
C36   C39   S    
C9    C10   A    
C77   H59   S    
O14   C66   A    
O11   V4    S    
C40   H20   S    
C74   H49   S    
C23   H11   S    
C25   H9    S    
C5    C67   S    
C49   C50   A    
C69   H28   S    
C29   C32   S    
C30   C31   S    
C78   H64   S    
C12   C13   A    
C76   H57   S    
C74   H48   S    
C54   C58   A    
C24   C71   S    
C59   C60   A    
O12   V3    S    
C53   C57   A    
C54   C55   A    
C45   C46   T    
C70   H32   S    
C15   H1    S    
C13   C14   A    
C38   C44   T    
C5    C9    A    
C49   C76   S    
O15   V3    S    
C47   C65   S    
C57   H21   S    
C36   C37   S    
C37   H15   S    
C7    C11   A    
C24   C25   S    
C71   H34   S    
C17   C18   A    
C8    H4    S    
C37   C74   S    
C51   C52   A    
H8    C28   S    
C73   H43   S    
C60   C62   A    
C29   C30   S    
C76   H55   S    
C19   C22   A    
C30   H12   S    
C23   C27   S    
C52   C53   A    
C48   C63   A    
C6    C22   A    
C38   C66   S    
C1    C46   S    
O3    C4    A    
O18   V4    S    
C40   C41   S    
O13   V3    S    
O6    V2    S    
C51   H24   S    
O9    V2    S    
C77   H58   S    
C31   H40   S    
O9    C4    A    
C10   C12   A    
C72   H36   S    
O2    V1    S    
C24   C70   S    
O4    C2    A    
O18   C67   A    
C65   O16   A    
C69   H29   S    
C25   C29   S    
C42   C75   S    
C33   C34   T    
O17   V3    S    
O1    C2    A    
C5    C8    A    
C12   C16   A    
C52   C54   A    
C74   H47   S    
C72   H37   S    
O5    V1    S    
C47   C50   A    
C69   H27   S    
C17   C77   S    
C61   C64   A    
C22   H41   S    
O17   V4    S    
O11   C66   A    
C20   C21   A    
O7    V2    S    
C71   H35   S    
O4    V1    S    
O3    V1    S    
V1    O10   S    
V4    O20   S    
V3    O20   S    
C73   H44   S    
C37   C41   S    
C58   C59   A    
C39   C43   S    
C41   C44   S    
C55   C61   A    
C60   C61   A    
O7    V1    S    
C75   H50   S    
C62   C63   A    
C23   C69   S    
C6    C21   A    
C23   C28   S    
C35   H46   S    
C47   C51   A    
C27   C31   S    
C56   C57   A    
C62   H26   S    
C28   C29   S    
C43   H17   S    
C31   H39   S    
C10   C11   A    
C63   H53   S    
O19   C68   A    
C28   H42   S    
C49   C53   A    
C71   H33   S    
O8    C3    A    
C2    C48   S    
