data_str_m12_o9_o24_f0_bcu.sym.1
_audit_creation_date              2012-12-11T17:47:25-0500
_audit_creation_method            fapswitch 2.2
_symmetry_space_group_name_H-M    P1
_symmetry_Int_Tables_number       1
_space_group_crystal_system       triclinic
_cell_length_a                    14.865863
_cell_length_b                    14.891145
_cell_length_c                    15.140803
_cell_angle_alpha                 110.428735
_cell_angle_beta                  109.013869
_cell_angle_gamma                 108.753235
_cell_volume                      2586.58172338

loop_
_atom_site_label
_atom_site_type_symbol
_atom_type_description
_atom_site_fract_x
_atom_site_fract_y
_atom_site_fract_z
_atom_type_partial_charge
C1    C     C_R   0.973171 0.247218 0.060623 -0.125712
C2    C     C_R   0.064314 0.139790 0.161633 -0.235066
C3    C     C_R   0.144373 0.022548 0.788900 -0.148594
C4    C     C_R   0.909412 0.934112 0.296106 -0.123190
C5    C     C_R   0.113645 0.034619 0.868290 -0.163890
C6    C     C_R   0.990942 0.996463 0.282213 -0.193888
C7    C     C_R   0.609763 0.308820 0.114189 -0.129419
C8    C     C_R   0.326832 0.679991 0.807294 -0.124459
C9    C     C_R   0.698041 0.386658 0.217995 -0.133330
C10   C     C_R   0.222099 0.612047 0.716824 -0.116492
C11   C     C_R   0.743266 0.353066 0.288885 0.116412
C12   C     C_R   0.093163 0.806113 0.008268 -0.145663
C13   C     C_R   0.155721 0.656969 0.687103 0.116464
C14   C     C_R   0.694065 0.240770 0.256459 -0.167912
C15   C     C_R   0.195496 0.770477 0.748880 -0.190773
C16   C     C_R   0.315427 0.758978 0.225014 -0.130346
C17   C     C_R   0.704893 0.194356 0.794356 -0.136639
C18   C     C_R   0.603728 0.163237 0.153214 -0.108522
C19   C     C_R   0.300016 0.837986 0.839670 -0.103510
C20   C     C_R   0.562574 0.197058 0.081569 -0.102222
C21   C     C_R   0.365747 0.792752 0.868821 -0.112862
C22   C     C_R   0.855216 0.436192 0.487714 -0.252470
C23   C     C_R   0.323919 0.787061 0.326997 0.050275
C24   C     C_R   0.035559 0.584171 0.496973 -0.253859
C25   C     C_R   0.953705 0.510165 0.585026 0.074438
C26   C     C_R   0.939347 0.507748 0.398926 0.067294
C27   C     C_R   0.045123 0.585362 0.590232 0.012619
C28   C     C_R   0.846696 0.433865 0.392740 0.021581
C29   C     C_R   0.187223 0.121023 0.975884 0.110696
C30   C     C_R   0.964422 0.991306 0.182311 0.120469
C31   C     C_R   0.321053 0.182545 0.922484 -0.142298
C32   C     C_R   0.772631 0.875537 0.117126 -0.142434
C33   C     C_R   0.223739 0.014135 0.511304 -0.123629
C34   C     C_R   0.703423 0.129655 0.701508 0.065072
C35   C     C_R   0.916219 0.033782 0.607937 -0.140135
C36   C     C_R   0.311019 0.999269 0.508621 -0.128114
C37   C     C_R   0.814034 0.984819 0.599520 -0.148373
C38   C     C_R   0.332401 0.924117 0.534980 0.107170
C39   C     C_R   0.722713 0.974965 0.521113 0.121120
C40   C     C_R   0.214356 0.409388 0.909181 -0.153562
C41   C     C_R   0.775686 0.592440 0.025563 -0.149539
C42   C     C_R   0.268263 0.867392 0.568338 -0.186943
C43   C     C_R   0.733635 0.007746 0.446864 -0.190775
C44   C     C_R   0.177110 0.877949 0.564584 -0.136640
C45   C     C_R   0.307615 0.501991 0.944105 0.030127
C46   C     C_R   0.836266 0.057480 0.456494 -0.119086
C47   C     C_R   0.154758 0.951106 0.535985 -0.122906
C48   C     C_R   0.927739 0.071577 0.537758 -0.126897
C49   C     C_R   0.522597 0.978141 0.624909 -0.229656
C50   C     C_R   0.522608 0.865163 0.435349 -0.245125
C51   C     C_R   0.619669 0.013712 0.621069 0.053822
C52   C     C_R   0.423735 0.851653 0.432447 0.070286
C53   C     C_R   0.621615 0.949005 0.528066 0.028486
C54   C     C_R   0.424315 0.908485 0.530079 0.017681
C55   C     C_R   0.247880 0.097208 0.815913 -0.095813
C56   C     C_R   0.674554 0.500204 0.950824 0.027164
C57   C     C_R   0.800160 0.874651 0.214190 -0.103431
C58   C     C_R   0.050754 0.042672 0.160218 0.019347
C59   C     C_R   0.160543 0.119298 0.060750 0.022374
C60   C     C_R   0.291743 0.194701 0.003008 -0.159697
C61   C     C_R   0.854557 0.932610 0.100572 -0.146352
C62   C     C_R   0.101077 0.988383 0.115175 0.055485
C63   C     C_R   0.099135 0.165478 0.093637 0.061007
C64   C     C_R   0.999871 0.592359 0.300735 -0.176307
C65   C     C_R   0.943985 0.409067 0.685964 -0.142714
C66   C     C_3   0.463572 0.397518 0.880192 -0.165304
C67   C     C_R   0.947100 0.501774 0.305672 0.061453
C68   C     C_3   0.509185 0.607595 0.983598 -0.180118
C69   C     C_3   0.405910 0.450487 0.828827 -0.150361
C70   C     C_3   0.565852 0.554619 0.034511 -0.142805
C71   C     C_3   0.400008 0.504034 0.931781 0.191291
C72   C     C_3   0.573251 0.500759 0.932228 0.196872
C73   C     C_3   0.456313 0.451692 0.982864 -0.154239
C74   C     C_3   0.518114 0.554175 0.881074 -0.163875
C75   C     C_R   0.304182 0.592827 0.002481 -0.128168
C76   C     C_R   0.684826 0.407817 0.934295 -0.130984
C77   C     C_R   0.913435 0.408985 0.212216 -0.127020
C78   C     C_R   0.963410 0.503306 0.679085 0.044695
C79   C     C_R   0.026786 0.593546 0.781588 -0.103901
C80   C     C_R   0.219510 0.748749 0.312056 -0.119492
C81   C     C_R   0.792418 0.196801 0.700379 -0.143314
C82   C     C_R   0.068199 0.250628 0.972192 -0.139011
C83   C     C_R   0.002743 0.803732 0.099303 -0.138768
C84   C     C_R   0.051498 0.221089 0.045463 0.056897
C85   C     C_R   0.064342 0.870253 0.073730 0.064204
C86   C     C_R   0.173301 0.042408 0.087547 -0.225794
H1    H     H_    0.937520 0.234008 0.109465 0.092915
H2    H     H_    0.377870 0.645249 0.829544 0.116846
H3    H     H_    0.733997 0.472764 0.241455 0.111058
H4    H     H_    0.192760 0.524758 0.669951 0.105258
H5    H     H_    0.727806 0.212842 0.309465 0.107835
H6    H     H_    0.144288 0.805841 0.728762 0.115251
H7    H     H_    0.567169 0.076692 0.127860 0.100647
H8    H     H_    0.329754 0.925174 0.887644 0.115896
H9    H     H_    0.786081 0.379621 0.485972 0.132644
H10   H     H_    0.107440 0.637392 0.499598 0.134957
H11   H     H_    0.033936 0.974686 0.846921 0.116493
H12   H     H_    0.152185 0.833825 0.983722 0.097066
H13   H     H_    0.075046 0.042404 0.345595 0.112267
H14   H     H_    0.430765 0.414247 0.028269 0.116890
H15   H     H_    0.546260 0.595951 0.839638 0.112850
H16   H     H_    0.380926 0.776077 0.206207 0.091152
H17   H     H_    0.658517 0.167502 0.830826 0.088227
H18   H     H_    0.350955 0.259036 0.086239 0.121443
H19   H     H_    0.832874 0.929292 0.023467 0.113509
H20   H     H_    0.085496 0.960734 0.535411 0.101980
H21   H     H_    0.007561 0.111783 0.546328 0.104316
H22   H     H_    0.209965 0.074680 0.494495 0.099950
H23   H     H_    0.088078 0.954668 0.706816 0.105949
H24   H     H_    0.987182 0.046693 0.671665 0.124003
H25   H     H_    0.362291 0.046471 0.486495 0.112666
H26   H     H_    0.807404 0.961360 0.658220 0.112834
H27   H     H_    0.285391 0.811014 0.591211 0.128444
H28   H     H_    0.664496 0.002133 0.386777 0.113237
H29   H     H_    0.123280 0.829271 0.583242 0.113696
H30   H     H_    0.845264 0.087277 0.402431 0.126712
H31   H     H_    0.519129 0.020876 0.696748 0.123805
H32   H     H_    0.523267 0.817869 0.362820 0.125289
H33   H     H_    0.221653 0.009180 0.063331 0.126964
H34   H     H_    0.931042 0.930711 0.369757 0.125119
H35   H     H_    0.027667 0.181215 0.198718 0.126177
H36   H     H_    0.337296 0.408338 0.745083 0.106651
H37   H     H_    0.632716 0.597137 0.119338 0.109579
H38   H     H_    0.445225 0.311193 0.835778 0.102571
H39   H     H_    0.525418 0.693329 0.026261 0.097217
H40   H     H_    0.187777 0.325496 0.852009 0.108730
H41   H     H_    0.794650 0.677380 0.060354 0.125240
H42   H     H_    0.023836 0.676485 0.354349 0.115571
H43   H     H_    0.900659 0.324877 0.620301 0.105835
H44   H     H_    0.358629 0.677524 0.030871 0.089354
H45   H     H_    0.401549 0.237007 0.942489 0.104937
H46   H     H_    0.621049 0.322745 0.885081 0.093983
H47   H     H_    0.860550 0.324545 0.185769 0.108108
H48   H     H_    0.055672 0.678922 0.805010 0.108804
H49   H     H_    0.193375 0.745840 0.369145 0.124218
H50   H     H_    0.823047 0.176442 0.645757 0.134299
H51   H     H_    0.123751 0.245574 0.942520 0.124382
H52   H     H_    0.983918 0.827185 0.163182 0.128590
H53   H     H_    0.272725 0.088575 0.755244 0.129198
H54   H     H_    0.737060 0.827619 0.225771 0.110713
H55   H     H_    0.688312 0.829981 0.053621 0.109272
H56   H     H_    0.494758 0.136468 0.000658 0.105785
H57   H     H_    0.446722 0.844972 0.939095 0.093828
H58   H     H_    0.580037 0.335881 0.058972 0.108756
N1    N     N_R   0.947560 0.293820 0.002910 -0.041730
N2    N     N_R   0.789450 0.443190 0.997090 -0.037717
N3    N     N_R   0.945970 0.443180 0.152110 -0.039635
N4    N     N_R   0.054030 0.556820 0.847890 -0.040686
N5    N     N_R   0.151530 0.706170 0.208880 -0.043444
N6    N     N_R   0.848470 0.293830 0.791120 -0.041551
N7    N     N_R   0.004980 0.293810 0.946140 -0.041408
N8    N     N_R   0.995020 0.706190 0.053860 -0.042350
N9    N     N_R   0.052440 0.706180 0.997090 -0.040899
N10   N     N_R   0.208960 0.706170 0.152110 -0.040357
N11   N     N_R   0.791040 0.293830 0.847890 -0.038910
N12   N     N_R   0.154330 0.443160 0.946140 -0.039091
N13   N     N_R   0.845670 0.556840 0.053860 -0.039936
N14   N     N_R   0.002190 0.556820 0.208880 -0.038476
N15   N     N_R   0.997810 0.443180 0.791120 -0.040591
N16   N     N_R   0.210550 0.556810 0.002910 -0.036621
Ni1   Ni    Ni4+2 0.869690 0.369690 0.000000 0.213639
Ni2   Ni    Ni4+2 0.130310 0.630310 0.000000 0.217628
Ni3   Ni    Ni4+2 0.001390 0.369680 0.869810 0.215643
Ni4   Ni    Ni4+2 0.998610 0.630320 0.130190 0.214125

loop_
_geom_bond_atom_site_label_1
_geom_bond_atom_site_label_2
_ccdc_geom_bond_type
C75   N16   A    
C1    H1    S    
C73   H14   S    
C58   C62   A    
C56   C76   A    
C45   C71   S    
C22   H9    S    
C14   C18   A    
C1    N1    A    
C67   C77   A    
C24   C27   A    
C12   N9    A    
C65   N15   A    
N2    N13   A    
C26   C28   A    
N11   Ni1   S    
C1    C84   A    
C15   C19   A    
N6    Ni3   S    
C62   C86   A    
C34   C51   S    
C80   H49   S    
C77   H47   S    
C12   C85   A    
C26   C67   S    
C11   C28   S    
C19   C21   A    
C24   C26   A    
C32   C61   A    
C38   C42   A    
C82   H51   S    
C24   H10   S    
C43   H28   S    
C11   C14   A    
C66   C69   S    
C68   C74   S    
C81   N6    A    
C33   C36   A    
C55   H53   S    
C69   C71   S    
C41   H41   S    
C37   H26   S    
C31   H45   S    
C15   H6    S    
C3    C55   A    
C70   H37   S    
C66   C72   S    
C29   C59   S    
N12   Ni3   S    
C49   C51   A    
C22   C25   A    
C4    C57   A    
C50   C52   A    
C86   H33   S    
C34   C81   A    
C23   C80   A    
C44   C47   A    
C61   H19   S    
C77   N3    A    
C12   H12   S    
C82   N7    A    
C75   H44   S    
N14   Ni4   S    
C76   N2    A    
C22   C28   A    
C40   C45   A    
C33   H22   S    
C42   C44   A    
C32   C57   A    
C36   H25   S    
C35   C48   A    
C7    H58   S    
N2    Ni1   S    
C52   C54   A    
C5    C29   A    
C80   N5    A    
C62   C85   S    
C46   C48   A    
C50   C53   A    
C25   C78   S    
C64   C67   A    
C20   H56   S    
N12   N16   A    
C44   H29   S    
C72   C74   S    
N3    Ni1   S    
C9    H3    S    
C71   C73   S    
C78   C79   A    
C39   C43   A    
C64   H42   S    
C66   C73   S    
C6    C30   A    
C57   H54   S    
C51   C53   A    
N4    N15   A    
N16   Ni2   S    
C31   C60   A    
N5    N10   A    
C41   C56   A    
C19   H8    S    
C42   H27   S    
C40   N12   A    
C38   C54   S    
C29   C60   A    
C47   H20   S    
C40   H40   S    
C70   C73   S    
C8    C21   A    
C69   C74   S    
N5    Ni4   S    
N1    N7    A    
C9    C11   A    
N13   Ni4   S    
C21   H57   S    
C32   H55   S    
N8    Ni4   S    
C35   H24   S    
C74   H15   S    
C41   N13   A    
C4    C6    A    
C83   C85   A    
C5    H11   S    
C16   C23   A    
N7    Ni3   S    
N6    N11   A    
C13   C15   A    
C16   N10   A    
C33   C47   A    
C66   H38   S    
C49   H31   S    
C17   C34   A    
C17   N11   A    
C2    C63   A    
C35   C37   A    
C81   H50   S    
C83   N8    A    
C2    H35   S    
C16   H16   S    
C7    C9    A    
C79   H48   S    
C65   C78   A    
C56   C72   S    
C50   H32   S    
C59   C63   A    
N10   Ni2   S    
C8    C10   A    
C13   C27   S    
C3    C5    A    
C10   C13   A    
C65   H43   S    
C2    C58   A    
C79   N4    A    
C25   C27   A    
C63   C84   S    
C82   C84   A    
C46   H30   S    
N9    Ni2   S    
C45   C75   A    
N4    Ni2   S    
C6    H13   S    
C31   C55   A    
C36   C38   A    
C17   H17   S    
C59   C86   A    
C37   C39   A    
C76   H46   S    
C23   C52   S    
C39   C53   S    
N1    Ni1   S    
C69   H36   S    
C3    H23   S    
C68   C71   S    
C30   C58   S    
N15   Ni3   S    
C18   C20   A    
C43   C46   A    
C14   H5    S    
C48   H21   S    
N8    N9    A    
C10   H4    S    
C68   C70   S    
C7    C20   A    
C30   C61   A    
C64   N14   A    
C18   H7    S    
C4    H34   S    
C70   C72   S    
C8    H2    S    
C60   H18   S    
N3    N14   A    
C68   H39   S    
C83   H52   S    
C49   C54   A    
