data_str_m4_o15_o24_f0_acs.sym.116
_audit_creation_date              2012-12-11T14:28:14-0500
_audit_creation_method            fapswitch 2.2
_symmetry_space_group_name_H-M    P1
_symmetry_Int_Tables_number       1
_space_group_crystal_system       triclinic
_cell_length_a                    10.922273
_cell_length_b                    19.011639
_cell_length_c                    18.769287
_cell_angle_alpha                 89.949356
_cell_angle_beta                  90.047836
_cell_angle_gamma                 90.01919
_cell_volume                      3897.44519058

loop_
_atom_site_label
_atom_site_type_symbol
_atom_type_description
_atom_site_fract_x
_atom_site_fract_y
_atom_site_fract_z
_atom_type_partial_charge
C1    C     C_R   0.318319 0.964918 0.644888 0.537458
C2    C     C_R   0.318001 0.964502 0.855374 0.539664
C3    C     C_R   0.316193 0.058992 0.361900 0.534035
C4    C     C_R   0.317943 0.035461 0.144655 0.546753
C5    C     C_R   0.817954 0.464646 0.644712 0.540161
C6    C     C_R   0.818488 0.463905 0.855652 0.538720
C7    C     C_R   0.817991 0.535538 0.355409 0.540365
C8    C     C_R   0.818434 0.536058 0.144376 0.538730
C9    C     C_3   0.205165 0.721603 0.459950 -0.117930
C10   C     C_3   0.216610 0.753279 0.049233 -0.135175
C11   C     C_3   0.204927 0.279397 0.540233 -0.117125
C12   C     C_3   0.216680 0.246649 0.950851 -0.135587
C13   C     C_3   0.717456 0.253832 0.450641 -0.135080
C14   C     C_3   0.705331 0.221600 0.040365 -0.118715
C15   C     C_3   0.716246 0.747043 0.549150 -0.135407
C16   C     C_3   0.705386 0.778447 0.959764 -0.118905
C17   C     C_3   0.085836 0.747957 0.426467 0.060498
C18   C     C_3   0.083187 0.745951 0.071911 0.058200
C19   C     C_3   0.085099 0.253517 0.573438 0.060015
C20   C     C_3   0.083276 0.254043 0.928080 0.058130
C21   C     C_3   0.584052 0.246703 0.427812 0.057450
C22   C     C_3   0.585619 0.247648 0.073495 0.059488
C23   C     C_3   0.582833 0.754467 0.571786 0.058363
C24   C     C_3   0.585715 0.752359 0.926487 0.059711
C25   C     C_R   0.318750 0.032745 0.433460 -0.025811
C26   C     C_R   0.316219 0.012490 0.072150 -0.029660
C27   C     C_R   0.318457 0.991950 0.573865 -0.022021
C28   C     C_R   0.316296 0.987350 0.927930 -0.028183
C29   C     C_R   0.816321 0.512883 0.428038 -0.028405
C30   C     C_R   0.819030 0.514189 0.071661 -0.023138
C31   C     C_R   0.816203 0.487777 0.572258 -0.028320
C32   C     C_R   0.819093 0.485679 0.928408 -0.023157
C33   C     C_R   0.541516 0.997117 0.432012 -0.079788
C34   C     C_R   0.539628 0.986447 0.072771 -0.080176
C35   C     C_R   0.541640 0.019610 0.577888 -0.079500
C36   C     C_R   0.539717 0.013393 0.927607 -0.080236
C37   C     C_R   0.039824 0.487024 0.427833 -0.080291
C38   C     C_R   0.042423 0.486064 0.072840 -0.081932
C39   C     C_R   0.039582 0.513931 0.572945 -0.080219
C40   C     C_R   0.042494 0.513791 0.927509 -0.082259
C41   C     C_R   0.651065 0.995257 0.469803 -0.141468
C42   C     C_R   0.649863 0.991564 0.036311 -0.137580
C43   C     C_R   0.652052 0.012261 0.541891 -0.129958
C44   C     C_R   0.649897 0.008438 0.964249 -0.137596
C45   C     C_R   0.149967 0.492060 0.464499 -0.137610
C46   C     C_R   0.152694 0.490477 0.036106 -0.133121
C47   C     C_R   0.149863 0.508880 0.536538 -0.137333
C48   C     C_R   0.152720 0.509467 0.964397 -0.133359
C49   C     C_R   0.429692 0.010484 0.541091 -0.024703
C50   C     C_R   0.427640 0.001199 0.963111 -0.010949
C51   C     C_R   0.430207 0.013328 0.467141 -0.019073
C52   C     C_R   0.427590 0.998599 0.037114 -0.011529
C53   C     C_R   0.927583 0.501765 0.537253 -0.011174
C54   C     C_R   0.930673 0.500829 0.963051 -0.023038
C55   C     C_R   0.927691 0.499153 0.463267 -0.011209
C56   C     C_R   0.930632 0.499004 0.037158 -0.022850
C57   C     C_R   0.206363 0.991338 0.533921 0.006229
C58   C     C_R   0.202219 0.985891 0.966396 -0.002389
C59   C     C_R   0.205556 0.027908 0.470916 -0.001217
C60   C     C_R   0.202195 0.013945 0.033560 -0.003155
C61   C     C_R   0.702169 0.486334 0.533674 -0.002624
C62   C     C_R   0.706571 0.483617 0.967597 0.001566
C63   C     C_R   0.702254 0.514411 0.466494 -0.003018
C64   C     C_R   0.706563 0.516263 0.032352 0.001389
C65   C     C_R   0.094425 0.957180 0.553386 -0.084086
C66   C     C_R   0.087716 0.956370 0.942992 -0.075737
C67   C     C_R   0.090040 0.052723 0.445895 -0.087021
C68   C     C_R   0.087706 0.043460 0.056835 -0.075736
C69   C     C_R   0.587643 0.456759 0.556933 -0.075622
C70   C     C_R   0.592719 0.453458 0.945282 -0.084244
C71   C     C_R   0.587814 0.543961 0.443042 -0.075912
C72   C     C_R   0.592749 0.546432 0.054547 -0.084319
C73   C     C_R   0.983022 0.976127 0.523796 -0.150491
C74   C     C_R   0.977379 0.975310 0.973160 -0.149975
C75   C     C_R   0.980519 0.028377 0.473197 -0.147876
C76   C     C_R   0.977382 0.024544 0.026493 -0.149566
C77   C     C_R   0.477333 0.475818 0.526654 -0.150216
C78   C     C_R   0.482075 0.474110 0.974300 -0.152478
C79   C     C_R   0.477446 0.525113 0.473291 -0.150017
C80   C     C_R   0.482092 0.525770 0.025411 -0.152406
C81   C     C_R   0.181517 0.771191 0.635742 0.555713
C82   C     C_R   0.184992 0.771398 0.863912 0.556379
C83   C     C_R   0.180920 0.229117 0.364403 0.541492
C84   C     C_R   0.185056 0.228569 0.136121 0.557494
C85   C     C_R   0.685288 0.271615 0.636133 0.556849
C86   C     C_R   0.681516 0.271093 0.864291 0.555363
C87   C     C_R   0.684845 0.728619 0.363944 0.556137
C88   C     C_R   0.681533 0.728886 0.135732 0.555413
C89   C     C_R   0.540852 0.770608 0.643694 0.545210
C90   C     C_R   0.545029 0.768854 0.854391 0.543015
C91   C     C_R   0.541438 0.229722 0.356090 0.539426
C92   C     C_R   0.544941 0.231136 0.145585 0.543503
C93   C     C_R   0.044776 0.269113 0.645567 0.542925
C94   C     C_R   0.041123 0.270452 0.856209 0.544844
C95   C     C_R   0.045052 0.731182 0.354393 0.544264
C96   C     C_R   0.041059 0.729545 0.143781 0.545335
C97   C     C_3   0.098564 0.819645 0.462151 -0.127525
C98   C     C_3   0.043816 0.807500 0.025042 -0.116908
C99   C     C_3   0.096795 0.182004 0.538038 -0.125736
C100  C     C_3   0.043772 0.192495 0.974897 -0.116980
C101  C     C_3   0.545069 0.308504 0.474352 -0.116623
C102  C     C_3   0.597809 0.319251 0.037674 -0.127407
C103  C     C_3   0.543324 0.692881 0.525099 -0.117378
C104  C     C_3   0.597881 0.680740 0.962278 -0.127499
C105  C     C_3   0.219225 0.793832 0.497195 -0.146628
C106  C     C_3   0.178874 0.815393 0.001021 -0.148262
C107  C     C_3   0.217974 0.207139 0.503177 -0.149631
C108  C     C_3   0.178818 0.184542 0.999021 -0.148675
C109  C     C_3   0.680115 0.316132 0.498626 -0.148563
C110  C     C_3   0.718849 0.293810 0.002947 -0.147255
C111  C     C_3   0.678364 0.684877 0.501153 -0.148899
C112  C     C_3   0.718889 0.706222 0.997157 -0.147467
C113  C     C_3   0.144466 0.765322 0.560250 0.040716
C114  C     C_3   0.153672 0.763554 0.940118 0.041713
C115  C     C_3   0.143683 0.235738 0.439854 0.039556
C116  C     C_3   0.153764 0.236383 0.059903 0.041530
C117  C     C_3   0.654487 0.264390 0.559713 0.040895
C118  C     C_3   0.644539 0.265016 0.939793 0.041360
C119  C     C_3   0.653306 0.736608 0.440074 0.042147
C120  C     C_3   0.644523 0.734947 0.060227 0.041303
C121  C     C_3   0.024531 0.791286 0.526540 -0.126947
C122  C     C_3   0.020430 0.754959 0.963475 -0.125656
C123  C     C_3   0.023184 0.210664 0.473526 -0.124563
C124  C     C_3   0.020534 0.245035 0.036446 -0.125512
C125  C     C_3   0.521224 0.256233 0.536126 -0.125258
C126  C     C_3   0.524224 0.290574 0.973227 -0.125302
C127  C     C_3   0.520090 0.745369 0.463365 -0.124730
C128  C     C_3   0.524236 0.709348 0.026647 -0.125259
C129  C     C_3   0.011534 0.719383 0.489427 -0.104016
C130  C     C_3   0.059432 0.693135 0.011376 -0.107383
C131  C     C_3   0.011451 0.282619 0.510457 -0.103665
C132  C     C_3   0.059659 0.306854 0.988596 -0.107170
C133  C     C_3   0.559826 0.194285 0.488577 -0.107206
C134  C     C_3   0.511841 0.218687 0.010500 -0.103721
C135  C     C_3   0.559243 0.807277 0.511092 -0.107446
C136  C     C_3   0.511863 0.781246 0.989398 -0.103374
C137  C     C_3   0.131213 0.693718 0.523660 -0.096166
C138  C     C_3   0.193368 0.701375 0.987352 -0.096998
C139  C     C_3   0.131659 0.307545 0.476282 -0.093503
C140  C     C_3   0.193590 0.298557 0.012716 -0.096797
C141  C     C_3   0.693754 0.202092 0.512695 -0.095038
C142  C     C_3   0.631899 0.193392 0.976560 -0.095901
C143  C     C_3   0.693162 0.798862 0.487099 -0.097336
C144  C     C_3   0.631888 0.806586 0.023485 -0.095650
Cr1   Cr    Cr6+3 0.488160 0.884660 0.750000 0.997062
Cr2   Cr    Cr6+3 0.488160 0.115340 0.250000 0.995947
Cr3   Cr    Cr6+3 0.988160 0.384660 0.750000 0.997563
Cr4   Cr    Cr6+3 0.988160 0.615340 0.250000 0.997892
Cr5   Cr    Cr6+3 0.173480 0.883120 0.750000 0.990707
Cr6   Cr    Cr6+3 0.173480 0.116880 0.250000 0.989705
Cr7   Cr    Cr6+3 0.673480 0.383120 0.750000 0.989849
Cr8   Cr    Cr6+3 0.673480 0.616880 0.250000 0.990337
Cr9   Cr    Cr6+3 0.333410 0.727260 0.750000 1.008074
Cr10  Cr    Cr6+3 0.333410 0.272740 0.250000 1.005130
Cr11  Cr    Cr6+3 0.833410 0.227260 0.750000 1.007609
Cr12  Cr    Cr6+3 0.833410 0.772740 0.250000 1.010707
H1    H     H_    0.302841 0.826323 0.502167 0.103167
H2    H     H_    0.238909 0.861616 0.999311 0.112003
H3    H     H_    0.301834 0.174858 0.498864 0.095144
H4    H     H_    0.238740 0.138294 0.000793 0.111547
H5    H     H_    0.740000 0.362420 0.500142 0.111884
H6    H     H_    0.802338 0.326448 0.998173 0.101918
H7    H     H_    0.738331 0.638638 0.499671 0.111946
H8    H     H_    0.802349 0.673604 0.002032 0.101865
H9    H     H_    0.085345 0.870083 0.433402 0.143576
H10   H     H_    0.980791 0.849556 0.043049 0.135028
H11   H     H_    0.082080 0.132206 0.567654 0.141451
H12   H     H_    0.980634 0.150468 0.956835 0.134791
H13   H     H_    0.482435 0.350683 0.456046 0.135397
H14   H     H_    0.583803 0.369484 0.066545 0.141063
H15   H     H_    0.480180 0.650862 0.543193 0.134915
H16   H     H_    0.583917 0.630517 0.933358 0.141022
H17   H     H_    0.951406 0.820249 0.554933 0.106341
H18   H     H_    0.945776 0.752750 0.923855 0.120471
H19   H     H_    0.949322 0.182085 0.445351 0.106440
H20   H     H_    0.945914 0.247263 0.076009 0.120499
H21   H     H_    0.446280 0.254294 0.575498 0.120564
H22   H     H_    0.450824 0.319275 0.944702 0.106192
H23   H     H_    0.445443 0.747468 0.423723 0.121822
H24   H     H_    0.450805 0.680619 0.055077 0.106188
H25   H     H_    0.928608 0.686662 0.483603 0.104861
H26   H     H_    0.010308 0.642526 0.017611 0.129568
H27   H     H_    0.929336 0.315898 0.516336 0.104982
H28   H     H_    0.010597 0.357465 0.982324 0.129643
H29   H     H_    0.509569 0.144345 0.482518 0.125700
H30   H     H_    0.429254 0.185682 0.016261 0.104907
H31   H     H_    0.510721 0.858196 0.516947 0.128363
H32   H     H_    0.429246 0.814194 0.983537 0.105061
H33   H     H_    0.146061 0.643375 0.551345 0.140229
H34   H     H_    0.255569 0.658096 0.971148 0.124785
H35   H     H_    0.147645 0.357683 0.448425 0.139615
H36   H     H_    0.255905 0.341809 0.028975 0.124894
H37   H     H_    0.755471 0.158592 0.529067 0.127260
H38   H     H_    0.647437 0.143056 0.949069 0.139720
H39   H     H_    0.755444 0.842115 0.470765 0.123042
H40   H     H_    0.647384 0.856923 0.051003 0.140125
H41   H     H_    0.273081 0.689242 0.430941 0.113592
H42   H     H_    0.293590 0.754318 0.087731 0.118070
H43   H     H_    0.273046 0.311441 0.569525 0.113372
H44   H     H_    0.293566 0.245561 0.912369 0.117245
H45   H     H_    0.794065 0.254862 0.411987 0.117685
H46   H     H_    0.773306 0.189474 0.069712 0.113784
H47   H     H_    0.793353 0.746127 0.587574 0.117622
H48   H     H_    0.773372 0.810632 0.930529 0.113597
H49   H     H_    0.734213 0.981062 0.442475 0.107384
H50   H     H_    0.734097 0.981923 0.064608 0.106331
H51   H     H_    0.737053 0.016760 0.570910 0.111513
H52   H     H_    0.734140 0.018230 0.936096 0.105902
H53   H     H_    0.234232 0.482310 0.436387 0.105797
H54   H     H_    0.237203 0.480689 0.064174 0.109487
H55   H     H_    0.234076 0.518527 0.564854 0.106158
H56   H     H_    0.237231 0.519358 0.936450 0.109359
H57   H     H_    0.545996 0.981698 0.376835 0.157342
H58   H     H_    0.543480 0.971681 0.128341 0.138824
H59   H     H_    0.545103 0.031209 0.634213 0.142648
H60   H     H_    0.543641 0.028151 0.872041 0.136730
H61   H     H_    0.043848 0.472206 0.372315 0.137078
H62   H     H_    0.045966 0.471860 0.128562 0.142818
H63   H     H_    0.043351 0.528649 0.628506 0.136880
H64   H     H_    0.046097 0.527998 0.871794 0.142811
H65   H     H_    0.080461 0.091935 0.405935 0.173623
H66   H     H_    0.078757 0.085248 0.094630 0.179116
H67   H     H_    0.089334 0.913277 0.588784 0.175769
H68   H     H_    0.078758 0.914585 0.905193 0.179678
H69   H     H_    0.578958 0.585686 0.405126 0.179888
H70   H     H_    0.585114 0.588283 0.092024 0.178877
H71   H     H_    0.578637 0.414870 0.594687 0.179564
H72   H     H_    0.585032 0.411625 0.907786 0.179051
O1    O     O_R   0.575450 0.828820 0.667950 -0.518897
O2    O     O_R   0.575450 0.828820 0.832050 -0.517420
O3    O     O_R   0.575450 0.171180 0.332050 -0.523887
O4    O     O_R   0.575450 0.171180 0.167950 -0.517027
O5    O     O_R   0.075450 0.328820 0.667950 -0.517868
O6    O     O_R   0.075450 0.328820 0.832050 -0.518873
O7    O     O_R   0.075450 0.671180 0.332050 -0.517389
O8    O     O_R   0.075450 0.671180 0.167950 -0.518821
O9    O     O_R   0.416860 0.942890 0.674680 -0.512297
O10   O     O_R   0.416860 0.942890 0.825320 -0.509037
O11   O     O_R   0.416860 0.057110 0.325320 -0.512129
O12   O     O_R   0.416860 0.057110 0.174680 -0.504747
O13   O     O_R   0.916860 0.442890 0.674680 -0.508599
O14   O     O_R   0.916860 0.442890 0.825320 -0.512660
O15   O     O_R   0.916860 0.557110 0.325320 -0.508610
O16   O     O_R   0.916860 0.557110 0.174680 -0.512690
O17   O     O_R   0.213790 0.953680 0.668330 -0.541065
O18   O     O_R   0.213790 0.953680 0.831670 -0.541907
O19   O     O_R   0.213790 0.046320 0.331670 -0.527227
O20   O     O_R   0.213790 0.046320 0.168330 -0.538390
O21   O     O_R   0.713790 0.453680 0.668330 -0.541773
O22   O     O_R   0.713790 0.453680 0.831670 -0.540854
O23   O     O_R   0.713790 0.546320 0.331670 -0.541694
O24   O     O_R   0.713790 0.546320 0.168330 -0.540847
O25   O     O_R   0.121360 0.817890 0.672660 -0.518377
O26   O     O_R   0.121360 0.817890 0.827340 -0.520757
O27   O     O_R   0.121360 0.182110 0.327340 -0.529632
O28   O     O_R   0.121360 0.182110 0.172660 -0.520265
O29   O     O_R   0.621360 0.317890 0.672660 -0.520681
O30   O     O_R   0.621360 0.317890 0.827340 -0.520779
O31   O     O_R   0.621360 0.682110 0.327340 -0.520735
O32   O     O_R   0.621360 0.682110 0.172660 -0.520434
O33   O     O_R   0.206850 0.711370 0.665820 -0.521333
O34   O     O_R   0.206850 0.711370 0.834180 -0.514560
O35   O     O_R   0.206850 0.288630 0.334180 -0.517392
O36   O     O_R   0.206850 0.288630 0.165820 -0.513628
O37   O     O_R   0.706850 0.211370 0.665820 -0.514469
O38   O     O_R   0.706850 0.211370 0.834180 -0.521065
O39   O     O_R   0.706850 0.788630 0.334180 -0.512882
O40   O     O_R   0.706850 0.788630 0.165820 -0.520115
O41   O     O_R   0.457710 0.733190 0.672630 -0.521619
O42   O     O_R   0.457710 0.733190 0.827370 -0.522706
O43   O     O_R   0.457710 0.266810 0.327370 -0.521895
O44   O     O_R   0.457710 0.266810 0.172630 -0.521805
O45   O     O_R   0.957710 0.233190 0.672630 -0.523249
O46   O     O_R   0.957710 0.233190 0.827370 -0.521534
O47   O     O_R   0.957710 0.766810 0.327370 -0.522172
O48   O     O_R   0.957710 0.766810 0.172630 -0.521263
O49   O     O_3   0.331690 0.831680 0.750000 -0.290546
O50   O     O_3   0.331690 0.168320 0.250000 -0.302087
O51   O     O_3   0.831690 0.331680 0.750000 -0.290893
O52   O     O_3   0.831690 0.668320 0.250000 -0.291267
H73   H     H_    0.899956 0.950147 0.540564 0.102387
H74   H     H_    0.893619 0.951875 0.954095 0.103348
H75   H     H_    0.895384 0.048764 0.452680 0.105834
H76   H     H_    0.893630 0.048000 0.045414 0.103390
H77   H     H_    0.393521 0.452389 0.545606 0.103354
H78   H     H_    0.397897 0.450760 0.955649 0.104595
H79   H     H_    0.393753 0.548624 0.454221 0.103439
H80   H     H_    0.397926 0.549113 0.043962 0.104535

loop_
_geom_bond_atom_site_label_1
_geom_bond_atom_site_label_2
_ccdc_geom_bond_type
C6    C32   S    
Cr1   O2    S    
C7    C29   S    
C119  C143  S    
C38   H62   S    
C120  C144  S    
C110  C118  S    
C24   C104  S    
C16   C144  S    
C70   H72   S    
C57   C59   A    
C8    O16   A    
C58   C60   A    
C10   H42   S    
C62   C70   A    
C61   C63   A    
C62   C64   A    
Cr10  O35   S    
C121  H17   S    
C48   H56   S    
C49   C51   A    
C34   C42   A    
C84   O28   A    
Cr4   O15   S    
C50   C52   A    
C23   C89   S    
C128  H24   S    
C97   C105  S    
C40   H64   S    
C41   C43   A    
C87   C119  S    
C90   O42   A    
C42   C44   A    
C20   C132  S    
Cr10  O44   S    
C21   C133  S    
C99   H11   S    
C45   C47   A    
C112  H8    S    
C46   C48   A    
C80   H80   S    
C6    O22   A    
C27   C57   A    
C87   O31   A    
C112  C120  S    
C81   O25   A    
C33   H57   S    
C94   O6    A    
C29   C55   A    
C46   H54   S    
C30   C56   A    
C100  C124  S    
C68   H66   S    
C85   O37   A    
C104  C128  S    
C12   C20   S    
C142  H38   S    
C13   C21   S    
C85   C117  S    
Cr11  O37   S    
C115  C139  S    
C113  C137  S    
C36   C44   A    
C33   C51   A    
C86   O38   A    
C37   C45   A    
C130  C138  S    
C36   C50   A    
C39   C47   A    
C40   C48   A    
C20   C94   S    
C133  C141  S    
C76   H76   S    
Cr1   O49   S    
C77   H77   S    
C24   C90   S    
C15   H47   S    
C28   C58   A    
C98   C106  S    
C61   C69   A    
C33   C41   A    
C111  H7    S    
C1    O17   A    
C10   C18   S    
C126  H22   S    
Cr12  O48   S    
C32   C62   A    
C129  C137  S    
C126  C134  S    
C7    O23   A    
C92   O4    A    
C84   O36   A    
C10   C138  S    
C85   O29   A    
C16   H48   S    
C102  H14   S    
C14   C142  S    
C81   O33   A    
Cr5   O18   S    
C47   H55   S    
C134  H30   S    
C83   O35   A    
C71   C79   A    
C110  H6    S    
Cr6   O20   S    
C74   C76   A    
C103  C111  S    
C78   C80   A    
Cr3   O13   S    
Cr5   O25   S    
C66   C74   A    
C124  C132  S    
C111  C119  S    
C67   H65   S    
C97   C121  S    
C59   C67   A    
C35   C49   A    
C101  C125  S    
Cr5   O49   S    
C35   C43   A    
C133  H29   S    
C24   C136  S    
C135  C143  S    
C84   C116  S    
C136  H32   S    
C103  H15   S    
C131  H27   S    
Cr11  O46   S    
C135  H31   S    
C9    H41   S    
Cr7   O22   S    
Cr2   O3    S    
C79   H79   S    
C23   C103  S    
C100  C108  S    
C83   C115  S    
C104  C112  S    
C1    O9    A    
C122  H18   S    
C45   H53   S    
C91   O3    A    
C93   O45   A    
Cr12  O40   S    
C57   C65   A    
Cr1   O10   S    
C12   H44   S    
C141  H37   S    
C60   C68   A    
C98   H10   S    
C15   C143  S    
C40   C54   A    
C96   O48   A    
C10   C106  S    
C67   C75   A    
Cr8   O24   S    
Cr7   O29   S    
C73   H73   S    
C14   C110  S    
Cr1   O1    S    
C8    O24   A    
C102  C126  S    
C123  H19   S    
C144  H40   S    
C68   C76   A    
Cr4   O7    S    
C127  H23   S    
C14   C22   S    
C72   C80   A    
C36   H60   S    
C125  H21   S    
Cr8   O31   S    
Cr6   O27   S    
C14   H46   S    
C114  C138  S    
C38   C46   A    
Cr10  O36   S    
C37   C55   A    
Cr3   O6    S    
C113  C121  S    
Cr4   O16   S    
C22   C92   S    
C90   O2    A    
C25   C59   A    
Cr2   O50   S    
C26   C60   A    
C78   H78   S    
C27   C49   A    
C87   O39   A    
C119  C127  S    
C29   C63   A    
C30   C64   A    
C73   C75   A    
C31   C61   A    
Cr9   O42   S    
C37   H61   S    
C109  C117  S    
C11   C19   S    
C127  C135  S    
Cr12  O52   S    
C139  H35   S    
C128  C136  S    
C92   O44   A    
C101  C109  S    
C95   O47   A    
Cr9   O49   S    
C11   C139  S    
C86   O30   A    
C69   C77   A    
C105  H1    S    
C82   O34   A    
C12   C140  S    
C101  H13   S    
C17   C95   S    
C13   C141  S    
C88   C120  S    
C19   C93   S    
C104  H16   S    
C77   C79   A    
Cr5   O17   S    
C72   H70   S    
C3    O19   A    
C32   C54   A    
C43   H51   S    
C5    O21   A    
C3    C25   S    
C115  C123  S    
C35   H59   S    
C34   H58   S    
C93   O5    A    
Cr4   O52   S    
C83   O27   A    
C117  C141  S    
C134  C142  S    
C107  H3    S    
C20   C100  S    
C143  H39   S    
C4    O12   A    
C86   C118  S    
C63   C71   A    
C124  H20   S    
C22   C134  S    
C102  C110  S    
Cr10  O43   S    
C65   H67   S    
C16   C112  S    
C12   C108  S    
C21   C91   S    
C105  C113  S    
C19   C99   S    
C116  C124  S    
C123  C131  S    
C88   O40   A    
C121  C129  S    
C94   O46   A    
C4    C26   S    
C120  C128  S    
C132  C140  S    
C99   C107  S    
C34   C52   A    
C23   C135  S    
C8    C30   S    
Cr9   O33   S    
C108  C116  S    
C2    O18   A    
C136  C144  S    
C132  H28   S    
C39   C53   A    
C97   H9    S    
C42   H50   S    
C11   H43   S    
Cr11  O38   S    
C88   O32   A    
Cr2   O11   S    
C74   H74   S    
C81   C113  S    
C82   O26   A    
C9    C105  S    
C71   H69   S    
C3    O11   A    
C70   C78   A    
C18   C96   S    
Cr11  O45   S    
Cr7   O21   S    
Cr2   O4    S    
C106  C114  S    
C89   O41   A    
C91   O43   A    
C75   H75   S    
C44   H52   S    
C65   C73   A    
Cr7   O51   S    
C4    O20   A    
Cr12  O47   S    
C5    C31   S    
Cr8   O52   S    
C28   C50   A    
C58   C66   A    
Cr1   O9    S    
Cr11  O51   S    
C21   C101  S    
C15   C23   S    
C13   C109  S    
C16   C24   S    
C138  H34   S    
C95   O7    A    
C69   H71   S    
C53   C55   A    
C19   C131  S    
Cr6   O19   S    
C54   C56   A    
C17   C129  S    
C15   C111  S    
Cr10  O50   S    
C131  C139  S    
C82   C114  S    
C66   H68   S    
C130  H26   S    
C2    O10   A    
Cr3   O14   S    
Cr5   O26   S    
C106  H2    S    
Cr4   O8    S    
Cr6   O50   S    
C26   C52   A    
Cr8   O32   S    
Cr6   O28   S    
C96   O8    A    
C38   C56   A    
C31   C53   A    
Cr9   O34   S    
C107  C115  S    
C137  H33   S    
Cr3   O5    S    
C9    C17   S    
C11   C107  S    
C140  H36   S    
C103  C127  S    
C99   C123  S    
C125  C133  S    
C129  H25   S    
Cr9   O41   S    
Cr2   O12   S    
C118  C142  S    
C39   H63   S    
Cr3   O51   S    
C108  H4    S    
C18   C98   S    
C25   C51   A    
C22   C102  S    
C100  H12   S    
C5    O13   A    
C9    C137  S    
C109  H5    S    
Cr12  O39   S    
C17   C97   S    
C13   H45   S    
C64   C72   A    
C41   H49   S    
C18   C130  S    
C114  C122  S    
C98   C122  S    
C7    O15   A    
C1    C27   S    
C6    O14   A    
C2    C28   S    
C118  C126  S    
C89   O1    A    
C117  C125  S    
C122  C130  S    
Cr8   O23   S    
Cr7   O30   S    
C116  C140  S    
