data_str_m9_o17_o18_f0_sra.sym.23
_audit_creation_date              2012-12-11T15:18:32-0500
_audit_creation_method            fapswitch 2.2
_symmetry_space_group_name_H-M    P1
_symmetry_Int_Tables_number       1
_space_group_crystal_system       triclinic
_cell_length_a                    6.944126
_cell_length_b                    19.928239
_cell_length_c                    23.783641
_cell_angle_alpha                 93.588855
_cell_angle_beta                  91.287994
_cell_angle_gamma                 88.57126
_cell_volume                      3283.08279112

loop_
_atom_site_label
_atom_site_type_symbol
_atom_type_description
_atom_site_fract_x
_atom_site_fract_y
_atom_site_fract_z
_atom_type_partial_charge
O1    O     O_R   0.620100 0.812200 0.810870 -0.541424
O2    O     O_R   0.379900 0.187800 0.189130 -0.541424
O3    O     O_R   0.296960 0.671650 0.794750 -0.539332
O4    O     O_R   0.703040 0.328350 0.205250 -0.539332
O5    O     O_R   0.120160 0.687800 0.689130 -0.540875
O6    O     O_R   0.879840 0.312200 0.310870 -0.540875
C1    C     C_R   0.468735 0.647047 0.804594 0.693978
C2    C     C_R   0.531265 0.352952 0.195406 0.693978
O7    O     O_R   0.290810 0.810670 0.817290 -0.540044
O8    O     O_R   0.709190 0.189330 0.182710 -0.540045
O9    O     O_R   0.113980 0.827820 0.711840 -0.533519
O10   O     O_R   0.886020 0.172180 0.288160 -0.533519
C3    C     C_R   0.459503 0.832005 0.834125 0.710397
C4    C     C_R   0.540497 0.167994 0.165875 0.710397
O11   O     O_R   0.626290 0.672180 0.788160 -0.536546
O12   O     O_R   0.373710 0.327820 0.211840 -0.536546
O13   O     O_3   0.451520 0.755460 0.715370 -0.369582
O14   O     O_3   0.548480 0.244540 0.284630 -0.369582
V1    V     V_3+5 0.179200 0.748980 0.756420 1.422642
V2    V     V_3+5 0.820800 0.251020 0.243580 1.422642
O15   O     O_R   0.783880 0.828350 0.705250 -0.539076
O16   O     O_R   0.216120 0.171650 0.294750 -0.539075
C5    C     C_R   0.949820 0.852653 0.694839 0.700179
C6    C     C_R   0.050180 0.147347 0.305161 0.700179
O17   O     O_R   0.790030 0.689320 0.682700 -0.544130
O18   O     O_R   0.209970 0.310680 0.317300 -0.544130
C7    C     C_R   0.958979 0.668203 0.665653 0.704622
C8    C     C_R   0.041021 0.331797 0.334347 0.704622
V3    V     V_3+5 0.678400 0.751010 0.743570 1.416840
V4    V     V_3+5 0.321600 0.248990 0.256430 1.416840
O19   O     O_3   0.955950 0.744540 0.784620 -0.367692
O20   O     O_3   0.044050 0.255460 0.215380 -0.367692
C9    C     C_R   0.181327 0.425833 0.396389 -0.222074
C10   C     C_R   0.818673 0.574167 0.603611 -0.222074
C11   C     C_R   0.030865 0.380824 0.383968 -0.082046
C12   C     C_R   0.969135 0.619175 0.616031 -0.082046
C13   C     C_R   0.868435 0.383743 0.418558 -0.223461
C14   C     C_R   0.131565 0.616257 0.581441 -0.223461
C15   C     C_R   0.856281 0.430447 0.465205 0.089796
C16   C     C_R   0.143719 0.569552 0.534794 0.089795
C17   C     C_R   0.006345 0.476063 0.476817 0.052916
C18   C     C_R   0.993655 0.523937 0.523183 0.052916
C19   C     C_R   0.168927 0.473956 0.442091 0.090827
C20   C     C_R   0.831073 0.526044 0.557909 0.090827
C21   C     C_R   0.696572 0.432408 0.500480 -0.192104
C22   C     C_R   0.303428 0.567591 0.499520 -0.192104
C23   C     C_R   0.684265 0.479676 0.546447 -0.184106
C24   C     C_R   0.315734 0.520324 0.453553 -0.184106
H1    H     H_    0.306286 0.424339 0.369765 0.121125
H2    H     H_    0.693714 0.575661 0.630235 0.121125
H3    H     H_    0.752185 0.349107 0.409517 0.126045
H4    H     H_    0.247815 0.650893 0.590483 0.126045
H5    H     H_    0.580286 0.397625 0.492310 0.133518
H6    H     H_    0.419714 0.602375 0.507690 0.133518
H7    H     H_    0.558972 0.480248 0.572838 0.134799
H8    H     H_    0.441027 0.519752 0.427162 0.134800
C25   C     C_R   0.948291 0.914087 0.663226 -0.048113
C26   C     C_R   0.051708 0.085913 0.336774 -0.048114
C27   C     C_R   0.869282 0.032621 0.660047 -0.155454
C28   C     C_R   0.130718 0.967379 0.339953 -0.155454
C29   C     C_R   0.885751 0.974830 0.689909 -0.151438
C30   C     C_R   0.114249 0.025170 0.310091 -0.151437
C31   C     C_R   0.993858 0.911424 0.605723 -0.216061
C32   C     C_R   0.006142 0.088576 0.394277 -0.216061
C33   C     C_R   0.974628 0.969642 0.573791 0.087172
C34   C     C_R   0.025372 0.030358 0.426209 0.087172
C35   C     C_R   0.911540 0.030551 0.602506 0.134891
C36   C     C_R   0.088459 0.969448 0.397493 0.134890
C37   C     C_R   0.012822 0.969581 0.514560 0.058463
C38   C     C_R   0.987178 0.030418 0.485440 0.058463
C39   C     C_R   0.924865 0.089259 0.516563 -0.186837
C40   C     C_R   0.075135 0.910741 0.483437 -0.186837
C41   C     C_R   0.888443 0.089134 0.573706 -0.198512
C42   C     C_R   0.111557 0.910866 0.426294 -0.198512
H9    H     H_    0.840203 0.135669 0.595629 0.124527
H10   H     H_    0.159797 0.864331 0.404371 0.124527
H11   H     H_    0.961310 0.136983 0.412829 0.094179
H12   H     H_    0.038690 0.863017 0.587171 0.094179
H13   H     H_    0.151727 0.022629 0.266004 0.120544
H14   H     H_    0.848273 0.977371 0.733996 0.120543
H15   H     H_    0.820393 0.079083 0.681911 0.119360
H16   H     H_    0.179607 0.920917 0.318088 0.119360
H17   H     H_    0.901963 0.136743 0.497961 0.123189
H18   H     H_    0.098037 0.863257 0.502039 0.123189
C43   C     C_R   0.489770 0.585657 0.835824 -0.043957
C44   C     C_R   0.510230 0.414343 0.164176 -0.043957
C45   C     C_R   0.604031 0.470287 0.838037 -0.160895
C46   C     C_R   0.395969 0.529713 0.161963 -0.160896
C47   C     C_R   0.564831 0.527155 0.808336 -0.165793
C48   C     C_R   0.435169 0.472845 0.191664 -0.165793
C49   C     C_R   0.454744 0.587083 0.893877 -0.215348
C50   C     C_R   0.545256 0.412917 0.106123 -0.215348
C51   C     C_R   0.498575 0.530117 0.925673 0.085967
C52   C     C_R   0.501425 0.469883 0.074327 0.085967
C53   C     C_R   0.573578 0.471381 0.896212 0.138295
C54   C     C_R   0.426422 0.528619 0.103788 0.138295
C55   C     C_R   0.474396 0.529626 0.985500 0.057328
C56   C     C_R   0.525604 0.470374 0.014500 0.057328
C57   C     C_R   0.598331 0.413552 0.982672 -0.186405
C58   C     C_R   0.401669 0.586448 0.017328 -0.186405
C59   C     C_R   0.621077 0.414204 0.924910 -0.198843
C60   C     C_R   0.378923 0.585796 0.075090 -0.198843
H19   H     H_    0.678408 0.369330 0.902434 0.126008
H20   H     H_    0.321592 0.630670 0.097566 0.126008
H21   H     H_    0.599885 0.366026 0.087055 0.095556
H22   H     H_    0.400115 0.633974 0.912945 0.095556
H23   H     H_    0.405081 0.474224 0.236243 0.105602
H24   H     H_    0.594919 0.525776 0.763756 0.105602
H25   H     H_    0.662254 0.425569 0.815581 0.115184
H26   H     H_    0.337746 0.574431 0.184419 0.115184
H27   H     H_    0.640283 0.367324 0.001134 0.123753
H28   H     H_    0.359717 0.632676 0.998866 0.123753
C61   C     C_R   0.371517 0.075438 0.109983 -0.202551
C62   C     C_R   0.628484 0.924562 0.890017 -0.202550
C63   C     C_R   0.529224 0.118375 0.116732 -0.078570
C64   C     C_R   0.470776 0.881625 0.883268 -0.078570
C65   C     C_R   0.674891 0.113517 0.076594 -0.179990
C66   C     C_R   0.325109 0.886483 0.923406 -0.179987
C67   C     C_R   0.663040 0.067008 0.029850 0.101841
C68   C     C_R   0.336960 0.932992 0.970150 0.101843
C69   C     C_R   0.505167 0.023635 0.023442 0.050998
C70   C     C_R   0.494832 0.976365 0.976558 0.050998
C71   C     C_R   0.358139 0.027427 0.063940 0.046604
C72   C     C_R   0.641861 0.972573 0.936060 0.046605
C73   C     C_R   0.807215 0.063415 0.989410 -0.226474
C74   C     C_R   0.192785 0.936585 0.010590 -0.226475
C75   C     C_R   0.797710 0.017065 0.942711 -0.046975
C76   C     C_R   0.202292 0.982935 0.057289 -0.046975
H29   H     H_    0.260400 0.079134 0.141332 0.131728
H30   H     H_    0.739601 0.920865 0.858668 0.131728
H31   H     H_    0.796705 0.146544 0.081377 0.118920
H32   H     H_    0.203294 0.853455 0.918622 0.118919
H33   H     H_    0.928141 0.096905 0.994255 0.130768
H34   H     H_    0.071861 0.903095 0.005745 0.130768
C77   C     C_1   0.949332 0.016976 0.902030 0.291706
N1    N     N_1   0.070591 0.016990 0.869432 -0.362042
C78   C     C_1   0.050674 0.983022 0.097971 0.291707
N2    N     N_1   0.929418 0.983007 0.130571 -0.362042

loop_
_geom_bond_atom_site_label_1
_geom_bond_atom_site_label_2
_ccdc_geom_bond_type
C26   C30   A    
C34   C36   A    
C46   C54   A    
C54   C60   A    
C17   C19   A    
C17   C18   A    
O4    C2    A    
V1    O19   S    
C2    C44   S    
C31   C33   A    
C55   C56   A    
C43   C49   A    
C77   N1    T    
C15   C17   A    
C34   C38   A    
C16   C22   A    
O9    V1    S    
C61   H29   S    
C11   C13   A    
C75   C77   S    
C48   H23   S    
O3    C1    A    
C65   C67   A    
C13   H3    S    
C68   C74   A    
C14   H4    S    
C52   C56   A    
C29   H14   S    
C36   C42   A    
C4    C63   S    
O13   V3    S    
C28   C30   A    
C32   H11   S    
C25   C29   A    
O7    C3    A    
C27   C35   A    
O5    C7    A    
C28   H16   S    
O7    V1    S    
O6    C8    A    
C8    C11   S    
O8    V2    S    
C33   C35   A    
C45   C53   A    
O3    V1    S    
C38   C39   A    
C35   C41   A    
V4    O20   S    
C19   C24   A    
C10   C12   A    
C20   C23   A    
C15   C21   A    
C62   C72   A    
C16   C18   A    
C21   H5    S    
C2    O12   A    
O17   V3    S    
C62   H30   S    
C49   H22   S    
C22   H6    S    
C18   C20   A    
O2    C4    A    
C50   C52   A    
C68   C70   A    
C45   H25   S    
O11   V3    S    
C39   H17   S    
C21   C23   A    
C26   C32   A    
C22   C24   A    
C27   C29   A    
C10   H2    S    
C9    C19   A    
C30   H13   S    
C10   C20   A    
C40   C42   A    
C44   C48   A    
C39   C41   A    
C43   C47   A    
C1    O11   A    
C63   C65   A    
O15   V3    S    
C32   C34   A    
C37   C40   A    
C52   C54   A    
C76   C78   S    
C49   C51   A    
C61   C71   A    
V3    O19   S    
C57   H27   S    
O10   V2    S    
C5    C25   S    
O1    V3    S    
C60   H20   S    
C74   H34   S    
C69   C70   A    
C40   H18   S    
C67   C69   A    
C42   H10   S    
C72   C75   A    
O14   V4    S    
C67   C73   A    
C6    C26   S    
C57   C59   A    
C46   C48   A    
O18   V4    S    
O15   C5    A    
O8    C4    A    
O16   C6    A    
O1    C3    A    
C41   H9    S    
O12   V4    S    
C70   C72   A    
C51   C55   A    
C55   C58   A    
C23   H7    S    
C58   C60   A    
V2    O20   S    
C73   H33   S    
C24   H8    S    
C74   C76   A    
O16   V4    S    
C27   H15   S    
C25   C31   A    
C62   C64   A    
C58   H28   S    
O5    V1    S    
C7    C12   S    
O17   C7    A    
O6    V2    S    
C78   N2    T    
O10   C6    A    
O18   C8    A    
C59   H19   S    
O2    V4    S    
C12   C14   A    
C46   H26   S    
C13   C15   A    
C44   C50   A    
C14   C16   A    
C9    C11   A    
C71   C76   A    
C1    C43   S    
C33   C37   A    
C47   H24   S    
O9    C5    A    
O13   V1    S    
C64   C66   A    
O14   V2    S    
C37   C38   A    
C65   H31   S    
C66   C68   A    
C69   C71   A    
C3    C64   S    
C66   H32   S    
O4    V2    S    
C50   H21   S    
C28   C36   A    
C51   C53   A    
C56   C57   A    
C73   C75   A    
C45   C47   A    
C9    H1    S    
C53   C59   A    
C61   C63   A    
C31   H12   S    
