data_str_m3_o4_o9_f0_pcu.sym.196
_audit_creation_date              2012-12-10T20:45:31-0500
_audit_creation_method            fapswitch 2.2
_symmetry_space_group_name_H-M    P1
_symmetry_Int_Tables_number       1
_space_group_crystal_system       triclinic
_cell_length_a                    10.883037
_cell_length_b                    10.699166
_cell_length_c                    9.952299
_cell_angle_alpha                 88.90184
_cell_angle_beta                  91.082067
_cell_angle_gamma                 92.061476
_cell_volume                      1157.68521587

loop_
_atom_site_label
_atom_site_type_symbol
_atom_type_description
_atom_site_fract_x
_atom_site_fract_y
_atom_site_fract_z
_atom_type_partial_charge
C1    C     C_R   0.507289 0.260030 0.500335 0.877889
C2    C     C_R   0.180825 0.541795 0.976967 -0.206673
C3    C     C_R   0.931189 0.535874 0.386303 -0.244535
C4    C     C_R   0.871848 0.508480 0.506254 -0.094595
C5    C     C_R   0.940033 0.485693 0.625420 -0.010271
C6    C     C_R   0.066563 0.483439 0.618425 -0.216963
C7    C     C_R   0.126607 0.506445 0.497030 -0.104112
C8    C     C_R   0.057381 0.533096 0.379453 0.022985
C9    C     C_R   0.886881 0.561801 0.851512 -0.133646
C10   C     C_R   0.837096 0.541905 0.978852 -0.134251
C11   C     C_R   0.785384 0.424775 0.014390 -0.117874
C12   C     C_R   0.259784 0.501205 0.498551 0.877959
C13   C     C_R   0.778398 0.328868 0.920698 -0.092242
C14   C     C_R   0.826642 0.348803 0.792471 0.001204
C15   C     C_R   0.883863 0.464717 0.758504 0.169559
C16   C     C_R   0.564274 0.062995 0.613830 0.125401
C17   C     C_R   0.535592 0.129518 0.497095 -0.107276
C18   C     C_R   0.540044 0.068010 0.373661 -0.213724
C19   C     C_R   0.539706 0.938315 0.372543 -0.230974
C20   C     C_R   0.538660 0.871495 0.495212 -0.101533
C21   C     C_R   0.568562 0.934881 0.613049 0.150476
C22   C     C_3   0.514814 0.921541 0.749362 -0.501347
C23   C     C_R   0.508563 0.739947 0.498783 0.872700
C24   C     C_3   0.504151 0.061242 0.745894 -0.503751
C25   C     C_R   0.490131 0.390789 0.073825 0.180541
C26   C     C_R   0.520922 0.607255 0.069877 -0.129050
C27   C     C_R   0.520964 0.606966 0.926781 -0.123172
C28   C     C_R   0.490025 0.390624 0.931640 0.183587
C29   C     C_3   0.382451 0.301677 0.930641 -0.461925
C30   C     C_3   0.385348 0.299670 0.082485 -0.438837
C31   C     C_R   0.739602 0.502312 0.501865 0.853830
C32   C     C_R   0.208037 0.644576 0.058499 -0.185991
C33   C     C_R   0.170339 0.642797 0.191904 -0.100839
C34   C     C_R   0.106818 0.536862 0.243630 0.072829
C35   C     C_R   0.078489 0.435077 0.161430 -0.207502
C36   C     C_R   0.114292 0.437010 0.028451 0.408136
H1    H     H_    0.214116 0.544338 0.875748 0.156302
H2    H     H_    0.750154 0.408553 0.114373 0.142229
H3    H     H_    0.736688 0.238818 0.947935 0.112590
H4    H     H_    0.821920 0.273711 0.720889 0.110669
H5    H     H_    0.533447 0.117996 0.278846 0.162076
H6    H     H_    0.529317 0.891657 0.277174 0.161600
H7    H     H_    0.424140 0.870182 0.751007 0.215183
H8    H     H_    0.583955 0.891363 0.825600 0.192225
H9    H     H_    0.406672 0.087561 0.733453 0.216497
H10   H     H_    0.562576 0.109041 0.823506 0.197210
H11   H     H_    0.536201 0.694611 0.121382 0.137052
H12   H     H_    0.258859 0.725281 0.018368 0.147655
H13   H     H_    0.537007 0.693151 0.872430 0.144514
H14   H     H_    0.304463 0.345021 0.878791 0.254645
H15   H     H_    0.401765 0.209685 0.894668 0.199740
H16   H     H_    0.305401 0.338496 0.131250 0.238461
H17   H     H_    0.412500 0.208280 0.125333 0.182042
H18   H     H_    0.190416 0.722964 0.254468 0.131361
H19   H     H_    0.027835 0.353881 0.201201 0.171904
H20   H     H_    0.878903 0.554893 0.294753 0.163565
H21   H     H_    0.117811 0.458308 0.707613 0.196599
H22   H     H_    0.929111 0.652113 0.825889 0.128686
H23   H     H_    0.840826 0.616533 0.050818 0.129102
N1    N     N_R   0.499160 0.499140 0.142800 -0.104117
N2    N     N_R   0.499160 0.499180 0.857150 -0.103990
O1    O     O_R   0.500020 0.316790 0.614690 -0.614544
O2    O     O_R   0.500000 0.316760 0.385350 -0.625897
O3    O     O_R   0.316770 0.500030 0.614670 -0.628375
O4    O     O_R   0.316750 0.499990 0.385330 -0.603944
O5    O     O_R   0.500000 0.683240 0.614650 -0.626879
O6    O     O_R   0.499980 0.683210 0.385310 -0.631798
O7    O     O_R   0.683250 0.500010 0.614670 -0.619947
O8    O     O_R   0.683230 0.499970 0.385330 -0.632843
Zn1   Zn    Zn3+2 0.500010 0.500020 0.653130 0.946912
Zn2   Zn    Zn3+2 0.499990 0.499980 0.346870 0.942621
Cl1   Cl    Cl    0.080336 0.302269 0.934513 -0.725124

loop_
_geom_bond_atom_site_label_1
_geom_bond_atom_site_label_2
_ccdc_geom_bond_type
N2    Zn1   S    
C13   C14   A    
C11   H2    S    
C19   H6    S    
C16   C21   A    
C25   N1    A    
O3    Zn1   S    
C11   C13   A    
C12   O4    A    
O5    Zn1   S    
C1    C17   S    
C19   C20   A    
C2    H1    S    
C20   C23   S    
C33   H18   S    
C24   H10   S    
C28   N2    A    
C33   C34   A    
C9    C15   A    
C7    C8    A    
C16   C24   S    
C10   H23   S    
C8    C34   S    
C21   C22   S    
C32   C33   A    
C25   C28   A    
C32   H12   S    
C6    H21   S    
C26   C27   A    
C29   C30   S    
C26   H11   S    
C24   H9    S    
C1    O2    A    
C23   O5    A    
C2    C32   A    
C28   C29   S    
C14   H4    S    
C29   H15   S    
C9    H22   S    
C6    C7    A    
O6    Zn2   S    
C29   H14   S    
C3    C8    A    
C17   C18   A    
C5    C6    A    
C12   O3    A    
C30   H17   S    
C22   C24   S    
C7    C12   S    
C5    C15   S    
C4    C31   S    
C13   H3    S    
C10   C11   A    
C35   H19   S    
C3    C4    A    
C9    C10   A    
C27   H13   S    
C31   O8    A    
C2    C36   A    
C20   C21   A    
O1    Zn1   S    
C1    O1    A    
O7    Zn1   S    
C34   C35   A    
C3    H20   S    
C18   H5    S    
C23   O6    A    
C25   C30   S    
O8    Zn2   S    
C30   H16   S    
C14   C15   A    
C18   C19   A    
C27   N2    A    
N1    Zn2   S    
O4    Zn2   S    
C26   N1    A    
C31   O7    A    
C22   H7    S    
C22   H8    S    
C36   Cl1   S    
C16   C17   A    
O2    Zn2   S    
C4    C5    A    
C35   C36   A    
