data_str_m2_o14_o16_f0_pcu.sym.27
_audit_creation_date              2012-10-26T19:04:41-0400
_audit_creation_method            fapswitch 2.2
_symmetry_space_group_name_H-M    P1
_symmetry_Int_Tables_number       1
_space_group_crystal_system       triclinic
_cell_length_a                    9.586651
_cell_length_b                    10.853653
_cell_length_c                    13.550939
_cell_angle_alpha                 92.87492
_cell_angle_beta                  74.33792
_cell_angle_gamma                 89.248074
_cell_volume                      1355.39611558

loop_
_atom_site_label
_atom_site_type_symbol
_atom_type_description
_atom_site_fract_x
_atom_site_fract_y
_atom_site_fract_z
_atom_type_partial_charge
C1    C     C_R   0.499617 0.737662 0.495239 0.541402
C2    C     C_R   0.388044 0.550498 0.810161 -0.002694
C3    C     C_R   0.230311 0.890638 0.495323 -0.120347
C4    C     C_R   0.424906 0.515030 0.698778 0.542571
C5    C     C_R   0.098507 0.955692 0.530550 -0.127526
C6    C     C_R   0.092610 0.072975 0.578659 0.012542
C7    C     C_R   0.222469 0.128363 0.581849 -0.081206
C8    C     C_R   0.358389 0.067753 0.536565 0.011854
C9    C     C_R   0.360880 0.941199 0.507620 0.023769
C10   C     C_R   0.494092 0.872419 0.491588 -0.006862
C11   C     C_R   0.623444 0.934698 0.483111 -0.170868
C12   C     C_R   0.449761 0.561664 0.974930 0.037350
C13   C     C_R   0.622918 0.061989 0.490714 -0.171747
C14   C     C_R   0.491888 0.129734 0.516671 -0.008092
C15   C     C_R   0.907357 0.325327 0.371757 -0.118234
C16   C     C_R   0.497163 0.263290 0.507859 0.542167
C17   C     C_R   0.004472 0.238947 0.309862 -0.185586
C18   C     C_R   0.148903 0.240855 0.307966 -0.166559
C19   C     C_R   0.196792 0.328750 0.368331 -0.085328
C20   C     C_R   0.100315 0.414507 0.436481 0.143317
C21   C     C_R   0.950286 0.413465 0.437556 0.134693
C22   C     C_R   0.903683 0.585326 0.556280 -0.029747
C23   C     C_R   0.494692 0.557849 0.866191 0.030475
C24   C     C_R   0.050840 0.583772 0.557929 -0.027619
C25   C     C_R   0.577412 0.505398 0.300937 0.531653
C26   C     C_R   0.809795 0.536501 0.028343 -0.125739
C27   C     C_R   0.624496 0.520757 0.189179 0.001658
C28   C     C_R   0.244575 0.584624 0.861637 -0.140175
C29   C     C_R   0.206989 0.616643 0.966163 -0.153400
C30   C     C_R   0.304307 0.595358 0.023933 -0.123800
C31   C     C_3   0.894106 0.559803 0.185606 -0.232214
C32   C     C_3   0.878987 0.692448 0.233961 -0.273809
C33   C     C_3   0.994867 0.720309 0.289440 -0.442204
C34   C     C_R   0.555076 0.544427 0.029928 0.022582
C35   C     C_3   0.949739 0.143078 0.618376 -0.252253
C36   C     C_3   0.910752 0.170144 0.734857 -0.308878
C37   C     C_3   0.765245 0.240047 0.772660 -0.432574
C38   C     C_R   0.703696 0.544265 0.976458 0.035973
C39   C     C_R   0.746192 0.561456 0.872045 -0.159698
C40   C     C_R   0.643430 0.570927 0.818600 -0.130099
C41   C     C_R   0.517813 0.526049 0.135674 -0.158209
C42   C     C_R   0.773051 0.534346 0.134901 -0.010267
Cu1   Cu    Cu3+1 0.359340 0.500010 0.500010 0.899251
Cu2   Cu    Cu3+1 0.640660 0.499990 0.499990 0.893218
H1    H     H_    0.227077 0.804264 0.453391 0.149394
H2    H     H_    0.859521 0.570609 0.831587 0.099025
H3    H     H_    0.087058 0.652588 0.605330 0.116151
H4    H     H_    0.922204 0.538790 0.985178 0.100414
H5    H     H_    0.405841 0.515008 0.177204 0.123230
H6    H     H_    0.162889 0.592468 0.820322 0.119998
H7    H     H_    0.267587 0.615361 0.105578 0.098537
H8    H     H_    0.101971 0.658718 0.002220 0.110352
H9    H     H_    0.683547 0.599688 0.742225 0.147668
H10   H     H_    0.726437 0.885013 0.468201 0.127573
H11   H     H_    0.997003 0.649730 0.345273 0.174263
H12   H     H_    0.000912 0.913696 0.520610 0.092461
H13   H     H_    0.102948 0.722830 0.233737 0.138822
H14   H     H_    0.971111 0.811960 0.331478 0.129646
H15   H     H_    0.887983 0.758827 0.172804 0.146952
H16   H     H_    0.770962 0.708332 0.289612 0.192822
H17   H     H_    0.901579 0.490202 0.240146 0.177061
H18   H     H_    0.001063 0.547657 0.129427 0.120775
H19   H     H_    0.768833 0.327735 0.733278 0.182267
H20   H     H_    0.677198 0.183120 0.757208 0.157932
H21   H     H_    0.740860 0.261910 0.856620 0.151329
H22   H     H_    0.904398 0.082021 0.774083 0.165886
H23   H     H_    0.215434 0.218658 0.620507 0.146721
H24   H     H_    0.995096 0.227112 0.755692 0.158605
H25   H     H_    0.956220 0.231101 0.579306 0.161023
H26   H     H_    0.861400 0.089506 0.599608 0.140374
H27   H     H_    0.725838 0.107404 0.475400 0.131298
H28   H     H_    0.831800 0.658192 0.599395 0.103342
H29   H     H_    0.801886 0.323054 0.360751 0.186926
H30   H     H_    0.967984 0.172638 0.260482 0.119131
H31   H     H_    0.225286 0.175652 0.257452 0.121553
H32   H     H_    0.310824 0.326691 0.356798 0.188060
N1    N     N_R   0.852480 0.498790 0.499000 -0.246983
N2    N     N_R   0.148360 0.498710 0.498970 -0.249238
O1    O     O_R   0.381190 0.680360 0.500010 -0.514514
O2    O     O_R   0.618760 0.680340 0.500000 -0.511865
O3    O     O_R   0.323240 0.499990 0.650990 -0.504178
O4    O     O_R   0.560820 0.499960 0.650980 -0.511223
O5    O     O_R   0.381240 0.319660 0.500000 -0.527746
O6    O     O_R   0.618810 0.319640 0.499990 -0.519085
O7    O     O_R   0.439180 0.500040 0.349020 -0.526757
O8    O     O_R   0.676760 0.500010 0.349010 -0.526745

loop_
_geom_bond_atom_site_label_1
_geom_bond_atom_site_label_2
_ccdc_geom_bond_type
C33   H11   S    
C30   H7    S    
C18   H31   S    
C31   C42   S    
Cu1   O5    S    
C31   H17   S    
C5    H12   S    
C35   C36   S    
C7    C8    A    
Cu1   N2    S    
C12   C23   A    
C33   H14   S    
C28   C29   A    
Cu2   O4    S    
C5    C6    A    
C36   H22   S    
Cu1   O1    S    
C23   C40   A    
C16   O6    A    
C6    C35   S    
C18   C19   A    
C22   H28   S    
C28   H6    S    
C4    O3    A    
C19   C20   A    
C35   H26   S    
C8    C9    A    
C37   H21   S    
C8    C14   A    
C9    C10   A    
C26   H4    S    
C13   C14   A    
C31   H18   S    
C19   H32   S    
C34   C41   A    
Cu2   O8    S    
C41   H5    S    
C37   H19   S    
Cu1   O7    S    
Cu2   O2    S    
C39   C40   A    
C26   C38   A    
C13   H27   S    
C3    C5    A    
C3    H1    S    
C16   O5    A    
C2    C4    S    
Cu1   Cu2   S    
C29   C30   A    
C3    C9    A    
C27   C41   A    
C31   C32   S    
C25   O7    A    
C17   C18   A    
C11   H10   S    
C39   H2    S    
C24   N2    A    
C15   H29   S    
C17   H30   S    
Cu1   O3    S    
C22   C24   A    
C32   H16   S    
C12   C34   A    
C37   H20   S    
C26   C42   A    
C15   C17   A    
Cu2   N1    S    
C33   H13   S    
C12   C30   A    
C34   C38   A    
C24   H3    S    
C1    C10   S    
C22   N1    A    
Cu2   O6    S    
C36   H24   S    
C6    C7    A    
C25   C27   S    
C20   N2    A    
C32   C33   S    
C11   C13   A    
C27   C42   A    
C38   C39   A    
C1    O1    A    
C25   O8    A    
C14   C16   S    
C10   C11   A    
C7    H23   S    
C15   C21   A    
C4    O4    A    
C20   C21   A    
C35   H25   S    
C36   C37   S    
C40   H9    S    
C21   N1    A    
C2    C23   A    
C1    O2    A    
C2    C28   A    
C32   H15   S    
C29   H8    S    
