data_str_m3_o10_o28_f0_pcu.sym.77
_audit_creation_date              2012-12-10T16:58:31-0500
_audit_creation_method            fapswitch 2.2
_symmetry_space_group_name_H-M    P1
_symmetry_Int_Tables_number       1
_space_group_crystal_system       triclinic
_cell_length_a                    7.799606
_cell_length_b                    8.603549
_cell_length_c                    23.467046
_cell_angle_alpha                 91.458658
_cell_angle_beta                  85.387158
_cell_angle_gamma                 94.591131
_cell_volume                      1564.31555469

loop_
_atom_site_label
_atom_site_type_symbol
_atom_type_description
_atom_site_fract_x
_atom_site_fract_y
_atom_site_fract_z
_atom_type_partial_charge
C1    C     C_R   0.546325 0.794807 0.498507 0.963226
C2    C     C_R   0.347850 0.453215 0.301581 -0.181000
C3    C     C_R   0.630695 0.523292 0.760534 -0.045559
C4    C     C_R   0.350637 0.450044 0.242480 -0.032267
C5    C     C_R   0.475134 0.472659 0.791258 0.130453
C6    C     C_R   0.500925 0.499061 0.208788 0.114745
C7    C     C_2   0.570048 0.958924 0.497654 -0.357494
C8    C     C_2   0.429951 0.041080 0.502374 -0.359978
C9    C     C_R   0.500609 0.497391 0.610325 0.897478
C10   C     C_R   0.498768 0.500653 0.389673 0.902520
C11   C     C_R   0.445056 0.360603 0.120815 0.573143
C12   C     C_R   0.453674 0.205193 0.501502 0.960142
C13   C     C_R   0.512598 0.613826 0.879755 0.598534
C14   C     C_R   0.527497 0.633216 0.118741 0.685653
C15   C     C_R   0.432436 0.340655 0.881976 0.680265
C16   C     C_R   0.536485 0.632439 0.058416 -0.137040
C17   C     C_R   0.418081 0.343208 0.942343 -0.135119
C18   C     C_R   0.480504 0.491296 0.030294 -0.051828
C19   C     C_R   0.473621 0.484403 0.970468 -0.056704
C20   C     C_R   0.430849 0.356438 0.061958 -0.061442
C21   C     C_R   0.523164 0.619131 0.938775 -0.055508
C22   C     C_R   0.597414 0.764613 0.024941 0.428508
C23   C     C_R   0.328478 0.426149 0.761468 0.435234
C24   C     C_R   0.353436 0.212278 0.975826 0.423812
C25   C     C_R   0.586712 0.755757 0.965950 -0.128229
C26   C     C_R   0.364430 0.220742 0.034849 -0.149169
C27   C     C_R   0.653100 0.548097 0.235360 0.419247
C28   C     C_R   0.342319 0.431133 0.702113 -0.300052
C29   C     C_R   0.648816 0.550271 0.294812 -0.250744
C30   C     C_R   0.496947 0.484570 0.672031 -0.110837
C31   C     C_R   0.497421 0.502751 0.327866 -0.120432
C32   C     C_R   0.642378 0.528513 0.701262 -0.173554
H1    H     H_    0.633909 0.855551 0.940504 0.246332
H2    H     H_    0.298222 0.988433 0.506876 0.181645
H3    H     H_    0.013015 0.382558 0.456895 0.193960
H4    H     H_    0.986988 0.617445 0.543103 0.193648
H5    H     H_    0.832988 0.151387 0.017538 0.399926
H6    H     H_    0.008034 0.008343 0.901018 0.415744
H7    H     H_    0.126820 0.130105 0.759629 0.352017
H8    H     H_    0.864872 0.399023 0.142010 0.362686
H9    H     H_    0.315926 0.121284 0.060307 0.249537
H10   H     H_    0.230704 0.394058 0.679076 0.199110
H11   H     H_    0.764313 0.589256 0.315529 0.203849
H12   H     H_    0.762766 0.570968 0.678554 0.177929
H13   H     H_    0.230345 0.413615 0.326579 0.175181
H14   H     H_    0.741515 0.563666 0.783230 0.221856
H15   H     H_    0.236298 0.405969 0.222414 0.220021
H16   H     H_    0.701776 0.011572 0.493153 0.182058
N1    N     N_R   0.495376 0.496992 0.147824 -0.356999
N2    N     N_R   0.468701 0.476008 0.852536 -0.354043
N3    N     N_2   0.950330 0.457950 0.484560 -0.172295
N4    N     N_2   0.049670 0.542050 0.515440 -0.172793
O1    O     O_R   0.389250 0.738570 0.503790 -0.609972
O2    O     O_2   0.548849 0.745179 0.849346 -0.493476
O3    O     O_2   0.543610 0.767854 0.148789 -0.416097
O4    O     O_2   0.417729 0.205016 0.852438 -0.422128
O5    O     O_2   0.598605 0.020141 0.094180 -0.229288
O6    O     O_2   0.865291 0.887882 0.079828 -0.154258
O7    O     O_3   0.780652 0.057366 0.998364 -0.554986
O8    O     O_2   0.345606 0.952575 0.908590 -0.215750
O9    O     O_2   0.158347 0.942208 0.996749 -0.264825
O10   O     O_3   0.071235 0.105549 0.914081 -0.427489
O11   O     O_2   0.095833 0.437479 0.853356 -0.240000
O12   O     O_R   0.610750 0.261430 0.496210 -0.609973
O13   O     O_2   0.986489 0.408684 0.758564 -0.354991
O14   O     O_3   0.108131 0.169225 0.799530 -0.437067
O15   O     O_2   0.866029 0.776512 0.188987 -0.142597
O16   O     O_2   0.996618 0.566185 0.231848 -0.348825
O17   O     O_3   0.872728 0.511470 0.133182 -0.530170
O18   O     O_R   0.678390 0.711620 0.493890 -0.628464
O19   O     O_R   0.321610 0.288380 0.506110 -0.630843
O20   O     O_R   0.355400 0.513520 0.588790 -0.615717
O21   O     O_R   0.644600 0.486480 0.411210 -0.615563
O22   O     O_R   0.644550 0.486570 0.578900 -0.625832
O23   O     O_R   0.355450 0.513430 0.421100 -0.623881
O24   O     O_2   0.406750 0.229584 0.151236 -0.485362
S1    S     S_3+6 0.711880 0.934817 0.051575 0.095028
S2    S     S_3+6 0.233166 0.045748 0.948872 0.096801
S3    S     S_3+6 0.123988 0.364438 0.794841 0.066700
S4    S     S_3+6 0.852442 0.603406 0.197207 0.069722
Zn1   Zn    Zn3+2 0.306930 0.518000 0.506610 0.961176
Zn2   Zn    Zn3+2 0.693070 0.482000 0.493390 0.962756

loop_
_geom_bond_atom_site_label_1
_geom_bond_atom_site_label_2
_ccdc_geom_bond_type
O16   S4    D    
O13   S3    D    
C27   C29   A    
C9    O20   A    
O7    S1    S    
C7    C8    D    
O11   S3    D    
O14   S3    S    
O8    S2    D    
C19   C21   A    
C24   C26   A    
C11   O24   S    
C12   O12   A    
C10   O21   A    
C14   N1    A    
O1    Zn1   S    
C18   C19   A    
C15   N2    A    
C1    O1    A    
O6    S1    D    
C10   C31   S    
C22   C25   A    
O20   Zn1   S    
H4    N4    S    
C14   O3    S    
C29   H11   S    
C3    C32   A    
O22   Zn2   S    
C2    H13   S    
C11   C20   A    
C17   C24   A    
H8    O17   S    
N3    N4    D    
O5    S1    D    
C4    C6    A    
C27   S4    S    
O23   Zn1   S    
C2    C31   A    
C2    C4    A    
C11   N1    A    
C10   O23   A    
C6    C27   A    
C5    C23   A    
O9    S2    D    
C8    C12   S    
C32   H12   S    
C13   C21   A    
C8    H2    S    
C23   C28   A    
N3    Zn2   S    
O12   Zn2   S    
H5    O7    S    
C9    C30   S    
C24   S2    S    
C12   O19   A    
H3    N3    S    
H7    O14   S    
C14   C16   A    
C5    N2    S    
C9    O22   A    
O21   Zn2   S    
C13   O2    S    
C15   C17   A    
C21   C25   A    
C16   C22   A    
C1    C7    S    
O10   S2    S    
O15   S4    D    
C22   S1    S    
C3    C5    A    
O19   Zn1   S    
C3    H14   S    
C1    O18   A    
C7    H16   S    
C28   C30   A    
C29   C31   A    
C15   O4    S    
C30   C32   A    
C20   C26   A    
C28   H10   S    
C17   C19   A    
C18   C20   A    
C6    N1    S    
N4    Zn1   S    
O18   Zn2   S    
C13   N2    A    
C16   C18   A    
O17   S4    S    
C23   S3    S    
C26   H9    S    
C25   H1    S    
H6    O10   S    
C4    H15   S    
