data_str_m9_o11_o18_f0_sra.sym.59
_audit_creation_date              2012-12-11T14:21:18-0500
_audit_creation_method            fapswitch 2.2
_symmetry_space_group_name_H-M    P1
_symmetry_Int_Tables_number       1
_space_group_crystal_system       triclinic
_cell_length_a                    21.9805
_cell_length_b                    7.206141
_cell_length_c                    14.92405
_cell_angle_alpha                 90.471981
_cell_angle_beta                  106.950993
_cell_angle_gamma                 90.141746
_cell_volume                      2261.08220242

loop_
_atom_site_label
_atom_site_type_symbol
_atom_type_description
_atom_site_fract_x
_atom_site_fract_y
_atom_site_fract_z
_atom_type_partial_charge
O1    O     O_R   0.584770 0.505770 0.002090 -0.544924
O2    O     O_R   0.415230 0.005770 0.997910 -0.543450
O3    O     O_R   0.467060 0.173340 0.861950 -0.540269
O4    O     O_R   0.532940 0.673340 0.138050 -0.541053
C1    C     C_R   0.454991 0.343228 0.825897 0.679459
C2    C     C_R   0.544849 0.845162 0.173942 0.678406
O5    O     O_R   0.587510 0.175890 0.993210 -0.503988
O6    O     O_R   0.412490 0.675890 0.006790 -0.506089
O7    O     O_R   0.536540 0.008150 0.130100 -0.535622
O8    O     O_R   0.463460 0.508150 0.869900 -0.536639
C3    C     C_R   0.612955 0.344450 0.997170 0.729785
C4    C     C_R   0.387050 0.844164 0.002762 0.729065
O9    O     O_3   0.483140 0.340040 0.044760 -0.375433
O10   O     O_3   0.516860 0.840040 0.955240 -0.374971
V1    V     V_3+5 0.503130 0.064190 0.991700 1.534180
V2    V     V_3+5 0.496870 0.564190 0.008300 1.526555
C5    C     C_2   0.213604 0.731851 0.002710 -0.329336
C6    C     C_2   0.785798 0.231781 0.995181 -0.335079
C7    C     C_2   0.178323 0.888044 0.987838 0.441052
C8    C     C_2   0.821763 0.387542 0.012286 0.441690
H1    H     H_    0.192782 0.605732 0.020614 0.121845
H2    H     H_    0.806022 0.106069 0.975341 0.119883
C9    C     C_2   0.278816 0.713648 0.990585 0.413784
C10   C     C_2   0.720585 0.213590 0.007280 0.419502
C11   C     C_2   0.320994 0.856523 0.009101 -0.244369
C12   C     C_2   0.679046 0.356949 0.990886 -0.246832
H3    H     H_    0.307727 0.989172 0.032382 0.171025
H4    H     H_    0.692827 0.489849 0.969201 0.168347
C13   C     C_R   0.927170 0.881088 0.724239 -0.036199
C14   C     C_R   0.072307 0.392593 0.276456 -0.038216
C15   C     C_R   0.573475 0.856621 0.275187 -0.036635
C16   C     C_R   0.426389 0.345194 0.724324 -0.040220
C17   C     C_R   0.938192 0.834499 0.569800 -0.158405
C18   C     C_R   0.064330 0.467373 0.430339 -0.155795
C19   C     C_R   0.965624 0.858344 0.665690 -0.156411
C20   C     C_R   0.036623 0.453589 0.334089 -0.150977
C21   C     C_R   0.861163 0.884487 0.686945 -0.181102
C22   C     C_R   0.136511 0.349698 0.314946 -0.182705
C23   C     C_R   0.831561 0.862112 0.589493 0.079416
C24   C     C_R   0.167035 0.369901 0.412425 0.078778
C25   C     C_R   0.871396 0.830185 0.530744 0.029113
C26   C     C_R   0.129076 0.423791 0.471025 0.035265
C27   C     C_R   0.763974 0.870665 0.549120 -0.032694
C28   C     C_R   0.234098 0.344043 0.452624 -0.032620
C29   C     C_R   0.736993 0.847275 0.450337 -0.024772
C30   C     C_R   0.262438 0.373981 0.550785 -0.023643
C31   C     C_R   0.778222 0.810893 0.395379 -0.151231
C32   C     C_R   0.222507 0.421152 0.606278 -0.148210
C33   C     C_R   0.843706 0.797999 0.433998 0.332532
C34   C     C_R   0.157162 0.440666 0.568644 0.329248
C35   C     C_R   0.722479 0.904100 0.604259 -0.241497
C36   C     C_R   0.273967 0.292093 0.397534 -0.240584
C37   C     C_R   0.657127 0.914410 0.564917 0.594557
C38   C     C_R   0.339006 0.270385 0.436227 0.595640
C39   C     C_R   0.630050 0.893262 0.468519 0.002310
C40   C     C_R   0.367409 0.299040 0.531871 0.003089
C41   C     C_R   0.669459 0.859618 0.409681 0.027130
C42   C     C_R   0.329782 0.352529 0.590650 0.027137
C43   C     C_R   0.563699 0.907043 0.430155 -0.083629
C44   C     C_R   0.433195 0.271146 0.569696 -0.084315
C45   C     C_R   0.535686 0.889406 0.334047 -0.169815
C46   C     C_R   0.462187 0.291236 0.665403 -0.166905
C47   C     C_R   0.639412 0.841707 0.312140 -0.160905
C48   C     C_R   0.361234 0.378629 0.687474 -0.162781
H5    H     H_    0.665455 0.819287 0.262128 0.110252
H6    H     H_    0.336594 0.418208 0.737252 0.115071
H7    H     H_    0.484583 0.902331 0.305483 0.142995
H8    H     H_    0.512474 0.262309 0.693797 0.146608
H9    H     H_    0.970131 0.821227 0.527072 0.132852
H10   H     H_    0.034855 0.519503 0.471562 0.117897
H11   H     H_    0.016946 0.857495 0.694384 0.132220
H12   H     H_    0.987301 0.492604 0.304287 0.133013
H13   H     H_    0.834738 0.902603 0.736757 0.096212
H14   H     H_    0.161412 0.308618 0.265764 0.101218
H15   H     H_    0.761208 0.786467 0.321031 0.159861
H16   H     H_    0.240157 0.440635 0.680930 0.157781
H17   H     H_    0.738694 0.924255 0.678920 0.154783
H18   H     H_    0.256629 0.265710 0.323417 0.155244
H19   H     H_    0.533251 0.932992 0.474360 0.181604
H20   H     H_    0.462235 0.229116 0.525627 0.181689
O11   O     O_R   0.036450 0.233070 0.130130 -0.539321
O12   O     O_R   0.963550 0.733070 0.869870 -0.539305
O13   O     O_R   0.912470 0.560570 0.006790 -0.510458
O14   O     O_R   0.087530 0.060570 0.993210 -0.511387
C49   C     C_R   0.887315 0.392001 0.003895 0.645056
C50   C     C_R   0.112694 0.892259 0.996097 0.642892
O15   O     O_R   0.032920 0.562940 0.138050 -0.538839
O16   O     O_R   0.967080 0.062940 0.861950 -0.539370
O17   O     O_R   0.084790 0.730500 0.002090 -0.561255
O18   O     O_R   0.915210 0.230500 0.997910 -0.561800
C51   C     C_R   0.044788 0.395440 0.174614 0.683922
C52   C     C_R   0.955343 0.893458 0.825571 0.682361
O19   O     O_3   0.016820 0.396170 0.955260 -0.374718
O20   O     O_3   0.983180 0.896170 0.044740 -0.373557
V3    V     V_3+5 0.996880 0.672090 0.008300 1.488813
V4    V     V_3+5 0.003120 0.172090 0.991700 1.483562
F1    F     F_    0.200679 0.045774 0.958791 -0.692224
F2    F     F_    0.800125 0.544773 0.043550 -0.690050
O21   O     O_3   0.297281 0.543976 0.963445 -0.627892
H21   H     H_    0.260786 0.456640 0.951177 0.322258
O22   O     O_3   0.701442 0.043408 0.032102 -0.626239
H22   H     H_    0.737524 0.955795 0.042952 0.321158
O23   O     O_3   0.878788 0.753458 0.373792 -0.631888
H23   H     H_    0.913772 0.670262 0.406773 0.279465
O24   O     O_3   0.122727 0.479104 0.630487 -0.637408
H24   H     H_    0.081293 0.413797 0.608521 0.287333
F3    F     F_    0.620141 0.947207 0.622116 -0.695547
F4    F     F_    0.374355 0.219107 0.379156 -0.695335

loop_
_geom_bond_atom_site_label_1
_geom_bond_atom_site_label_2
_ccdc_geom_bond_type
C9    O21   S    
C47   H5    S    
O4    V2    S    
O22   H22   S    
O15   C51   A    
C15   C45   A    
C38   F4    S    
C18   C26   A    
C7    C50   S    
O2    C4    A    
C2    O7    A    
O16   V4    S    
C7    F1    S    
C23   C25   A    
O5    C3    A    
C29   C41   A    
C5    C9    S    
C6    C10   S    
C10   C12   D    
C39   C43   A    
O12   C52   A    
C14   C22   A    
C44   C46   A    
C10   O22   S    
O14   V4    S    
C29   C31   A    
C45   H7    S    
C17   C19   A    
O16   C52   A    
C36   C38   A    
O15   V3    S    
C34   O24   S    
C18   H10   S    
C18   C20   A    
C17   H9    S    
C1    C16   S    
C28   C36   A    
C32   C34   A    
C2    C15   S    
C19   H11   S    
O6    V2    S    
C30   C42   A    
C36   H18   S    
C25   C33   A    
C28   C30   A    
C41   C47   A    
C30   C32   A    
C37   C39   A    
C42   C48   A    
C38   C40   A    
C43   C45   A    
C15   C47   A    
C16   C48   A    
O4    C2    A    
C43   H19   S    
O11   V4    S    
C23   C27   A    
C3    C12   S    
C5    H1    S    
C40   C44   A    
C35   C37   A    
C48   H6    S    
O17   V3    S    
C35   H17   S    
C37   F3    S    
C24   C26   A    
O21   H21   S    
O6    C4    A    
O13   V3    S    
C8    C49   S    
O1    V2    S    
O2    V1    S    
C27   C29   A    
C26   C34   A    
O13   C49   A    
C31   C33   A    
O19   V4    S    
C39   C41   A    
O3    V1    S    
C22   H14   S    
C21   H13   S    
C44   H20   S    
O12   V3    S    
C6    H2    S    
O14   C50   A    
C14   C51   S    
O3    C1    A    
C50   O17   A    
C33   O23   S    
C49   O18   A    
O18   V4    S    
C46   H8    S    
C11   H3    S    
O24   H24   S    
C13   C19   A    
C12   H4    S    
C14   C20   A    
C4    C11   S    
C17   C25   A    
O7    V1    S    
C31   H15   S    
C1    O8    A    
C21   C23   A    
O8    V2    S    
C22   C24   A    
C27   C35   A    
O5    V1    S    
C5    C7    D    
C40   C42   A    
C6    C8    D    
C9    C11   D    
O20   V3    S    
C16   C46   A    
C32   H16   S    
O11   C51   A    
C24   C28   A    
C8    F2    S    
O9    V2    S    
C13   C21   A    
O23   H23   S    
O10   V1    S    
O1    C3    A    
C13   C52   S    
C20   H12   S    
