data_str_m12_o9_o13_f0_bcu.sym.145
_audit_creation_date              2013-03-05T15:57:55-0500
_audit_creation_method            fapswitch 2.2
_symmetry_space_group_name_H-M    P1
_symmetry_Int_Tables_number       1
_space_group_crystal_system       triclinic
_cell_length_a                    14.960653
_cell_length_b                    15.224531
_cell_length_c                    16.837177
_cell_angle_alpha                 109.275527
_cell_angle_beta                  105.567034
_cell_angle_gamma                 109.387529
_cell_volume                      3091.85372556

loop_
_atom_site_label
_atom_site_type_symbol
_atom_site_description
_atom_site_fract_x
_atom_site_fract_y
_atom_site_fract_z
_atom_type_partial_charge
C1    C     C_R   0.088434 0.274747 0.028553 -0.093943
C2    C     C_R   0.914191 0.714642 0.928807 -0.095239
H1    H     H_    0.167951 0.288639 0.061708 0.095954
H2    H     H_    0.836598 0.691286 0.879980 0.074412
N1    N     N_R   0.055660 0.348550 0.045620 -0.050517
N2    N     N_R   0.944340 0.651450 0.954380 -0.040663
C3    C     C_R   0.935630 0.450480 0.734341 -0.122973
C4    C     C_R   0.064364 0.480643 0.253649 -0.131688
H3    H     H_    0.856447 0.401371 0.681823 0.098875
H4    H     H_    0.143152 0.501028 0.297315 0.085016
N3    N     N_R   0.960830 0.507850 0.823700 -0.045246
N4    N     N_R   0.039170 0.492150 0.176300 -0.036311
C5    C     C_R   0.719203 0.215547 0.821520 -0.149465
C6    C     C_R   0.227038 0.796917 0.187845 -0.098635
H5    H     H_    0.686826 0.163664 0.848480 0.108093
H6    H     H_    0.242719 0.859616 0.169564 0.088131
N5    N     N_R   0.811290 0.303410 0.871650 -0.037965
N6    N     N_R   0.188710 0.696590 0.128350 -0.043544
C7    C     C_R   0.303667 0.603455 0.011972 -0.145623
C8    C     C_R   0.733789 0.460218 0.045904 -0.133256
H7    H     H_    0.330460 0.667512 0.995427 0.094234
H8    H     H_    0.712815 0.421662 0.086515 0.100104
N7    N     N_R   0.205200 0.552990 0.997670 -0.036392
N8    N     N_R   0.794800 0.447010 0.002330 -0.044657
C9    C     C_R   0.727744 0.310459 0.745736 -0.157389
C10   C     C_R   0.217169 0.703455 0.266084 -0.155044
H9    H     H_    0.704132 0.348003 0.705728 0.106006
H10   H     H_    0.220526 0.679876 0.320184 0.099544
N9    N     N_R   0.814800 0.361830 0.823700 -0.035278
N10   N     N_R   0.185200 0.638170 0.176300 -0.038967
C11   C     C_R   0.297786 0.506009 0.084944 -0.134221
C12   C     C_R   0.745331 0.558001 0.970664 -0.084420
H11   H     H_    0.317136 0.473666 0.130995 0.113333
H12   H     H_    0.739450 0.612668 0.944769 0.119011
N11   N     N_R   0.201680 0.494570 0.045620 -0.034225
N12   N     N_R   0.798320 0.505430 0.954380 -0.048852
C13   C     C_R   0.109946 0.534214 0.811545 -0.123117
C14   C     C_R   0.891455 0.397200 0.176478 -0.143585
H13   H     H_    0.192656 0.561536 0.830194 0.098129
H14   H     H_    0.811063 0.339476 0.147969 0.101085
N13   N     N_R   0.068420 0.560530 0.871650 -0.044126
N14   N     N_R   0.931580 0.439470 0.128350 -0.036454
C15   C     C_R   0.915905 0.196883 0.942880 -0.122355
C16   C     C_R   0.086871 0.800701 0.011608 -0.106888
H15   H     H_    0.837269 0.143361 0.891986 0.133061
H16   H     H_    0.167826 0.855542 0.040877 0.109417
N15   N     N_R   0.948070 0.295860 0.997670 -0.051300
N16   N     N_R   0.051930 0.704140 0.002330 -0.045672
C17   C     C_R   0.999513 0.177805 0.964319 0.154534
C18   C     C_R   0.002098 0.810270 0.967658 0.121315
C19   C     C_R   0.027744 0.462699 0.724233 0.060879
C20   C     C_R   0.972896 0.420089 0.255343 0.063140
C21   C     C_R   0.665486 0.217355 0.741297 0.071485
C22   C     C_R   0.241673 0.804079 0.274760 0.070237
C23   C     C_R   0.365042 0.577473 0.067799 0.052673
C24   C     C_R   0.701644 0.529715 0.026201 0.060644
C25   C     C_R   0.923483 0.927967 0.978122 -0.086450
C26   C     C_R   0.065177 0.047216 0.925620 -0.102352
H17   H     H_    0.744935 0.913438 0.792547 0.137099
H18   H     H_    0.272746 0.057926 0.067228 0.172927
C27   C     C_R   0.002689 0.903983 0.963667 0.037218
C28   C     C_R   0.987811 0.072603 0.943241 0.046456
C29   C     C_R   0.073926 0.962980 0.937483 -0.085595
C30   C     C_R   0.909114 0.004797 0.957904 -0.086039
C31   C     C_R   0.728686 0.951457 0.849775 -0.171435
C32   C     C_R   0.258992 0.996213 0.003148 -0.205662
Ni1   Ni    Ni4+2 0.119340 0.493420 0.109960 0.221686
Ni2   Ni    Ni4+2 0.880660 0.506580 0.890040 0.223782
Ni3   Ni    Ni4+2 0.872590 0.372590 0.000000 0.217351
Ni4   Ni    Ni4+2 0.127410 0.627410 0.000000 0.223564
C33   C     C_R   0.609275 0.998965 0.903900 -0.198904
C34   C     C_R   0.319449 0.884873 0.918323 -0.179828
H19   H     H_    0.425922 0.504019 0.405609 0.148920
H20   H     H_    0.467943 0.442570 0.626962 0.195666
C35   C     C_R   0.486072 0.622842 0.365509 -0.134603
C36   C     C_R   0.466417 0.402070 0.736959 -0.197621
H21   H     H_    0.488381 0.682516 0.424303 0.133983
H22   H     H_    0.429094 0.318680 0.690539 0.160980
C37   C     C_R   0.519115 0.648196 0.301701 0.038824
C38   C     C_R   0.489327 0.438175 0.831705 0.032751
C39   C     C_R   0.516231 0.568220 0.226287 0.016731
C40   C     C_R   0.539913 0.547770 0.891631 0.077040
C41   C     C_R   0.485276 0.466984 0.219403 -0.197846
C42   C     C_R   0.559560 0.617937 0.853811 -0.332733
H23   H     H_    0.483174 0.405998 0.161750 0.153815
H24   H     H_    0.595350 0.701527 0.898968 0.127595
C43   C     C_R   0.451042 0.442556 0.282796 0.048814
C44   C     C_R   0.533834 0.580932 0.758514 0.028919
C45   C     C_R   0.451659 0.521164 0.355705 -0.216026
C46   C     C_R   0.488261 0.472699 0.700646 -0.068104
C47   C     C_R   0.618390 0.567175 0.132613 -0.248254
C48   C     C_R   0.505833 0.629539 0.022773 -0.243618
H25   H     H_    0.666791 0.548465 0.178085 0.134721
H26   H     H_    0.461356 0.650103 0.976566 0.128190
C49   C     C_R   0.628945 0.563215 0.051577 0.090067
C50   C     C_R   0.475870 0.608544 0.089118 0.069916
C51   C     C_R   0.567255 0.589364 0.993173 0.034836
C52   C     C_R   0.538309 0.585018 0.150229 0.037589
C53   C     C_R   0.631511 0.950347 0.831121 -0.159573
C54   C     C_R   0.336596 0.966122 0.999313 -0.127162
C55   C     C_R   0.963208 0.376621 0.320624 0.111965
C56   C     C_R   0.034636 0.413033 0.636127 0.126328
C57   C     C_R   0.136776 0.415682 0.545831 -0.208277
C58   C     C_R   0.856772 0.310074 0.393484 -0.222115
C59   C     C_R   0.131734 0.436844 0.631417 -0.140953
C60   C     C_R   0.865043 0.330659 0.320800 -0.155931
C61   C     C_R   0.942641 0.352958 0.553405 -0.274071
C62   C     C_R   0.052136 0.390237 0.389100 -0.287619
C63   C     C_R   0.947528 0.341701 0.469729 0.175414
C64   C     C_R   0.045719 0.377949 0.466444 0.176457
H27   H     H_    0.127969 0.421679 0.388175 0.117931
H28   H     H_    0.866561 0.327461 0.554315 0.118065
H29   H     H_    0.795302 0.318396 0.269027 0.142273
H30   H     H_    0.204094 0.478662 0.693735 0.123408
H31   H     H_    0.212755 0.441598 0.544198 0.139181
H32   H     H_    0.780879 0.281357 0.395051 0.127381
C65   C     C_R   0.556210 0.147195 0.673389 0.116762
C66   C     C_R   0.281777 0.902065 0.359321 0.111961
C67   C     C_R   0.388241 0.091013 0.437671 -0.048605
C68   C     C_R   0.390350 0.994361 0.614502 -0.067960
C69   C     C_R   0.318570 0.998338 0.356743 -0.286201
C70   C     C_R   0.489614 0.068213 0.685567 -0.302571
C71   C     C_R   0.294528 0.901709 0.444597 -0.205355
C72   C     C_R   0.518033 0.159748 0.594606 -0.244080
C73   C     C_R   0.363767 0.994217 0.527368 0.145451
C74   C     C_R   0.421170 0.085110 0.521635 0.123741
H33   H     H_    0.573115 0.911338 0.760089 0.127341
H34   H     H_    0.409699 0.004366 0.059956 0.158427
H35   H     H_    0.568598 0.220392 0.584661 0.157320
H36   H     H_    0.261678 0.827968 0.446414 0.154394
H37   H     H_    0.514632 0.063159 0.749655 0.112926
H38   H     H_    0.299795 0.002041 0.291768 0.124779
H39   H     H_    0.533120 0.996569 0.888283 0.110041
H40   H     H_    0.381310 0.862933 0.920347 0.108191
C75   C     C_R   0.683834 0.048363 0.996340 0.101911
C76   C     C_R   0.224948 0.834248 0.837478 0.097754
C77   C     C_R   0.782490 0.050882 0.015198 -0.225567
C78   C     C_R   0.144807 0.862209 0.844145 -0.183127
H41   H     H_    0.840901 0.089729 0.086287 0.132047
H42   H     H_    0.070316 0.826034 0.785394 0.116461
C79   C     C_R   0.805750 0.003745 0.941571 0.085495
C80   C     C_R   0.160691 0.940358 0.927413 0.082857
C81   C     C_R   0.561987 0.759442 0.319512 0.106279
C82   C     C_R   0.509846 0.818237 0.344744 -0.148120
C83   C     C_R   0.555434 0.925707 0.371397 -0.104025
C84   C     C_R   0.653574 0.975638 0.373420 -0.113155
C85   C     C_R   0.705238 0.917799 0.346799 -0.090395
C86   C     C_R   0.660091 0.810338 0.320402 -0.118362
H43   H     H_    0.434938 0.781312 0.345662 0.111995
H44   H     H_    0.515505 0.970625 0.391998 0.116594
H45   H     H_    0.690033 0.059352 0.396387 0.101529
H46   H     H_    0.781342 0.956695 0.348485 0.127976
H47   H     H_    0.703459 0.767916 0.303901 0.126271
C87   C     C_R   0.458039 0.360336 0.866233 0.088279
C88   C     C_R   0.391892 0.360703 0.911701 -0.089327
C89   C     C_R   0.371183 0.294026 0.952126 -0.079950
C90   C     C_R   0.411481 0.222394 0.942915 -0.130731
C91   C     C_R   0.472559 0.217673 0.893371 -0.112601
C92   C     C_R   0.497100 0.287425 0.856390 -0.128138
H48   H     H_    0.357771 0.413645 0.916989 0.125080
H49   H     H_    0.323522 0.297655 0.990215 0.121236
H50   H     H_    0.394790 0.170080 0.973530 0.135065
H51   H     H_    0.502038 0.160959 0.884701 0.097310
H52   H     H_    0.548632 0.286872 0.822287 0.127653
C93   C     C_2   0.411645 0.334808 0.272439 0.429362
H53   H     H_    0.386463 0.318089 0.322850 0.043476
O1    O     O_2   0.405671 0.263338 0.207270 -0.646137
C94   C     C_2   0.554382 0.656285 0.720441 0.438409
H54   H     H_    0.588419 0.739309 0.766187 0.022523
O2    O     O_2   0.533305 0.626749 0.637891 -0.602506
C95   C     C_2   0.429105 0.189321 0.429542 0.454610
H55   H     H_    0.425274 0.185300 0.363054 0.024573
O3    O     O_2   0.462921 0.275016 0.495215 -0.616138
C96   C     C_2   0.316951 0.923465 0.635987 0.513973
H56   H     H_    0.344872 0.924471 0.702804 0.012578
O4    O     O_2   0.224181 0.869170 0.583158 -0.580628
C97   C     C_R   0.656243 0.094601 0.072152 0.116432
C98   C     C_R   0.621516 0.170109 0.074365 -0.227972
C99   C     C_R   0.588266 0.208911 0.142134 -0.097425
C100  C     C_R   0.588717 0.171889 0.207855 -0.105281
C101  C     C_R   0.623191 0.096719 0.206075 -0.152260
C102  C     C_R   0.657710 0.058662 0.139029 -0.132266
H57   H     H_    0.622389 0.200367 0.024762 0.114638
H58   H     H_    0.562580 0.267824 0.143810 0.147492
H59   H     H_    0.562673 0.201491 0.260227 0.138950
H60   H     H_    0.622524 0.067577 0.256335 0.120019
H61   H     H_    0.682941 0.999448 0.137803 0.118560
C103  C     C_R   0.212953 0.758607 0.746230 0.123789
C104  C     C_R   0.301731 0.758451 0.731376 -0.194926
C105  C     C_R   0.292145 0.701344 0.642736 -0.139666
C106  C     C_R   0.194474 0.643821 0.567261 -0.027783
C107  C     C_R   0.105049 0.636612 0.581147 -0.020687
C108  C     C_R   0.113724 0.691811 0.669974 -0.128834
H62   H     H_    0.380148 0.807471 0.785761 0.103624
H63   H     H_    0.361294 0.705289 0.632042 0.128781
H64   H     H_    0.188187 0.603824 0.498202 0.089999
H65   H     H_    0.028770 0.588606 0.522807 0.107789
H66   H     H_    0.042167 0.682569 0.677409 0.099278
C109  C     C_2   0.857443 0.876527 0.018295 0.484705
H67   H     H_    0.775029 0.856225 0.993484 0.006644
O5    O     O_2   0.895913 0.860024 0.082126 -0.571102
C110  C     C_2   0.131310 0.102388 0.887758 0.486487
H68   H     H_    0.198749 0.091836 0.885434 0.039601
O6    O     O_2   0.108469 0.156142 0.854269 -0.575914

loop_
_geom_bond_atom_site_label_1
_geom_bond_atom_site_label_2
_geom_bond_distance
_ccdc_geom_bond_type
C26   C28   1.408076 A    
C24   C49   1.448945 S    
C41   C43   1.403180 A    
C95   H55   1.085448 S    
N5    Ni3   1.847365 S    
C93   H53   1.085235 S    
N5    N9    1.382552 A    
C61   H28   1.079998 S    
C6    N6    1.328660 A    
C57   H31   1.083833 S    
C85   C86   1.398398 A    
C8    C24   1.394547 A    
C58   C60   1.385613 A    
C98   C99   1.397528 A    
C43   C93   1.477443 S    
C101  C102  1.398733 A    
N3    Ni2   1.845122 S    
C19   C56   1.475236 S    
C3    N3    1.333422 A    
C77   H41   1.083599 S    
N8    N12   1.382551 A    
C110  O6    1.221221 D    
C57   C64   1.403061 A    
C1    N1    1.346744 A    
C12   N12   1.318048 A    
C89   C90   1.397093 A    
C7    H7    1.081270 S    
C65   C72   1.398402 A    
C36   H22   1.083730 S    
C14   N14   1.334184 A    
C33   C75   1.403813 A    
C58   C63   1.394892 A    
C13   C19   1.393881 A    
C21   C65   1.466964 S    
C71   C73   1.399817 A    
C14   C20   1.383268 A    
C30   C79   1.489833 S    
C16   C18   1.366535 A    
C81   C82   1.407337 A    
C48   C50   1.400112 A    
C56   C59   1.406797 A    
C3    H3    1.075873 S    
C32   C54   1.391329 A    
C27   C29   1.419522 A    
C96   H56   1.082813 S    
N15   Ni3   1.873674 S    
N4    N14   1.379800 A    
C2    C18   1.383985 A    
C58   H32   1.084028 S    
C83   H44   1.081978 S    
C104  H62   1.078294 S    
C90   C91   1.396115 A    
C37   C81   1.486637 S    
C8    N8    1.340045 A    
C68   C70   1.396693 A    
C44   C94   1.476047 S    
C50   C52   1.417454 A    
N8    Ni3   1.873563 S    
C28   C30   1.424838 A    
C11   H11   1.074102 S    
N6    N10   1.382553 A    
C15   N15   1.309885 A    
C4    C20   1.387100 A    
N10   Ni1   1.848652 S    
N1    Ni1   1.849135 S    
C102  H61   1.083261 S    
C55   C62   1.406453 A    
N2    Ni2   1.849134 S    
H18   C32   1.082773 S    
C109  H67   1.084218 S    
C93   O1    1.220843 D    
C76   C103  1.505158 S    
C61   C63   1.387011 A    
N7    Ni4   1.873563 S    
C2    N2    1.331073 A    
C10   C22   1.397596 A    
C39   C41   1.408112 A    
C16   H16   1.069333 S    
C48   C51   1.372806 A    
C83   C84   1.396353 A    
C5    C21   1.388410 A    
C97   C102  1.403308 A    
C67   C69   1.387749 A    
C9    N9    1.326426 A    
C81   C86   1.407221 A    
N4    Ni1   1.845125 S    
C20   C55   1.472806 S    
C110  H68   1.081640 S    
C84   C85   1.396764 A    
C60   H29   1.076303 S    
C106  C107  1.394242 A    
C36   C38   1.402483 A    
C59   H30   1.081628 S    
C31   C53   1.395572 A    
C76   C78   1.418056 A    
C78   C80   1.403512 A    
N16   Ni4   1.873675 S    
C37   C39   1.418321 A    
C68   C73   1.412328 A    
C15   C17   1.359160 A    
C53   H33   1.082640 S    
C33   C53   1.394120 A    
N14   Ni3   1.847364 S    
C99   C100  1.397335 A    
C103  C104  1.416553 A    
C1    H1    1.081732 S    
C66   C69   1.404426 A    
C12   H12   1.076161 S    
C98   H57   1.079707 S    
C2    H2    1.081938 S    
C65   C70   1.399149 A    
C105  C106  1.391407 A    
C33   H39   1.083430 S    
C82   H43   1.081185 S    
C47   H25   1.083982 S    
N9    Ni2   1.848651 S    
C31   C79   1.404880 A    
C34   H40   1.079383 S    
N11   Ni1   1.845479 S    
C4    N4    1.341582 A    
N12   Ni2   1.845480 S    
C48   H26   1.080427 S    
C56   C61   1.401782 A    
C57   C59   1.397851 A    
C107  H65   1.082579 S    
C38   C87   1.481244 S    
C15   H15   1.069475 S    
C75   C97   1.475727 S    
C87   C88   1.404600 A    
N2    N16   1.379800 A    
C91   H51   1.079596 S    
C32   C80   1.399725 A    
C105  H63   1.082634 S    
C38   C40   1.419542 A    
C94   H54   1.081496 S    
C6    C22   1.381371 A    
C44   C46   1.402486 A    
C89   H49   1.082115 S    
C10   N10   1.343962 A    
C40   C42   1.405053 A    
C5    H5    1.079515 S    
C71   H36   1.080418 S    
C91   C92   1.396642 A    
C40   C51   1.493048 S    
C6    H6    1.070073 S    
C86   H47   1.082477 S    
C8    H8    1.080940 S    
C69   H38   1.079440 S    
C22   C66   1.468847 S    
C70   H37   1.080544 S    
C55   C60   1.402822 A    
C100  C101  1.397898 A    
C7    N7    1.324538 A    
C25   C30   1.385956 A    
C72   C74   1.389288 A    
C99   H58   1.082067 S    
C34   C54   1.394048 A    
C7    C23   1.380764 A    
C26   C29   1.402945 A    
C75   C77   1.408387 A    
C77   C79   1.408151 A    
C17   C28   1.458448 S    
C41   H23   1.083750 S    
C88   H48   1.080917 S    
C54   H34   1.078437 S    
C106  H64   1.080494 S    
C9    C21   1.377867 A    
C23   C50   1.466110 S    
C103  C108  1.413900 A    
C101  H60   1.078212 S    
C49   C51   1.411586 A    
C25   C27   1.407172 A    
C78   H42   1.079317 S    
C9    H9    1.079716 S    
C10   H10   1.079069 S    
N6    Ni4   1.847363 S    
C62   H27   1.081831 S    
C5    N5    1.344139 A    
C82   C83   1.397751 A    
C107  C108  1.397670 A    
H20   C46   1.082252 S    
C43   C45   1.398545 A    
C85   H46   1.082471 S    
C3    C19   1.392585 A    
C87   C92   1.400827 A    
C13   H13   1.079946 S    
C16   N16   1.324079 A    
C63   C64   1.411060 A    
H17   C31   1.083274 S    
C14   H14   1.076637 S    
C73   C74   1.416129 A    
C42   C44   1.402800 A    
C35   C37   1.407039 A    
C94   O2    1.221261 D    
N1    N15   1.379799 A    
C29   C80   1.486162 S    
C62   C64   1.398607 A    
C72   H35   1.076607 S    
N3    N13   1.379799 A    
C11   N11   1.335168 A    
C66   C71   1.398840 A    
C47   C52   1.396682 A    
C13   N13   1.343739 A    
C104  C105  1.396247 A    
C68   C96   1.478451 S    
N7    N11   1.382548 A    
C96   O4    1.221079 D    
C34   C76   1.413046 A    
C100  H59   1.082179 S    
C35   C45   1.394701 A    
H19   C45   1.083563 S    
C84   H45   1.082256 S    
C67   C74   1.410274 A    
C95   O3    1.220591 D    
C26   C110  1.493701 S    
C47   C49   1.399238 A    
C4    H4    1.080548 S    
C97   C98   1.404079 A    
C39   C52   1.483785 S    
C35   H21   1.083310 S    
C36   C46   1.394593 A    
C88   C89   1.396519 A    
C109  O5    1.221362 D    
C18   C27   1.447550 S    
C92   H52   1.078370 S    
C42   H24   1.083783 S    
C11   C23   1.384184 A    
C1    C17   1.410003 A    
C90   H50   1.081893 S    
C12   C24   1.376229 A    
C25   C109  1.497229 S    
C108  H66   1.079398 S    
C67   C95   1.485009 S    
N13   Ni4   1.847365 S    
