data_str_m9_o11_o16_f0_sra.sym.38
_audit_creation_date              2012-12-11T14:17:43-0500
_audit_creation_method            fapswitch 2.2
_symmetry_space_group_name_H-M    P1
_symmetry_Int_Tables_number       1
_space_group_crystal_system       triclinic
_cell_length_a                    6.946449
_cell_length_b                    13.629282
_cell_length_c                    20.456076
_cell_angle_alpha                 102.161552
_cell_angle_beta                  90.280053
_cell_angle_gamma                 90.806813
_cell_volume                      1892.96847429

loop_
_atom_site_label
_atom_site_type_symbol
_atom_type_description
_atom_site_fract_x
_atom_site_fract_y
_atom_site_fract_z
_atom_type_partial_charge
O1    O     O_R   0.506860 0.599390 0.449240 -0.526820
O2    O     O_R   0.180220 0.594600 0.586780 -0.551253
O3    O     O_R   0.004500 0.400610 0.550760 -0.535198
C1    C     C_R   0.349372 0.611513 0.614884 0.625622
O4    O     O_R   0.177490 0.611290 0.451970 -0.552857
O5    O     O_R   0.001750 0.417420 0.414990 -0.556810
C2    C     C_R   0.346846 0.636927 0.434634 0.731116
O6    O     O_R   0.509610 0.582580 0.585010 -0.543152
O7    O     O_3   0.337420 0.436370 0.488020 -0.371066
V1    V     V_3+5 0.064680 0.511800 0.502220 1.416059
O8    O     O_R   0.671710 0.405400 0.413220 -0.541197
C3    C     C_R   0.838848 0.387054 0.385547 0.635029
O9    O     O_R   0.674440 0.388710 0.548030 -0.539439
C4    C     C_R   0.842648 0.362561 0.565271 0.716724
V2    V     V_3+5 0.564010 0.488200 0.497780 1.455690
O10   O     O_3   0.841140 0.563630 0.511980 -0.366972
C5    C     C_R   0.873330 0.105563 0.607419 0.456623
H1    H     H_    0.892316 0.979790 0.689962 0.160938
C6    C     C_R   0.851567 0.281427 0.602272 -0.203801
C7    C     C_R   0.871347 0.311551 0.923539 -0.294903
C8    C     C_R   0.907878 0.385767 0.888036 -0.083559
C9    C     C_R   0.936967 0.361322 0.819237 0.353042
C10   C     C_R   0.901997 0.260804 0.782845 -0.040609
C11   C     C_R   0.883975 0.183100 0.820086 0.004582
C12   C     C_R   0.885963 0.235033 0.711353 0.019618
C13   C     C_R   0.884895 0.132725 0.678059 -0.060610
C14   C     C_R   0.890953 0.057991 0.715387 -0.271028
C15   C     C_R   0.885641 0.081078 0.785359 0.296679
C16   C     C_R   0.858251 0.307603 0.672125 -0.275471
C17   C     C_R   0.857049 0.179463 0.569304 0.287080
C18   C     C_R   0.868469 0.210576 0.891218 -0.087240
H2    H     H_    0.834773 0.385424 0.694832 0.170469
H3    H     H_    0.859390 0.332631 0.977488 0.126430
H4    H     H_    0.927617 0.462666 0.915042 0.146234
C19   C     C_2   0.995256 0.276295 0.289544 -0.151061
C20   C     C_2   0.839942 0.329953 0.314766 0.202525
H5    H     H_    0.122090 0.277508 0.320998 0.107423
C21   C     C_2   0.011103 0.218374 0.219177 -0.099524
C22   C     C_2   0.859567 0.173468 0.182991 -0.243100
H6    H     H_    0.154612 0.208364 0.198227 0.127992
H7    H     H_    0.718017 0.176223 0.205286 0.178056
C23   C     C_2   0.213831 0.765895 0.790400 0.388848
C24   C     C_2   0.354711 0.834029 0.814589 0.276971
C25   C     C_2   0.211084 0.716565 0.717095 -0.222050
C26   C     C_2   0.361700 0.664698 0.686593 0.251118
H8    H     H_    0.079598 0.720426 0.688876 0.077206
C27   C     C_R   0.400070 0.884922 0.384439 -0.090927
H9    H     H_    0.424595 0.962503 0.409435 0.207975
C28   C     C_R   0.356761 0.712188 0.393299 -0.212751
C29   C     C_R   0.291618 0.686635 0.069032 0.349365
C30   C     C_R   0.242247 0.615182 0.106217 -0.235609
C31   C     C_R   0.256072 0.638306 0.175608 -0.123117
C32   C     C_R   0.331218 0.731550 0.210867 0.112786
C33   C     C_R   0.369731 0.806380 0.173434 -0.052869
C34   C     C_R   0.355370 0.755246 0.282229 -0.060353
C35   C     C_R   0.390610 0.857360 0.314484 -0.043687
C36   C     C_R   0.421429 0.931415 0.276893 0.387883
C37   C     C_R   0.416824 0.904660 0.207144 -0.260444
C38   C     C_R   0.350703 0.681115 0.322395 0.368431
C39   C     C_R   0.381148 0.814543 0.424080 0.257415
C40   C     C_R   0.350924 0.782890 0.102718 -0.097754
H10   H     H_    0.194418 0.583784 0.200205 0.168583
H11   H     H_    0.185808 0.542176 0.081568 0.121132
H12   H     H_    0.445425 0.962712 0.179466 0.099433
O11   O     O_R   0.203230 0.917310 0.915020 -0.519382
O12   O     O_R   0.535500 0.888690 0.048040 -0.549269
O13   O     O_R   0.711080 0.082610 0.085000 -0.552955
C41   C     C_R   0.365828 0.861473 0.064025 0.765208
O14   O     O_R   0.532630 0.905370 0.913230 -0.524772
O15   O     O_R   0.708190 0.099410 0.949230 -0.538555
C42   C     C_R   0.363256 0.886582 0.885927 0.725889
O16   O     O_R   0.206120 0.900510 0.050790 -0.537259
O17   O     O_3   0.375360 0.063570 0.011990 -0.392432
V3    V     V_3+5 0.648170 0.988200 0.997780 1.508382
O18   O     O_R   0.038240 0.111390 0.951940 -0.544356
C43   C     C_R   0.870501 0.136825 0.934179 0.813103
O19   O     O_R   0.041120 0.094710 0.086750 -0.549724
C44   C     C_R   0.873185 0.113538 0.114069 0.688435
V4    V     V_3+5 0.148810 0.011930 0.002180 1.493049
O20   O     O_3   0.871750 0.936430 0.988010 -0.350870
O21   O     O_3   0.842755 0.147965 0.500537 -0.621531
H13   H     H_    0.829715 0.206254 0.479205 0.280716
O22   O     O_3   0.685611 0.336860 0.272996 -0.645936
H14   H     H_    0.592856 0.385815 0.297071 0.307976
O23   O     O_3   0.079985 0.742302 0.835769 -0.560657
C45   C     C_3   0.909373 0.698817 0.804389 -0.124754
H15   H     H_    0.936384 0.623696 0.772434 0.160866
H16   H     H_    0.841274 0.749510 0.775268 0.163350
H17   H     H_    0.806103 0.688145 0.843589 0.187274
O24   O     O_3   0.490404 0.860117 0.771535 -0.549636
C46   C     C_3   0.431143 0.949336 0.753287 -0.248927
H18   H     H_    0.445988 0.014465 0.796212 0.144967
H19   H     H_    0.280735 0.943081 0.733442 0.113605
H20   H     H_    0.525058 0.963711 0.712599 0.188590
O25   O     O_3   0.522451 0.654984 0.724804 -0.638787
H21   H     H_    0.612714 0.607675 0.697731 0.278867
O26   O     O_3   0.398401 0.849387 0.492485 -0.640479
H22   H     H_    0.376664 0.794339 0.516379 0.274044
O27   O     O_3   0.459731 0.029603 0.309389 -0.644631
H23   H     H_    0.477282 0.072108 0.275962 0.285619
O28   O     O_3   0.387348 0.581470 0.292512 -0.557664
C47   C     C_3   0.238625 0.515215 0.304239 -0.260300
H24   H     H_    0.097736 0.552368 0.317118 0.129348
H25   H     H_    0.284706 0.474923 0.343246 0.160326
H26   H     H_    0.216031 0.456417 0.258205 0.154783
O29   O     O_3   0.273798 0.666034 0.000122 -0.640135
H27   H     H_    0.229219 0.595475 0.984502 0.295152
O30   O     O_3   0.859505 0.005587 0.575407 -0.538285
C48   C     C_3   0.045008 0.971623 0.555396 -0.127857
H28   H     H_    0.033610 0.890732 0.531570 0.173025
H29   H     H_    0.145085 0.979241 0.598936 0.109500
H30   H     H_    0.105260 0.011623 0.517772 0.179026
O31   O     O_3   0.019865 0.435197 0.791449 -0.658166
H31   H     H_    0.112086 0.402460 0.757101 0.289820
O32   O     O_3   0.882704 0.004170 0.819984 -0.640750
H32   H     H_    0.889185 0.938382 0.788289 0.297305

loop_
_geom_bond_atom_site_label_1
_geom_bond_atom_site_label_2
_ccdc_geom_bond_type
O2    V1    S    
O12   C41   A    
C34   C35   A    
O28   C47   S    
O11   V4    S    
C34   C38   A    
O17   V3    S    
O25   H21   S    
C1    O6    A    
O26   H22   S    
O24   C46   S    
C22   H7    S    
O19   C44   A    
O30   C48   S    
C13   C14   A    
C28   C39   A    
O22   H14   S    
C5    C13   A    
C19   H5    S    
C16   H2    S    
C48   H29   S    
O23   C45   S    
C21   C22   D    
C45   H16   S    
O29   H27   S    
C20   O22   S    
O32   H32   S    
O12   V3    S    
C35   C36   A    
C47   H26   S    
O14   C42   A    
C27   C39   A    
O8    V2    S    
C9    O31   S    
O27   H23   S    
O15   V3    S    
C10   C11   A    
O1    V2    S    
C3    C20   S    
O7    V1    S    
O19   V4    S    
C21   H6    S    
V3    O20   S    
C8    C9    A    
C37   H12   S    
C5    C17   A    
O13   C44   A    
C23   C25   S    
C25   H8    S    
O21   H13   S    
C36   C37   A    
C1    C26   S    
C32   C34   A    
C12   C16   A    
C24   O24   S    
C30   C31   A    
C38   O28   S    
C22   C44   S    
C19   C21   S    
C30   H11   S    
C2    C28   S    
C39   O26   S    
C5    O30   S    
C46   H18   S    
O4    C2    A    
C45   H15   S    
C8    H4    S    
C12   C13   A    
O11   C42   A    
C19   C20   D    
O2    C1    A    
O18   C43   A    
C15   O32   S    
C46   H19   S    
C27   H9    S    
C41   O16   A    
C29   C30   A    
O17   V4    S    
O14   V3    S    
C23   O23   S    
C31   C32   A    
C47   H25   S    
O3    C4    A    
C7    H3    S    
O6    V2    S    
O9    V2    S    
O15   C43   A    
C48   H30   S    
C23   C24   D    
C26   O25   S    
C25   C26   D    
O31   H31   S    
C33   C37   A    
C24   C42   S    
O1    C2    A    
C4    C6    S    
H1    C14   S    
C11   C15   A    
C45   H17   S    
O5    V1    S    
O8    C3    A    
C32   C33   A    
C33   C40   A    
O16   V4    S    
C36   O27   S    
C28   C38   A    
C17   O21   S    
O7    V2    S    
C11   C18   A    
O4    V1    S    
O3    V1    S    
V1    O10   S    
C48   H28   S    
C46   H20   S    
O5    C3    A    
C40   C41   S    
C18   C43   S    
O13   V3    S    
C10   C12   A    
C47   H24   S    
V4    O20   S    
C7    C8    A    
C14   C15   A    
C29   O29   S    
C29   C40   A    
C9    C10   A    
C31   H10   S    
O9    C4    A    
C6    C17   A    
O18   V4    S    
V2    O10   S    
C27   C35   A    
C7    C18   A    
C6    C16   A    
