data_str_m3_o22_o29_f0_pcu.sym.30
_audit_creation_date              2013-03-05T16:19:44-0500
_audit_creation_method            fapswitch 2.2
_symmetry_space_group_name_H-M    P1
_symmetry_Int_Tables_number       1
_space_group_crystal_system       triclinic
_cell_length_a                    11.06566
_cell_length_b                    9.89051
_cell_length_c                    27.417567
_cell_angle_alpha                 90.290523
_cell_angle_beta                  94.575891
_cell_angle_gamma                 90.727356
_cell_volume                      2990.85479448

loop_
_atom_site_label
_atom_site_type_symbol
_atom_site_description
_atom_site_fract_x
_atom_site_fract_y
_atom_site_fract_z
_atom_type_partial_charge
O1    O     O_R   0.314910 0.616040 0.499990 -0.566677
O2    O     O_R   0.314910 0.383960 0.499990 -0.584773
C1    C     C_R   0.259109 0.499204 0.504835 1.044124
O3    O     O_R   0.500140 0.616020 0.428740 -0.580040
O4    O     O_R   0.500140 0.383980 0.428740 -0.499815
C2    C     C_R   0.507091 0.499328 0.406433 1.030229
Zn1   Zn    Zn3+2 0.500150 0.654960 0.499980 1.085326
Zn2   Zn    Zn3+2 0.500150 0.345040 0.499980 1.091284
O5    O     O_R   0.685320 0.616040 0.499970 -0.621489
O6    O     O_R   0.685320 0.383960 0.499970 -0.596571
O7    O     O_R   0.500090 0.616050 0.571230 -0.525257
O8    O     O_R   0.500090 0.383950 0.571230 -0.539818
C3    C     C_R   0.742334 0.500729 0.504126 0.992565
C4    C     C_R   0.505896 0.500706 0.594402 1.032358
C5    C     C_R   0.458839 0.394764 0.175709 0.662393
O9    O     O_2   0.353938 0.378358 0.197061 -0.410040
N1    N     N_R   0.562436 0.430276 0.203752 -0.351335
C6    C     C_R   0.672831 0.434910 0.184595 0.587193
C7    C     C_R   0.624235 0.381050 0.289266 -0.250577
C8    C     C_R   0.614795 0.400521 0.339326 0.466790
C9    C     C_R   0.466035 0.575453 0.320554 -0.363815
C10   C     C_R   0.479932 0.560413 0.270425 0.535218
C11   C     C_R   0.555933 0.458545 0.254865 0.178135
C12   C     C_R   0.575391 0.379031 0.105106 -0.172294
C13   C     C_R   0.461783 0.375150 0.125013 -0.074256
C14   C     C_R   0.355194 0.356098 0.093640 0.483889
C15   C     C_R   0.683129 0.397382 0.135706 -0.141501
C16   C     C_R   0.530505 0.493900 0.354754 -0.128930
H1    H     H_    0.401944 0.647007 0.332451 0.225641
C17   C     C_R   0.522527 0.501625 0.648518 -0.040545
C18   C     C_R   0.489964 0.311882 0.973208 0.062912
C19   C     C_R   0.691403 0.422069 0.983431 -0.084645
C20   C     C_R   0.592439 0.370080 0.952788 -0.027932
C21   C     C_R   0.403893 0.237165 0.942542 0.433536
C22   C     C_R   0.411150 0.239961 0.891761 -0.209060
C23   C     C_R   0.500276 0.318198 0.871333 -0.023984
C24   C     C_R   0.591995 0.382586 0.901819 -0.099488
C25   C     C_R   0.681892 0.460440 0.881189 -0.201122
C26   C     C_R   0.660337 0.496338 0.831543 0.598250
N2    N     N_R   0.572805 0.429894 0.801812 -0.357875
C27   C     C_R   0.499480 0.334083 0.820755 0.559465
C28   C     C_R   0.438840 0.474108 0.726972 -0.063807
C29   C     C_R   0.423258 0.487232 0.676375 -0.163254
C30   C     C_R   0.638770 0.506447 0.673009 -0.152138
C31   C     C_R   0.655813 0.479967 0.722742 -0.066968
C32   C     C_R   0.555822 0.462676 0.750462 0.234755
O10   O     O_2   0.424808 0.255772 0.790893 -0.524792
C33   C     C_R   0.477650 0.333641 0.023578 0.041015
C34   C     C_R   0.581660 0.367779 0.054214 0.074271
C35   C     C_R   0.692295 0.394530 0.034002 0.063840
C36   C     C_R   0.364530 0.332227 0.043545 -0.209946
H2    H     H_    0.333972 0.482152 0.659086 0.238734
H3    H     H_    0.359315 0.466764 0.747426 0.187286
H4    H     H_    0.344029 0.184827 0.868258 0.202415
H5    H     H_    0.281773 0.322925 0.019981 0.212365
O11   O     O_2   0.770545 0.482793 0.212187 -0.458734
C37   C     C_R   0.795853 0.380466 0.115473 0.454747
H6    H     H_    0.683919 0.304386 0.276810 0.192145
C38   C     C_R   0.781915 0.502601 0.962773 0.299530
C39   C     C_R   0.783843 0.508377 0.911271 0.298081
O12   O     O_2   0.720037 0.603034 0.814106 -0.449636
C40   C     C_R   0.799473 0.384801 0.064662 -0.153499
H7    H     H_    0.718528 0.520834 0.654027 0.255346
H8    H     H_    0.747460 0.470248 0.739223 0.213723
H9    H     H_    0.885452 0.375177 0.048931 0.213532
C41   C     C_3   0.080928 0.624218 0.541189 0.213635
C42   C     C_3   0.071138 0.358233 0.530043 0.256537
H10   H     H_    0.109731 0.715594 0.521227 0.117538
H11   H     H_    0.079620 0.291093 0.497727 0.087249
C43   C     C_3   0.938086 0.629708 0.538407 0.240079
C44   C     C_3   0.930286 0.365042 0.533390 0.211938
H12   H     H_    0.914937 0.714113 0.512658 0.104705
H13   H     H_    0.891583 0.282830 0.508649 0.095589
H14   H     H_    0.082648 0.621052 0.444617 0.263360
H15   H     H_    0.092078 0.446010 0.431904 0.221419
H16   H     H_    0.879318 0.593590 0.437345 0.227856
H17   H     H_    0.889946 0.413881 0.436875 0.243746
C45   C     C_3   0.060115 0.519181 0.458456 -0.547704
C46   C     C_3   0.123090 0.498303 0.511026 -0.234337
C47   C     C_3   0.879397 0.501033 0.510561 -0.209991
C48   C     C_3   0.921056 0.506507 0.457744 -0.585017
C49   C     C_3   0.388998 0.079239 0.468503 0.160453
C50   C     C_3   0.382466 0.915855 0.473564 0.214644
H18   H     H_    0.307841 0.115902 0.485442 0.111444
H19   H     H_    0.309062 0.895814 0.498294 0.072427
H20   H     H_    0.624946 0.127056 0.443181 0.252858
H21   H     H_    0.587349 0.895342 0.433325 0.234528
C51   C     C_3   0.608946 0.080335 0.478583 -0.317984
C52   C     C_3   0.600337 0.921663 0.472850 -0.365209
C53   C     C_3   0.492032 0.078952 0.548997 0.215351
C54   C     C_3   0.503332 0.919372 0.549446 0.239919
N3    N     N_3   0.499750 0.138610 0.498940 -0.150779
N4    N     N_3   0.499750 0.861390 0.498940 -0.168443
H22   H     H_    0.401565 0.101489 0.561274 0.166036
H23   H     H_    0.424221 0.878505 0.567537 0.180548
H24   H     H_    0.692381 0.107988 0.501714 0.181033
H25   H     H_    0.688189 0.875799 0.485512 0.196352
S1    S     S_3+6 0.929576 0.332447 0.150574 0.108773
O13   O     O_2   0.006552 0.455780 0.163355 -0.166344
O14   O     O_2   0.899335 0.261953 0.196616 -0.251661
O15   O     O_3   0.006775 0.225198 0.117250 -0.553144
H26   H     H_    0.067201 0.183480 0.140993 0.420421
S2    S     S_3+6 0.865895 0.628505 0.998979 0.089518
O16   O     O_2   0.988209 0.575339 0.016704 -0.265602
O17   O     O_2   0.883263 0.753274 0.969165 -0.190718
O18   O     O_3   0.790402 0.673018 0.047381 -0.544433
H27   H     H_    0.850320 0.723936 0.069362 0.403437
S3    S     S_3+6 0.922178 0.549616 0.884953 0.145389
O19   O     O_2   0.924520 0.697163 0.872195 -0.133561
O20   O     O_2   0.029919 0.519779 0.919935 -0.235294
O21   O     O_3   0.933633 0.458229 0.833633 -0.494914
H28   H     H_    0.926702 0.362782 0.843944 0.347502
S4    S     S_3+6 0.159613 0.654140 0.600654 0.082142
O22   O     O_2   0.292359 0.665316 0.596068 -0.351650
O23   O     O_2   0.122383 0.787230 0.621056 -0.179460
O24   O     O_3   0.132390 0.529830 0.639748 -0.460903
H29   H     H_    0.143374 0.571852 0.672723 0.392429
S5    S     S_3+6 0.158961 0.255001 0.575774 0.100813
O25   O     O_2   0.107280 0.231240 0.623835 -0.117586
O26   O     O_2   0.174284 0.118354 0.553091 -0.347032
O27   O     O_3   0.294413 0.322388 0.590720 -0.570613
H30   H     H_    0.331577 0.262171 0.616374 0.385526
S6    S     S_3+6 0.869845 0.694658 0.592095 0.088679
O28   O     O_2   0.737069 0.666508 0.588606 -0.300169
O29   O     O_2   0.921061 0.640508 0.640160 -0.197215
O30   O     O_3   0.891491 0.863274 0.592922 -0.501297
H31   H     H_    0.864718 0.893711 0.624766 0.421377
S7    S     S_3+6 0.873171 0.315772 0.590878 0.079691
O31   O     O_2   0.885309 0.165133 0.595871 -0.261693
O32   O     O_2   0.936712 0.384328 0.634581 -0.164175
O33   O     O_3   0.727992 0.349781 0.592561 -0.583837
H32   H     H_    0.707284 0.306316 0.623301 0.390293
O34   O     O_3   0.419090 0.641567 0.236022 -0.692691
H33   H     H_    0.370007 0.707529 0.253003 0.367430
S8    S     S_3+6 0.359446 0.151769 0.405853 0.129956
O35   O     O_2   0.474014 0.163856 0.380367 -0.241426
O36   O     O_2   0.270442 0.080231 0.370372 -0.158764
O37   O     O_3   0.293540 0.302365 0.410209 -0.536666
H34   H     H_    0.209382 0.279168 0.417022 0.340065
S9    S     S_3+6 0.315088 0.829715 0.417818 0.080221
O38   O     O_2   0.189504 0.885974 0.409527 -0.281552
O39   O     O_2   0.389851 0.862908 0.375943 -0.260623
O40   O     O_3   0.287022 0.663083 0.414646 -0.557035
H35   H     H_    0.236247 0.648114 0.383610 0.366665
O41   O     O_3   0.573167 0.139860 0.584315 -0.677374
H36   H     H_    0.656183 0.117671 0.576815 0.380349
O42   O     O_3   0.604346 0.875999 0.578910 -0.627686
H37   H     H_    0.677873 0.906159 0.563778 0.367586
O43   O     O_3   0.242890 0.366535 0.111862 -0.641707
H38   H     H_    0.179146 0.363843 0.084323 0.373713
O44   O     O_3   0.319197 0.155086 0.962719 -0.739972
H39   H     H_    0.267382 0.109560 0.936207 0.362623
O45   O     O_3   0.686159 0.329247 0.373720 -0.771973
H40   H     H_    0.740329 0.268847 0.356749 0.347911

loop_
_geom_bond_atom_site_label_1
_geom_bond_atom_site_label_2
_geom_bond_distance
_ccdc_geom_bond_type
S8    O37   1.674611 S    
C41   H10   1.115096 S    
C51   H24   1.108067 S    
O15   H26   0.990664 S    
C41   S4    1.807191 S    
C7    C8    1.397327 A    
S9    O40   1.673747 S    
C1    C46   1.527996 S    
S7    O31   1.503589 D    
C54   O42   1.399167 S    
O41   H36   0.984441 S    
S6    O28   1.487381 D    
C41   C43   1.578024 S    
C31   C32   1.400654 A    
O24   H29   0.991086 S    
Zn1   O7    1.993014 S    
C41   C46   1.586941 S    
O30   H31   0.990744 S    
C23   C24   1.406086 A    
S9    O39   1.502952 D    
C53   O41   1.395805 S    
C28   H3    1.082461 S    
O4    C2    1.301482 A    
O7    C4    1.308401 A    
H20   C51   1.103135 S    
C29   H2    1.061672 S    
S6    O29   1.496796 D    
O18   H27   0.990533 S    
O40   H35   0.990964 S    
C50   N4    1.528421 S    
C49   N3    1.535166 S    
S3    O19   1.502760 D    
S8    O36   1.496470 D    
C21   C22   1.401372 A    
C28   C32   1.405238 A    
C49   S8    1.871067 S    
O5    C3    1.311427 A    
S5    O25   1.496204 D    
C50   S9    1.845719 S    
O42   H37   0.985917 S    
C43   S6    1.824775 S    
C33   C36   1.405604 A    
C2    C16   1.461443 S    
C51   N3    1.491912 S    
O44   H39   0.991726 S    
C18   C20   1.420775 A    
Zn2   N3    2.041697 S    
C42   C44   1.570876 S    
C39   S3    1.787092 S    
C6    O11   1.348542 S    
S4    O24   1.675338 S    
C3    C47   1.512835 S    
C38   C39   1.415334 A    
C30   H7    1.068135 S    
C9    C10   1.402485 A    
C22   H4    1.083529 S    
C17   C30   1.402876 A    
C23   C27   1.395750 A    
C4    C17   1.480413 S    
O3    Zn1   1.988910 S    
C26   O12   1.347732 S    
C44   C47   1.577810 S    
H15   C45   1.104996 S    
C53   H22   1.106261 S    
C7    H6    1.083431 S    
Zn1   N4    2.042099 S    
C8    O45   1.382694 S    
C10   O34   1.381058 S    
C43   C47   1.585667 S    
S8    O35   1.499396 D    
C42   C46   1.598910 S    
S9    O38   1.504320 D    
O3    C2    1.309427 A    
C15   C37   1.416475 A    
C26   N2    1.373672 A    
C44   H13   1.115314 S    
C45   C46   1.565943 S    
S6    O30   1.681573 S    
C8    C16   1.408105 A    
C37   C40   1.397747 A    
C13   C14   1.413305 A    
C9    H1    1.075886 S    
C49   C50   1.623786 S    
C20   C24   1.403173 A    
C52   H25   1.109183 S    
O1    C1    1.315598 A    
S5    O27   1.653054 S    
C7    C11   1.398783 A    
C24   C25   1.406122 A    
C54   N4    1.493521 S    
C53   N3    1.504888 S    
H17   C48   1.113744 S    
Zn2   O8    1.989188 S    
C12   C15   1.411208 A    
N1    C6    1.368023 A    
C27   O10   1.349946 S    
C18   C21   1.417110 A    
S2    O17   1.502408 D    
N1    C11   1.435238 S    
C12   C13   1.410067 A    
C19   C35   1.413666 A    
O27   H30   0.991405 S    
C25   C39   1.418380 A    
N2    C27   1.370693 A    
C50   H19   1.115314 S    
C9    C16   1.397995 A    
O8    C4    1.313558 A    
C34   C35   1.406192 A    
S1    O14   1.504026 D    
C18   C33   1.414168 A    
H21   C52   1.110903 S    
O34   H33   0.991780 S    
C35   C40   1.402547 A    
C17   C29   1.393290 A    
C28   C29   1.391128 A    
N2    C32   1.444483 S    
O33   H32   0.989769 S    
S7    O33   1.649700 S    
C30   C31   1.388259 A    
S4    O22   1.487023 D    
C12   C34   1.406482 A    
C5    N1    1.369331 A    
C33   C34   1.406140 A    
O21   H28   0.990606 S    
O1    Zn1   2.080848 S    
C14   O43   1.380723 S    
O2    Zn2   2.090452 S    
C6    C15   1.402811 A    
C47   C48   1.555351 S    
O6    C3    1.309016 A    
S7    O32   1.495034 D    
H16   C48   1.114330 S    
O4    Zn2   1.992743 S    
C21   O44   1.382542 S    
S1    O15   1.681495 S    
C31   H8    1.082449 S    
C49   H18   1.107601 S    
S3    O21   1.682652 S    
C38   S2    1.791805 S    
C19   C20   1.415631 A    
O2    C1    1.314354 A    
O43   H38   0.991295 S    
C45   C48   1.540856 S    
C53   C54   1.584886 S    
C25   C26   1.411011 A    
C37   S1    1.771037 S    
C40   H9    1.080562 S    
S3    O20   1.502581 D    
S2    O18   1.683167 S    
C36   H5    1.080430 S    
C52   N4    1.490141 S    
C44   S7    1.811132 S    
C42   S5    1.844651 S    
S5    O26   1.502076 D    
C5    C13   1.405469 A    
O37   H34   0.988710 S    
C54   H23   1.112685 S    
Zn1   O5    2.089691 S    
C51   C52   1.577316 S    
Zn2   O6    2.080086 S    
S1    O13   1.502657 D    
H14   C45   1.110806 S    
S2    O16   1.503436 D    
C10   C11   1.406693 A    
C43   H12   1.115110 S    
C22   C23   1.399390 A    
C19   C38   1.425920 A    
C42   H11   1.115228 S    
O45   H40   0.991697 S    
C14   C36   1.404578 A    
C5    O9    1.349491 S    
S4    O23   1.502798 D    
