data_str_m3_o40_o40_f0_fof.sym.80
_audit_creation_date              2013-03-05T15:40:52-0500
_audit_creation_method            fapswitch 2.2
_symmetry_space_group_name_H-M    P1
_symmetry_Int_Tables_number       1
_space_group_crystal_system       triclinic
_cell_length_a                    16.774195
_cell_length_b                    16.751398
_cell_length_c                    16.870272
_cell_angle_alpha                 65.913038
_cell_angle_beta                  65.756512
_cell_angle_gamma                 65.751464
_cell_volume                      3773.93466945

loop_
_atom_site_label
_atom_site_type_symbol
_atom_site_description
_atom_site_fract_x
_atom_site_fract_y
_atom_site_fract_z
_atom_type_partial_charge
O1    O     O_R   0.982940 0.138950 0.510160 -0.625549
O2    O     O_R   0.017060 0.861050 0.489840 -0.618281
O3    O     O_R   0.138950 0.510160 0.982940 -0.574762
O4    O     O_R   0.861050 0.489840 0.017060 -0.620884
O5    O     O_R   0.510160 0.982940 0.138950 -0.618809
O6    O     O_R   0.489840 0.017060 0.861050 -0.623925
O7    O     O_R   0.489840 0.861050 0.017060 -0.571842
O8    O     O_R   0.510160 0.138950 0.982940 -0.608456
O9    O     O_R   0.017060 0.489840 0.861050 -0.573585
O10   O     O_R   0.982940 0.510160 0.138950 -0.603253
O11   O     O_R   0.861050 0.017060 0.489840 -0.573039
O12   O     O_R   0.138950 0.982940 0.510160 -0.608775
O13   O     O_R   0.867700 0.025880 0.612340 -0.606879
O14   O     O_R   0.132300 0.974120 0.387660 -0.629459
O15   O     O_R   0.025880 0.612340 0.867700 -0.607063
O16   O     O_R   0.974120 0.387660 0.132300 -0.631544
O17   O     O_R   0.612340 0.867700 0.025880 -0.605187
O18   O     O_R   0.387660 0.132300 0.974120 -0.629841
O19   O     O_R   0.387660 0.974120 0.132300 -0.612478
O20   O     O_R   0.612340 0.025880 0.867700 -0.588728
O21   O     O_R   0.132300 0.387660 0.974120 -0.621114
O22   O     O_R   0.867700 0.612340 0.025880 -0.623391
O23   O     O_R   0.974120 0.132300 0.387660 -0.609887
O24   O     O_R   0.025880 0.867700 0.612340 -0.589815
C1    C     C_R   0.464906 0.916395 0.697946 -0.258268
C2    C     C_R   0.598576 0.953032 0.331292 -0.273728
C3    C     C_R   0.970344 0.680760 0.438494 -0.265662
C4    C     C_R   0.955468 0.330455 0.599793 -0.269677
C5    C     C_R   0.697952 0.466292 0.917290 -0.261273
C6    C     C_R   0.329992 0.598243 0.955157 -0.205154
C7    C     C_R   0.349776 0.914138 0.605359 -0.265426
C8    C     C_R   0.658349 0.044002 0.405905 -0.225176
C9    C     C_R   0.606308 0.349235 0.916635 -0.262809
C10   C     C_R   0.403251 0.656998 0.048256 -0.212326
C11   C     C_R   0.030411 0.563552 0.319294 -0.269287
C12   C     C_R   0.050676 0.397243 0.666849 -0.212368
C13   C     C_R   0.960839 0.179207 0.438785 0.929461
C14   C     C_R   0.021325 0.823084 0.569005 0.960764
C15   C     C_R   0.179380 0.438166 0.961408 0.954028
C16   C     C_R   0.824074 0.570250 0.018519 0.950372
C17   C     C_R   0.437728 0.962371 0.179272 0.917093
C18   C     C_R   0.570423 0.017551 0.824452 0.970941
C19   C     C_R   0.560968 0.820253 0.039655 0.996852
C20   C     C_R   0.438614 0.179758 0.960275 0.921328
C21   C     C_R   0.040265 0.560774 0.820775 0.988824
C22   C     C_R   0.978885 0.430911 0.176941 0.943131
C23   C     C_R   0.820294 0.037889 0.561894 0.973894
C24   C     C_R   0.179704 0.960767 0.438279 0.914259
Zn1   Zn    Zn3+2 0.004880 0.004880 0.583590 1.142548
Zn2   Zn    Zn3+2 0.995120 0.995120 0.416410 1.132268
Zn3   Zn    Zn3+2 0.004880 0.583590 0.004880 1.161349
Zn4   Zn    Zn3+2 0.995120 0.416410 0.995120 1.122211
Zn5   Zn    Zn3+2 0.583590 0.004880 0.004880 1.148525
Zn6   Zn    Zn3+2 0.416410 0.995120 0.995120 1.125148
H1    H     H_    0.420327 0.873587 0.739040 0.192741
H2    H     H_    0.669585 0.951817 0.300083 0.205589
H3    H     H_    0.943662 0.716883 0.380623 0.200889
H4    H     H_    0.943529 0.304418 0.672613 0.202586
H5    H     H_    0.739204 0.422470 0.873719 0.194238
H6    H     H_    0.298230 0.669094 0.954853 0.197780
H7    H     H_    0.320977 0.902384 0.677789 0.194002
H8    H     H_    0.677884 0.063998 0.332545 0.186843
H9    H     H_    0.679146 0.320360 0.905702 0.193279
H10   H     H_    0.329385 0.676339 0.068194 0.195971
H11   H     H_    0.055941 0.622584 0.283598 0.200415
H12   H     H_    0.063348 0.323814 0.692234 0.186088
C25   C     C_R   0.515474 0.925820 0.740372 0.336340
C26   C     C_R   0.559795 0.922950 0.293154 0.323308
C27   C     C_R   0.958435 0.728290 0.496011 0.332018
C28   C     C_R   0.924367 0.296484 0.557512 0.312629
C29   C     C_R   0.739966 0.517666 0.926253 0.335625
C30   C     C_R   0.292953 0.559986 0.923357 0.343831
C31   C     C_R   0.303169 0.901860 0.560334 0.311688
C32   C     C_R   0.696398 0.071597 0.447385 0.352587
C33   C     C_R   0.561671 0.302517 0.903710 0.310828
C34   C     C_R   0.444801 0.695615 0.075398 0.353113
C35   C     C_R   0.040934 0.507000 0.271148 0.326943
C36   C     C_R   0.079167 0.440369 0.702661 0.361871
C37   C     C_R   0.556264 0.986315 0.551387 0.036789
C38   C     C_R   0.467949 0.948572 0.464789 0.033380
C39   C     C_R   0.014732 0.538901 0.551039 0.035050
C40   C     C_R   0.989973 0.447959 0.459430 0.038782
C41   C     C_R   0.550120 0.555837 0.989404 0.035606
C42   C     C_R   0.464421 0.467507 0.950570 0.030230
C43   C     C_R   0.589743 0.999542 0.456908 0.030508
C44   C     C_R   0.431755 0.938891 0.558729 0.030723
C45   C     C_R   0.016994 0.446363 0.591360 0.026246
C46   C     C_R   0.004095 0.534459 0.414202 0.025766
C47   C     C_R   0.455039 0.588753 0.003234 0.028435
C48   C     C_R   0.558758 0.431374 0.941252 0.033251
C49   C     C_R   0.551502 0.970385 0.415941 0.023603
C50   C     C_R   0.481669 0.949213 0.603345 0.027812
C51   C     C_R   0.414600 0.550825 0.973163 0.015849
C52   C     C_R   0.602980 0.481707 0.951535 0.026600
C53   C     C_R   0.989428 0.406153 0.551009 0.022115
C54   C     C_R   0.999542 0.585229 0.465429 0.024564
C55   C     C_R   0.573719 0.982998 0.690309 -0.020928
C56   C     C_R   0.464462 0.931633 0.328517 -0.024619
C57   C     C_R   0.002523 0.682471 0.565837 -0.014505
C58   C     C_R   0.945856 0.325513 0.460707 -0.027721
C59   C     C_R   0.689392 0.574527 0.984651 -0.013581
C60   C     C_R   0.328821 0.464691 0.931227 -0.006675
C61   C     C_R   0.333244 0.923551 0.464037 -0.018750
C62   C     C_R   0.673267 0.045318 0.543720 0.004624
C63   C     C_R   0.464858 0.333008 0.924061 -0.019478
C64   C     C_R   0.541771 0.672767 0.048815 0.012295
C65   C     C_R   0.998167 0.435580 0.316671 -0.023131
C66   C     C_R   0.056416 0.537881 0.674568 0.008290
C67   C     C_R   0.609071 0.016094 0.731156 -0.107741
C68   C     C_R   0.410312 0.936591 0.278313 -0.067339
C69   C     C_R   0.024601 0.727827 0.606179 -0.106394
C70   C     C_R   0.942461 0.277669 0.409175 -0.051125
C71   C     C_R   0.730328 0.609191 0.018015 -0.095300
C72   C     C_R   0.278773 0.410767 0.935192 -0.055784
C73   C     C_R   0.280160 0.933506 0.410122 -0.092795
C74   C     C_R   0.721498 0.053414 0.592409 -0.052569
C75   C     C_R   0.410867 0.280206 0.932805 -0.092778
C76   C     C_R   0.590781 0.721156 0.056671 -0.036917
C77   C     C_R   0.975659 0.394549 0.271909 -0.109746
C78   C     C_R   0.058450 0.590278 0.722699 -0.047192
C79   C     C_R   0.681160 0.051820 0.681407 -0.203291
C80   C     C_R   0.321435 0.933698 0.320768 -0.225338
C81   C     C_R   0.054025 0.680773 0.682258 -0.186785
C82   C     C_R   0.945987 0.318241 0.319419 -0.245902
C83   C     C_R   0.680274 0.680589 0.054924 -0.244443
C84   C     C_R   0.321461 0.321920 0.931728 -0.219767
C85   C     C_R   0.599998 0.006345 0.594825 0.008488
C86   C     C_R   0.421601 0.935036 0.419092 -0.007637
C87   C     C_R   0.025974 0.586172 0.596515 0.011241
C88   C     C_R   0.976715 0.403631 0.412443 -0.004459
C89   C     C_R   0.593400 0.599868 0.009227 0.010674
C90   C     C_R   0.419370 0.421471 0.935656 -0.004814
H13   H     H_    0.712152 0.069927 0.714476 0.233388
H14   H     H_    0.281005 0.939934 0.281093 0.208354
H15   H     H_    0.065416 0.716979 0.715458 0.230645
H16   H     H_    0.933907 0.284765 0.284011 0.212476
H17   H     H_    0.713619 0.711346 0.073116 0.214906
H18   H     H_    0.281723 0.281738 0.936979 0.209131
N1    N     N_R   0.519668 0.863888 0.828461 0.209423
O25   O     O_R   0.449215 0.835804 0.885159 -0.405615
O26   O     O_R   0.598745 0.820895 0.844041 -0.413265
N2    N     N_R   0.620219 0.870035 0.230544 0.227661
O27   O     O_R   0.699241 0.883080 0.179361 -0.382797
O28   O     O_R   0.600729 0.801889 0.231640 -0.389371
N3    N     N_R   0.887931 0.814325 0.494544 0.222637
O29   O     O_R   0.867166 0.867326 0.419744 -0.387774
O30   O     O_R   0.835187 0.833123 0.570527 -0.400987
N4    N     N_R   0.863451 0.240904 0.613891 0.227887
O31   O     O_R   0.867298 0.190841 0.695635 -0.343737
O32   O     O_R   0.797705 0.247433 0.587374 -0.358781
N5    N     N_R   0.827683 0.524064 0.863262 0.212926
O33   O     O_R   0.884217 0.455828 0.831143 -0.409574
O34   O     O_R   0.842372 0.603692 0.823292 -0.404652
N6    N     N_R   0.230592 0.620720 0.870490 0.224518
O35   O     O_R   0.178668 0.699575 0.884078 -0.335023
O36   O     O_R   0.232425 0.601519 0.802254 -0.369761
N7    N     N_R   0.235320 0.853934 0.614347 0.231200
O37   O     O_R   0.232750 0.791509 0.589034 -0.372010
O38   O     O_R   0.184067 0.863712 0.694200 -0.342610
N8    N     N_R   0.750328 0.133974 0.390812 0.211767
O39   O     O_R   0.798584 0.132077 0.308011 -0.373791
O40   O     O_R   0.743754 0.199223 0.418295 -0.390115
N9    N     N_R   0.616819 0.234064 0.856614 0.232333
O41   O     O_R   0.593048 0.231333 0.793592 -0.367208
O42   O     O_R   0.696197 0.181959 0.868286 -0.342474
N10   N     N_R   0.387689 0.751083 0.136228 0.210741
O43   O     O_R   0.304306 0.798823 0.134335 -0.371565
O44   O     O_R   0.415151 0.746346 0.200267 -0.394200
N11   N     N_R   0.109410 0.510962 0.184364 0.222407
O45   O     O_R   0.126913 0.587792 0.131738 -0.387322
O46   O     O_R   0.163751 0.435546 0.164112 -0.431002
N12   N     N_R   0.137983 0.384175 0.760037 0.209659
O47   O     O_R   0.133846 0.301865 0.809478 -0.379734
O48   O     O_R   0.202826 0.411061 0.755327 -0.398603

loop_
_geom_bond_atom_site_label_1
_geom_bond_atom_site_label_2
_geom_bond_distance
_ccdc_geom_bond_type
C46   C54   1.402978 A    
O9    C21   1.236457 A    
N7    O37   1.301668 A    
C56   C68   1.435841 A    
C27   N3    1.439175 S    
N11   O45   1.301718 A    
C7    H7    1.078053 S    
O11   C23   1.238761 A    
N9    O41   1.301652 A    
C1    C25   1.399124 A    
C55   C85   1.409364 A    
O12   Zn1   2.032760 S    
C43   C49   1.422887 A    
C77   C82   1.372158 A    
C6    C30   1.402126 A    
O4    Zn4   2.030635 S    
C4    C53   1.402230 A    
O5    Zn5   2.042888 S    
N9    O42   1.301506 A    
C18   C67   1.441722 S    
C60   C90   1.408043 A    
C70   C82   1.370296 A    
C6    C51   1.403042 A    
C8    C32   1.408514 A    
C5    C52   1.402280 A    
C72   C84   1.375672 A    
C12   H12   1.082404 S    
C7    C31   1.406343 A    
C71   C83   1.369956 A    
C11   H11   1.083453 S    
C31   N7    1.439390 S    
C59   C71   1.427309 A    
C36   C66   1.429353 A    
C66   C78   1.435258 A    
C80   H14   1.084615 S    
C13   C70   1.449581 S    
C38   C44   1.409745 A    
O2    Zn2   2.034332 S    
C34   C64   1.422343 A    
C62   C74   1.440288 A    
C9    C33   1.405450 A    
C29   N5    1.434645 S    
O4    C16   1.236110 A    
N12   O48   1.301687 A    
C6    H6    1.081846 S    
O10   C22   1.233534 A    
O24   C14   1.279706 A    
N5    O33   1.301021 A    
C26   N2    1.440735 S    
C76   C83   1.363184 A    
O7    C19   1.235718 A    
C40   C88   1.410686 A    
C25   N1    1.434274 S    
C75   C84   1.374404 A    
N6    O36   1.301774 A    
C3    C27   1.398611 A    
C78   C81   1.368917 A    
O12   C24   1.246636 A    
C56   C86   1.410773 A    
C29   C59   1.418948 A    
O22   C16   1.271988 A    
N7    O38   1.301571 A    
C7    C44   1.412607 A    
C64   C76   1.440501 A    
N10   O44   1.301676 A    
N11   O46   1.301640 A    
C63   C75   1.437391 A    
C3    C54   1.397386 A    
C64   C89   1.417496 A    
O9    Zn4   2.044882 S    
C42   C48   1.407759 A    
O6    Zn6   2.042889 S    
C65   C88   1.414681 A    
O10   Zn3   2.044882 S    
C65   C77   1.433936 A    
N3    O30   1.301673 A    
C28   C58   1.430315 A    
C48   C52   1.424788 A    
C63   C90   1.414815 A    
C12   C45   1.404215 A    
C23   C74   1.460718 S    
C41   C47   1.406860 A    
C30   N6    1.440871 S    
C74   C79   1.364050 A    
C57   C87   1.410437 A    
C69   C81   1.373727 A    
O16   Zn4   2.066870 S    
C35   C65   1.427705 A    
N4    O31   1.301483 A    
C3    H3    1.083436 S    
O16   C22   1.280961 A    
O13   C23   1.296797 A    
C39   C54   1.406415 A    
C82   H16   1.085574 S    
O23   Zn2   2.050754 S    
O14   C24   1.291202 A    
C38   C86   1.424732 A    
C83   H17   1.085932 S    
C2    C49   1.404133 A    
O23   C13   1.289403 A    
C41   C52   1.419259 A    
C42   C90   1.422068 A    
C81   H15   1.085541 S    
N8    O40   1.301722 A    
C61   C73   1.437831 A    
O17   C19   1.294455 A    
C41   C89   1.422483 A    
C60   C72   1.432711 A    
O18   C20   1.288286 A    
C55   C67   1.432254 A    
C11   C46   1.398333 A    
O2    C14   1.241380 A    
C39   C87   1.410152 A    
C16   C71   1.436063 S    
O21   C15   1.283387 A    
C9    H9    1.078471 S    
C15   C72   1.455168 S    
C57   C69   1.427506 A    
C10   H10   1.081805 S    
C37   C50   1.419037 A    
C34   N10   1.440143 S    
C61   C86   1.414512 A    
N6    O35   1.301616 A    
C66   C87   1.411550 A    
C39   C45   1.406863 A    
C24   C73   1.470127 S    
O13   Zn1   2.052268 S    
C59   C89   1.406697 A    
C33   N9    1.438979 S    
C33   C63   1.421256 A    
O15   Zn3   2.066870 S    
C17   C68   1.460438 S    
N10   O43   1.301513 A    
N2    O28   1.301813 A    
C28   N4    1.440857 S    
O15   C21   1.288858 A    
O17   Zn5   2.050417 S    
N3    O29   1.301717 A    
C37   C43   1.408476 A    
N12   O47   1.301530 A    
O19   Zn6   2.066498 S    
C32   C62   1.422689 A    
O24   Zn1   2.050756 S    
O5    C17   1.237526 A    
C45   C53   1.421107 A    
C84   H18   1.084726 S    
C1    C50   1.403787 A    
O3    Zn3   2.030635 S    
C40   C53   1.409944 A    
C4    C28   1.409100 A    
C1    H1    1.078395 S    
N4    O32   1.301712 A    
O20   Zn5   2.066498 S    
C2    H2    1.081767 S    
O8    Zn5   2.030200 S    
O20   C18   1.277149 A    
N1    O25   1.301500 A    
C58   C70   1.431161 A    
C4    H4    1.082538 S    
C36   N12   1.440170 S    
C32   N8    1.440283 S    
O18   Zn6   2.050419 S    
C2    C26   1.403106 A    
N8    O39   1.301544 A    
C27   C57   1.426493 A    
C38   C49   1.415374 A    
C10   C47   1.410522 A    
C37   C85   1.425547 A    
O11   Zn2   2.032760 S    
C12   C36   1.411460 A    
C9    C48   1.412391 A    
C68   C80   1.375521 A    
N1    O26   1.301689 A    
C67   C79   1.369592 A    
O14   Zn2   2.052268 S    
C62   C85   1.417568 A    
C30   C60   1.425324 A    
C20   C75   1.469717 S    
C40   C46   1.403191 A    
C8    C43   1.409663 A    
C11   C35   1.400452 A    
C22   C77   1.449180 S    
C58   C88   1.408508 A    
C42   C51   1.416394 A    
N5    O34   1.301534 A    
C47   C51   1.421589 A    
O8    C20   1.242358 A    
C26   C56   1.424997 A    
C25   C55   1.419854 A    
C19   C76   1.461227 S    
C8    H8    1.081650 S    
C31   C61   1.421760 A    
C21   C78   1.454918 S    
C35   N11   1.438579 S    
O6    C18   1.236134 A    
C73   C80   1.375669 A    
C5    H5    1.078651 S    
N2    O27   1.301658 A    
O22   Zn3   2.052304 S    
C44   C50   1.428333 A    
O7    Zn6   2.030202 S    
C79   H13   1.085955 S    
C14   C69   1.442913 S    
O1    Zn1   2.034332 S    
O21   Zn4   2.052306 S    
O3    C15   1.236851 A    
O19   C17   1.286659 A    
C10   C34   1.410014 A    
O1    C13   1.241180 A    
C5    C29   1.397160 A    
