data_str_m9_o4_o2_f0_sra.sym.104
_audit_creation_date              2013-03-05T16:08:13-0500
_audit_creation_method            fapswitch 2.2
_symmetry_space_group_name_H-M    P1
_symmetry_Int_Tables_number       1
_space_group_crystal_system       triclinic
_cell_length_a                    6.951819
_cell_length_b                    14.651487
_cell_length_c                    15.979723
_cell_angle_alpha                 89.981675
_cell_angle_beta                  89.774075
_cell_angle_gamma                 90.444932
_cell_volume                      1627.54464017

loop_
_atom_site_label
_atom_site_type_symbol
_atom_site_description
_atom_site_fract_x
_atom_site_fract_y
_atom_site_fract_z
_atom_type_partial_charge
O1    O     O_R   0.505720 0.583900 0.413310 -0.595784
O2    O     O_R   0.175940 0.594920 0.586080 -0.612328
O3    O     O_R   0.005640 0.416100 0.586690 -0.597508
C1    C     C_R   0.345772 0.618197 0.613747 1.013940
O4    O     O_R   0.176000 0.594930 0.413930 -0.609958
O5    O     O_R   0.005700 0.416110 0.413310 -0.558472
C2    C     C_R   0.345311 0.616840 0.385162 1.003622
O6    O     O_R   0.505660 0.583890 0.586690 -0.592386
O7    O     O_3   0.339200 0.441330 0.500000 -0.242711
V1    V     V_3+5 0.064350 0.510880 0.500000 1.190372
O8    O     O_R   0.675980 0.405080 0.413920 -0.594502
C3    C     C_R   0.845000 0.382526 0.385629 1.031660
O9    O     O_R   0.675920 0.405070 0.586070 -0.555683
C4    C     C_R   0.842668 0.385724 0.616991 1.014264
V2    V     V_3+5 0.564340 0.489120 0.500000 1.219440
O10   O     O_3   0.839360 0.558670 0.500000 -0.314607
H1    H     H_    0.867783 0.078791 0.499249 0.146474
C5    C     C_R   0.736554 0.427982 0.793716 0.439453
C6    C     C_R   0.749896 0.460202 0.876571 0.478312
C7    C     C_R   0.834758 0.405386 0.937479 -0.509232
C8    C     C_R   0.889872 0.315642 0.919165 0.474007
C9    C     C_R   0.867459 0.281145 0.836462 -0.027226
C10   C     C_R   0.819655 0.343303 0.771269 -0.139495
C11   C     C_R   0.882079 0.186488 0.817317 -0.197620
C12   C     C_R   0.868862 0.157659 0.732600 -0.001516
C13   C     C_R   0.865666 0.223174 0.666963 0.101478
C14   C     C_R   0.844980 0.316852 0.686050 -0.181819
C15   C     C_R   0.857099 0.064122 0.711718 -0.263802
C16   C     C_R   0.855680 0.034931 0.628488 0.626923
C17   C     C_R   0.866875 0.099854 0.564212 -0.268220
C18   C     C_R   0.870654 0.192641 0.583075 -0.165773
H2    H     H_    0.850940 0.431436 0.000532 0.183493
H3    H     H_    0.844971 0.012764 0.759989 0.147737
H4    H     H_    0.872102 0.240001 0.531098 0.135978
C19   C     C_R   0.746034 0.255854 0.182621 -0.075495
C20   C     C_R   0.882429 0.185913 0.182613 -0.272395
C21   C     C_R   0.017744 0.186112 0.248023 -0.268272
H5    H     H_    0.124793 0.133106 0.250920 0.208704
C22   C     C_R   0.007066 0.250141 0.313902 0.718339
C23   C     C_R   0.858049 0.315255 0.316614 -0.447127
C24   C     C_R   0.733997 0.318737 0.247841 0.054469
C25   C     C_3   0.519560 0.321973 0.244070 0.198488
C26   C     C_3   0.532151 0.253381 0.172053 0.289758
H6    H     H_    0.448133 0.297198 0.302334 0.150846
H7    H     H_    0.485250 0.280078 0.110329 0.137730
C27   C     C_R   0.515044 0.690838 0.736133 0.077316
C28   C     C_R   0.357903 0.687262 0.681394 -0.385667
C29   C     C_R   0.212807 0.752351 0.692051 -0.093534
H8    H     H_    0.095611 0.755142 0.647778 0.150189
C30   C     C_R   0.227044 0.820590 0.753724 0.589289
C31   C     C_R   0.379289 0.819351 0.812848 -0.456769
C32   C     C_R   0.522616 0.753717 0.802171 0.056200
C33   C     C_3   0.730628 0.773389 0.787272 0.341703
C34   C     C_3   0.721777 0.707864 0.714056 0.332446
H9    H     H_    0.759508 0.845474 0.769115 0.079449
H10   H     H_    0.742639 0.741550 0.652046 0.010403
C35   C     C_R   0.494554 0.678076 0.252586 0.150749
C36   C     C_R   0.353181 0.682930 0.315078 -0.260014
C37   C     C_R   0.209988 0.749790 0.305723 -0.344373
H11   H     H_    0.094956 0.754898 0.351314 0.159920
C38   C     C_R   0.221270 0.815115 0.240992 0.801481
C39   C     C_R   0.374138 0.813804 0.182337 -0.483903
C40   C     C_R   0.503976 0.741332 0.187653 0.002773
C41   C     C_3   0.718422 0.741681 0.188193 0.664520
C42   C     C_3   0.708102 0.672412 0.259071 -0.591552
H12   H     H_    0.781290 0.808748 0.205719 0.087909
H13   H     H_    0.762774 0.699469 0.319514 0.162574
H14   H     H_    0.762316 0.603815 0.241499 0.242274
O11   O     O_R   0.229140 0.916090 0.913340 -0.594987
O12   O     O_R   0.558860 0.905090 0.086080 -0.599103
O13   O     O_R   0.729100 0.083920 0.086690 -0.572401
C43   C     C_R   0.389214 0.883471 0.115203 1.070652
O14   O     O_R   0.558860 0.905090 0.913930 -0.619620
O15   O     O_R   0.729100 0.083920 0.913310 -0.616629
C44   C     C_R   0.390278 0.885362 0.883350 0.973544
O16   O     O_R   0.229140 0.916080 0.086720 -0.543272
O17   O     O_3   0.395570 0.058660 0.000020 -0.260999
V3    V     V_3+5 0.670450 0.989140 0.000000 1.221211
O18   O     O_R   0.058810 0.094980 0.913910 -0.575962
C45   C     C_R   0.890686 0.116957 0.885304 1.025828
O19   O     O_R   0.058810 0.094980 0.086060 -0.555231
C46   C     C_R   0.890118 0.116326 0.115392 1.096265
V4    V     V_3+5 0.170450 0.010950 0.999970 1.258894
O20   O     O_3   0.895460 0.941370 0.999990 -0.282850
F1    F     F_    0.133995 0.243910 0.377932 -0.717719
O21   O     O_3   0.457198 0.407836 0.217479 -0.734551
H15   H     H_    0.314681 0.403914 0.216385 0.322232
O22   O     O_3   0.450304 0.167672 0.190988 -0.737483
H16   H     H_    0.499710 0.147079 0.246072 0.315101
O23   O     O_3   0.099448 0.891460 0.749211 -0.765106
H17   H     H_    0.165697 0.947858 0.768016 0.299016
O24   O     O_3   0.844327 0.741266 0.853230 -0.617635
H18   H     H_    0.858296 0.792796 0.892969 0.348680
O25   O     O_3   0.835955 0.630705 0.726311 -0.645209
H19   H     H_    0.846016 0.600526 0.671003 0.343753
O26   O     O_3   0.624371 0.472866 0.736198 -0.737807
H20   H     H_    0.530979 0.511798 0.766136 0.355586
F2    F     F_    0.091445 0.883788 0.240050 -0.733502
F3    F     F_    0.792910 0.705020 0.115232 -0.657378
O27   O     O_3   0.680588 0.545809 0.896004 -0.680128
H21   H     H_    0.701183 0.558072 0.956355 0.364464
O28   O     O_3   0.972513 0.262751 0.980594 -0.768484
H22   H     H_    0.986211 0.298905 0.032707 0.315684
O29   O     O_3   0.842579 0.942654 0.612110 -0.765511
H23   H     H_    0.843558 0.933255 0.550650 0.303722

loop_
_geom_bond_atom_site_label_1
_geom_bond_atom_site_label_2
_geom_bond_distance
_ccdc_geom_bond_type
O12   V3    1.996506 S    
C5    O26   1.377925 S    
C24   C25   1.493296 S    
C38   F2    1.356955 S    
C1    O6    1.296183 A    
O19   C46   1.301628 A    
C35   C36   1.400552 A    
C33   C34   1.514814 S    
C12   C15   1.412432 A    
C13   C14   1.414387 A    
C16   C17   1.401218 A    
C26   O22   1.406969 S    
C15   C16   1.397246 A    
C31   C44   1.486838 S    
O5    C3    1.296661 A    
C17   C18   1.392654 A    
O17   V4    1.709052 S    
V2    O10   2.159500 S    
C27   C32   1.401926 A    
C5    C6    1.408935 A    
O24   H18   0.991134 S    
O28   H22   0.991600 S    
O8    V2    2.004511 S    
C11   C45   1.490782 S    
C41   F3    1.384164 S    
C39   C40   1.401725 A    
C28   C29   1.403409 A    
C20   C46   1.482321 S    
C42   H13   1.111430 S    
O14   V3    2.001148 S    
C25   O21   1.400244 S    
C10   C14   1.426580 A    
C4    C14   1.495324 S    
C19   C26   1.497255 S    
O7    V1    2.172424 S    
C2    C36   1.480836 S    
C43   O16   1.298414 A    
O13   C46   1.297961 A    
C29   C30   1.407307 A    
C37   H11   1.082687 S    
O15   C45   1.297638 A    
C8    C9    1.423780 A    
H1    C17   1.083093 S    
O14   C44   1.301979 A    
O25   H19   0.990839 S    
C25   H6    1.112882 S    
O16   V4    2.008043 S    
O29   H23   0.991760 S    
O19   V4    2.004529 S    
C30   O23   1.372930 S    
C35   C40   1.392038 A    
C33   H9    1.111752 S    
C34   H10   1.115326 S    
C37   C38   1.410582 A    
C31   C32   1.400101 A    
C11   C12   1.421364 A    
C22   C23   1.414297 A    
O4    C2    1.299813 A    
O21   H15   0.992197 S    
C12   C13   1.421928 A    
O17   V3    2.172398 S    
C5    C10   1.418261 A    
C16   O29   1.379557 S    
C19   C20   1.401521 A    
C41   H12   1.108812 S    
C3    C23   1.482289 S    
O2    C1    1.305240 A    
C21   H5    1.080877 S    
O11   V4    2.005008 S    
V4    O20   2.159521 S    
C6    O27   1.382111 S    
C42   H14   1.111861 S    
O26   H20   0.989567 S    
C27   C34   1.497501 S    
C33   O24   1.403285 S    
C30   C31   1.421730 A    
C18   H4    1.082086 S    
C39   C43   1.483398 S    
O22   H16   0.993777 S    
C26   H7    1.111932 S    
O3    C4    1.305297 A    
O1    V2    2.006361 S    
C8    O28   1.380220 S    
C23   C24   1.400780 A    
C15   H3    1.080015 S    
O6    V2    2.004739 S    
O9    V2    2.007983 S    
C9    C11   1.424621 A    
O18   C45   1.299467 A    
C25   C26   1.530792 S    
C22   F1    1.357255 S    
O2    V1    2.001169 S    
C32   C33   1.490516 S    
C7    H2    1.083518 S    
C27   C28   1.402818 A    
C20   C21   1.408946 A    
O1    C2    1.300362 A    
C35   C42   1.491521 S    
O5    V1    2.002532 S    
O8    C3    1.302358 A    
C41   C42   1.521672 S    
C6    C7    1.397046 A    
C36   C37   1.410359 A    
O4    V1    1.996556 S    
C21   C22   1.412427 A    
O3    V1    1.999873 S    
V1    O10   1.718620 S    
O18   V4    2.007855 S    
O23   H17   0.990218 S    
C29   H8    1.082130 S    
O27   H21   0.991783 S    
O11   C44   1.300363 A    
O7    V2    1.709647 S    
C38   C39   1.414466 A    
C19   C24   1.393967 A    
C34   O25   1.400503 S    
C40   C41   1.490817 S    
V3    O20   1.718625 S    
C13   C18   1.413701 A    
C7    C8    1.403056 A    
O15   V3    1.999792 S    
C9    C10   1.425449 A    
O12   C43   1.302899 A    
O9    C4    1.295288 A    
O13   V3    2.002633 S    
C1    C28   1.483131 S    
