data_str_m3_o41_o41_f0_fof.sym.61
_audit_creation_date              2012-12-10T16:39:37-0500
_audit_creation_method            fapswitch 2.2
_symmetry_space_group_name_H-M    P1
_symmetry_Int_Tables_number       1
_space_group_crystal_system       triclinic
_cell_length_a                    16.984161
_cell_length_b                    16.950004
_cell_length_c                    16.805317
_cell_angle_alpha                 65.950579
_cell_angle_beta                  66.332997
_cell_angle_gamma                 66.327819
_cell_volume                      3879.242999

loop_
_atom_site_label
_atom_site_type_symbol
_atom_type_description
_atom_site_fract_x
_atom_site_fract_y
_atom_site_fract_z
_atom_type_partial_charge
C1    C     C_R   0.328191 0.933976 0.462203 0.035514
C2    C     C_R   0.302459 0.435215 0.022762 0.041483
C3    C     C_R   0.533365 0.406458 0.019397 0.014892
C4    C     C_R   0.047350 0.446331 0.573272 0.014320
C5    C     C_R   0.001173 0.543221 0.408664 0.013794
C6    C     C_1   0.284770 0.887167 0.286050 0.250836
C7    C     C_1   0.754426 0.973285 0.756969 0.302842
C8    C     C_1   0.883251 0.292818 0.297549 0.254016
C9    C     C_1   0.115186 0.712345 0.712378 0.258473
C10   C     C_1   0.243488 0.236763 0.053527 0.268535
C11   C     C_1   0.746783 0.745054 0.955172 0.270659
C12   C     C_1   0.286841 0.001323 0.814233 0.174482
C13   C     C_R   0.059169 0.673654 0.538764 0.038226
C14   C     C_1   0.726885 0.949748 0.195570 0.177711
C15   C     C_1   0.030451 0.806876 0.268398 0.166595
C16   C     C_1   0.066620 0.166749 0.685578 0.171065
C17   C     C_1   0.804995 0.275879 0.026729 0.177116
C18   C     C_1   0.171054 0.699499 0.052528 0.171786
C19   C     C_1   0.216135 0.922733 0.746864 0.190432
C20   C     C_1   0.813797 0.987858 0.283676 0.174215
C21   C     C_1   0.721855 0.203187 0.966972 0.171260
C22   C     C_1   0.262155 0.790046 0.080300 0.180735
C23   C     C_1   0.939748 0.739210 0.210618 0.169379
C24   C     C_R   0.000233 0.313700 0.436072 0.030656
C25   C     C_1   0.096932 0.253814 0.779154 0.164682
C26   C     C_R   0.464660 0.948620 0.465308 -0.016642
C27   C     C_R   0.554729 0.982817 0.552012 -0.015250
C28   C     C_R   0.006384 0.451105 0.446589 -0.014189
C29   C     C_R   0.043106 0.538238 0.534643 -0.015672
C30   C     C_R   0.441566 0.444965 0.024936 -0.014691
C31   C     C_R   0.533266 0.532900 0.054750 -0.013855
C32   C     C_R   0.976169 0.177384 0.432056 0.921970
C33   C     C_R   0.693064 0.989138 0.559786 0.045937
C34   C     C_R   0.038063 0.820726 0.562134 0.870468
C35   C     C_R   0.169041 0.427269 0.995695 0.904089
C36   C     C_R   0.821686 0.563537 0.032612 0.889848
C37   C     C_R   0.438117 0.960622 0.179468 0.881507
C38   C     C_R   0.565884 0.027467 0.821938 0.891231
C39   C     C_R   0.563856 0.821365 0.032835 0.870386
C40   C     C_R   0.432962 0.177868 0.974438 0.892674
C41   C     C_R   0.039099 0.561747 0.820420 0.916837
C42   C     C_R   0.962958 0.438043 0.179440 0.863156
C43   C     C_R   0.827013 0.012742 0.570347 0.922371
C44   C     C_R   0.957972 0.456721 0.324312 0.042766
C45   C     C_R   0.179248 0.961240 0.438211 0.877586
C46   C     C_R   0.417736 0.936997 0.419588 0.072783
C47   C     C_R   0.600637 0.997410 0.596893 0.068640
C48   C     C_R   0.986556 0.407510 0.403348 0.068095
C49   C     C_R   0.056459 0.583663 0.580863 0.070489
C50   C     C_R   0.395564 0.400288 0.010552 0.071190
C51   C     C_R   0.582059 0.580765 0.059900 0.073771
C52   C     C_R   0.278562 0.933897 0.410426 -0.171051
C53   C     C_R   0.738313 0.999640 0.609392 -0.166931
C54   C     C_R   0.944654 0.409447 0.278785 -0.163650
C55   C     C_R   0.065955 0.539383 0.669355 0.038132
C56   C     C_R   0.066350 0.590015 0.719737 -0.180032
C57   C     C_R   0.392273 0.268879 0.984558 -0.154983
C58   C     C_R   0.596829 0.724499 0.044545 -0.157390
C59   C     C_R   0.604980 0.020225 0.730127 -0.149324
C60   C     C_R   0.409097 0.932082 0.280005 -0.177273
C61   C     C_R   0.725505 0.595950 0.043090 -0.160343
C62   C     C_R   0.257580 0.387036 0.010679 -0.169288
C63   C     C_R   0.063873 0.721402 0.589676 -0.163641
C64   C     C_R   0.970509 0.272770 0.397106 -0.161871
C65   C     C_R   0.459974 0.033565 0.709983 -0.214835
C66   C     C_R   0.442605 0.320775 0.983652 0.034395
C67   C     C_R   0.552910 0.920818 0.294996 -0.210509
C68   C     C_R   0.059410 0.711603 0.446308 -0.215171
C69   C     C_R   0.041227 0.265268 0.507678 -0.212207
C70   C     C_R   0.707932 0.446933 0.065694 -0.212225
C71   C     C_R   0.257209 0.514813 0.049881 -0.207219
C72   C     C_R   0.292878 0.928222 0.555808 -0.214967
C73   C     C_R   0.736810 0.967908 0.476228 -0.207936
C74   C     C_R   0.537202 0.293215 0.963906 -0.214552
C75   C     C_R   0.446464 0.702073 0.083737 -0.217868
C76   C     C_R   0.945171 0.550806 0.292683 -0.214960
C77   C     C_R   0.540803 0.669896 0.064976 0.031637
C78   C     C_R   0.079100 0.445231 0.702607 -0.209938
C79   C     C_R   0.323824 0.919648 0.325100 -0.101494
C80   C     C_R   0.697978 0.997959 0.698701 -0.160608
C81   C     C_R   0.933428 0.324736 0.325016 -0.121608
C82   C     C_R   0.080312 0.674780 0.674074 -0.114301
C83   C     C_R   0.298864 0.298458 0.011922 -0.129669
C84   C     C_R   0.688971 0.688423 0.019906 -0.123859
C85   C     C_R   0.689605 0.966099 0.425628 0.024633
C86   C     C_R   0.335659 0.946930 0.599800 0.031804
C87   C     C_R   0.069021 0.398202 0.656311 0.033599
C88   C     C_R   0.554175 0.019743 0.679132 0.037772
C89   C     C_R   0.972664 0.593296 0.329636 0.029121
C90   C     C_R   0.397416 0.657418 0.074682 0.037944
C91   C     C_R   0.581289 0.328092 0.991482 0.034093
C92   C     C_R   0.598466 0.939049 0.335818 0.035199
C93   C     C_R   0.418281 0.002187 0.676316 0.030418
C94   C     C_R   0.303500 0.564871 0.054174 0.030178
C95   C     C_R   0.666548 0.404507 0.043770 0.033227
C96   C     C_R   0.047689 0.308518 0.559569 0.029149
C97   C     C_R   0.032330 0.673115 0.405304 0.028974
C98   C     C_R   0.731227 0.962684 0.335011 -0.060044
C99   C     C_R   0.460126 0.930423 0.330486 0.034788
C100  C     C_R   0.294766 0.953719 0.689515 -0.056562
C101  C     C_R   0.078523 0.304482 0.691934 -0.051753
C102  C     C_R   0.974787 0.683975 0.287945 -0.053960
C103  C     C_R   0.306201 0.698070 0.075987 -0.058439
C104  C     C_R   0.671832 0.285688 0.992806 -0.053115
C105  C     C_R   0.686201 0.947792 0.290412 -0.056235
C106  C     C_R   0.332759 0.987854 0.724956 -0.056412
C107  C     C_R   0.259663 0.652098 0.065107 -0.055447
C108  C     C_R   0.713059 0.321640 0.022910 -0.051691
C109  C     C_R   0.067808 0.259936 0.643593 -0.052461
C110  C     C_R   0.672717 0.539967 0.058818 0.031312
C111  C     C_R   0.012195 0.720784 0.321189 -0.059139
C112  C     C_R   0.553918 0.952503 0.422183 0.015312
C113  C     C_R   0.464895 0.981126 0.593920 0.015944
C114  C     C_R   0.033265 0.402057 0.526871 0.016373
C115  C     C_R   0.024436 0.585252 0.450020 0.016034
C116  C     C_R   0.395561 0.527360 0.046270 0.014929
C117  C     C_R   0.577709 0.447813 0.039375 0.014621
C118  C     C_R   0.599366 0.967255 0.466548 0.017831
C119  C     C_R   0.421343 0.959700 0.552737 0.015029
C120  C     C_R   0.442024 0.572723 0.058350 0.015144
H1    H     H_    0.417014 0.067915 0.760421 0.185838
H2    H     H_    0.410064 0.762164 0.104842 0.184070
H3    H     H_    0.912861 0.591901 0.239537 0.181451
H4    H     H_    0.102165 0.406962 0.762302 0.181458
H5    H     H_    0.591542 0.896209 0.236664 0.177424
H6    H     H_    0.082345 0.770228 0.404172 0.190216
H7    H     H_    0.071846 0.193727 0.523259 0.188119
H8    H     H_    0.768460 0.406580 0.085019 0.191235
H9    H     H_    0.185117 0.536742 0.073445 0.182996
H10   H     H_    0.232791 0.907756 0.596010 0.187918
H11   H     H_    0.808502 0.945192 0.450954 0.187867
H12   H     H_    0.578316 0.244645 0.927110 0.184654
N1    N     N_1   0.253680 0.860758 0.255449 -0.195363
N2    N     N_1   0.063972 0.092936 0.719251 -0.183891
N3    N     N_1   0.878239 0.239444 0.029751 -0.169702
N4    N     N_1   0.101192 0.737731 0.040567 -0.170670
N5    N     N_1   0.153918 0.897314 0.793118 -0.154003
N6    N     N_1   0.878463 0.010070 0.242318 -0.161933
N7    N     N_1   0.761721 0.137512 0.946295 -0.170293
N8    N     N_1   0.227438 0.863637 0.082878 -0.149787
N9    N     N_1   0.911314 0.783005 0.149178 -0.166711
N10   N     N_1   0.111449 0.213579 0.848725 -0.169440
N11   N     N_1   0.799707 0.957112 0.801164 -0.143499
N12   N     N_1   0.843169 0.267733 0.275663 -0.186773
N13   N     N_1   0.143362 0.741980 0.742737 -0.180685
N14   N     N_1   0.199333 0.188045 0.086943 -0.162906
N15   N     N_1   0.795029 0.787407 0.903815 -0.173108
N16   N     N_1   0.250344 0.012022 0.885406 -0.163900
N17   N     N_1   0.758643 0.951982 0.119808 -0.162044
N18   N     N_1   0.046472 0.874894 0.226079 -0.153233
O1    O     O_R   0.982940 0.138950 0.510160 -0.636764
O2    O     O_R   0.982940 0.510160 0.138950 -0.655253
O3    O     O_R   0.861050 0.017060 0.489840 -0.642139
O4    O     O_R   0.138950 0.982940 0.510160 -0.647458
O5    O     O_R   0.867700 0.025880 0.612340 -0.614862
O6    O     O_R   0.132300 0.974120 0.387660 -0.612062
O7    O     O_R   0.025880 0.612340 0.867700 -0.597356
O8    O     O_R   0.974120 0.387660 0.132300 -0.617647
O9    O     O_R   0.612340 0.867700 0.025880 -0.618860
O10   O     O_R   0.387660 0.132300 0.974120 -0.611625
O11   O     O_R   0.387660 0.974120 0.132300 -0.609945
O12   O     O_R   0.017060 0.861050 0.489840 -0.655436
O13   O     O_R   0.612340 0.025880 0.867700 -0.617589
O14   O     O_R   0.132300 0.387660 0.974120 -0.620154
O15   O     O_R   0.867700 0.612340 0.025880 -0.613168
O16   O     O_R   0.974120 0.132300 0.387660 -0.601618
O17   O     O_R   0.025880 0.867700 0.612340 -0.618198
O18   O     O_R   0.138950 0.510160 0.982940 -0.639027
O19   O     O_R   0.861050 0.489840 0.017060 -0.640231
O20   O     O_R   0.510160 0.982940 0.138950 -0.631120
O21   O     O_R   0.489840 0.017060 0.861050 -0.638041
O22   O     O_R   0.489840 0.861050 0.017060 -0.636875
O23   O     O_R   0.510160 0.138950 0.982940 -0.634685
O24   O     O_R   0.017060 0.489840 0.861050 -0.629861
Zn1   Zn    Zn3+2 0.004880 0.004880 0.583590 1.005798
Zn2   Zn    Zn3+2 0.995120 0.995120 0.416410 1.005888
Zn3   Zn    Zn3+2 0.004880 0.583590 0.004880 1.005895
Zn4   Zn    Zn3+2 0.995120 0.416410 0.995120 1.003085
Zn5   Zn    Zn3+2 0.583590 0.004880 0.004880 1.009241
Zn6   Zn    Zn3+2 0.416410 0.995120 0.995120 1.012936

loop_
_geom_bond_atom_site_label_1
_geom_bond_atom_site_label_2
_ccdc_geom_bond_type
C78   C87   A    
C12   C106  S    
C62   C83   A    
C73   H11   S    
C60   C79   A    
C74   H12   S    
C89   C102  A    
C75   H2    S    
O15   Zn3   S    
C25   N10   T    
C91   C104  A    
C46   C99   A    
C69   C96   A    
C16   N2    T    
C7    N11   T    
C26   C112  A    
C38   O21   A    
C71   C94   A    
C29   C49   A    
C95   C117  A    
O3    Zn2   S    
C36   O19   A    
C98   C105  A    
O4    Zn1   S    
C4    C114  A    
C35   C62   S    
C6    N1    T    
C32   O16   A    
C67   H5    S    
C40   O23   A    
C97   C111  A    
C1    C46   A    
C23   C102  S    
O12   Zn2   S    
O23   Zn5   S    
C70   H8    S    
O18   Zn3   S    
C66   C74   A    
C22   N8    T    
C10   C83   S    
C3    C91   A    
C20   N6    T    
O2    Zn3   S    
C44   C76   A    
C59   C88   A    
C34   C63   S    
C85   C98   A    
C70   C110  A    
C58   C77   A    
C113  C119  A    
C21   C104  S    
C43   C53   S    
C14   C105  S    
O10   Zn6   S    
C27   C47   A    
C16   C109  S    
C57   C83   A    
C18   N4    T    
C86   C119  A    
C65   H1    S    
C97   C115  A    
C52   C79   A    
C78   H4    S    
O24   Zn4   S    
C4    C29   A    
C75   C90   A    
C67   C99   A    
C9    C82   S    
O22   Zn6   S    
C65   C93   A    
C29   C115  A    
C101  C109  A    
C24   C64   A    
C87   C101  A    
C5    C115  A    
C96   C114  A    
C102  C111  A    
C42   O8    A    
C25   C101  S    
C43   O5    A    
C61   C110  A    
C7    C80   S    
C41   O24   A    
C24   C69   A    
C33   C53   A    
C90   C103  A    
C94   C107  A    
C1    C72   A    
O1    Zn1   S    
C63   C82   A    
C8    C81   S    
C24   C48   A    
C15   C111  S    
C53   C80   A    
C44   C48   A    
C26   C119  A    
C32   C64   S    
C17   C108  S    
O9    Zn5   S    
C37   O20   A    
C4    C87   A    
C55   C78   A    
C94   C116  A    
C92   C112  A    
C30   C116  A    
C45   C52   S    
C49   C55   A    
C39   C58   S    
C22   C103  S    
C116  C120  A    
C90   C120  A    
C74   C91   A    
C3    C30   A    
C51   C77   A    
C41   C56   S    
C31   C117  A    
C39   O22   A    
C58   C84   A    
C93   C106  A    
C71   H9    S    
C5    C28   A    
C75   C77   A    
C13   C63   A    
C19   N5    T    
C55   C56   A    
C35   O18   A    
C68   C97   A    
C8    N12   T    
C45   O6    A    
O7    Zn3   S    
C18   C107  S    
O11   Zn6   S    
C56   C82   A    
C50   C66   A    
C73   C85   A    
C28   C114  A    
C10   N14   T    
C41   O7    A    
C17   N3    T    
C27   C113  A    
C33   C73   A    
C38   O13   A    
C51   C110  A    
C2    C50   A    
O13   Zn5   S    
C33   C47   A    
C13   C49   A    
O21   Zn6   S    
C21   N7    T    
C2    C71   A    
C68   H6    S    
O19   Zn4   S    
C104  C108  A    
O14   Zn4   S    
C65   C88   A    
C37   O11   A    
C27   C118  A    
O5    Zn1   S    
C28   C48   A    
C40   C57   S    
C39   O9    A    
C76   H3    S    
C100  C106  A    
C40   O10   A    
C31   C51   A    
C34   O12   A    
C61   C84   A    
O6    Zn2   S    
C59   C80   A    
C60   C99   A    
C72   C86   A    
C19   C100  S    
C72   H10   S    
C11   C84   S    
C96   C109  A    
C76   C89   A    
O16   Zn2   S    
C35   O14   A    
O20   Zn5   S    
C47   C88   A    
C12   N16   T    
C70   C95   A    
O8    Zn4   S    
C57   C66   A    
C42   C54   S    
C112  C118  A    
C86   C100  A    
C11   N15   T    
C6    C79   S    
C32   O1    A    
C14   N17   T    
C9    N13   T    
C36   O15   A    
C93   C113  A    
O17   Zn1   S    
C15   N18   T    
C30   C50   A    
C85   C118  A    
C1    C52   A    
C31   C120  A    
C37   C60   S    
C95   C108  A    
C26   C46   A    
C38   C59   S    
C64   C81   A    
C44   C54   A    
C92   C105  A    
C20   C98   S    
C69   H7    S    
C34   O17   A    
C23   N9    T    
C103  C107  A    
C45   O4    A    
C3    C117  A    
C67   C92   A    
C43   O3    A    
C2    C62   A    
C54   C81   A    
C5    C89   A    
C36   C61   S    
C42   O2    A    
C13   C68   A    
