data_str_m9_o18_o27_f0_sra.sym.21
_audit_creation_date              2013-03-05T15:53:19-0500
_audit_creation_method            fapswitch 2.2
_symmetry_space_group_name_H-M    P1
_symmetry_Int_Tables_number       1
_space_group_crystal_system       triclinic
_cell_length_a                    27.243
_cell_length_b                    7.205355
_cell_length_c                    22.411655
_cell_angle_alpha                 90.002963
_cell_angle_beta                  101.241119
_cell_angle_gamma                 89.999522
_cell_volume                      4314.90824659

loop_
_atom_site_label
_atom_site_type_symbol
_atom_site_description
_atom_site_fract_x
_atom_site_fract_y
_atom_site_fract_z
_atom_type_partial_charge
O1    O     O_R   0.207310 0.594030 0.676830 -0.579676
O2    O     O_R   0.792690 0.405970 0.323170 -0.580326
O3    O     O_R   0.292690 0.094030 0.823170 -0.579701
O4    O     O_R   0.707310 0.905970 0.176830 -0.580331
O5    O     O_R   0.197320 0.262370 0.795700 -0.588371
O6    O     O_R   0.802680 0.737630 0.204300 -0.584609
O7    O     O_R   0.302680 0.762370 0.704300 -0.588348
O8    O     O_R   0.697320 0.237630 0.295700 -0.584612
C1    C     C_R   0.184739 0.432399 0.811829 0.943012
C2    C     C_R   0.815691 0.567282 0.188573 0.935310
C3    C     C_R   0.315255 0.932390 0.688163 0.942983
C4    C     C_R   0.684308 0.067289 0.311426 0.935306
O9    O     O_R   0.201410 0.264250 0.675590 -0.587590
O10   O     O_R   0.798590 0.735750 0.324410 -0.587721
O11   O     O_R   0.298590 0.764250 0.824410 -0.587567
O12   O     O_R   0.701410 0.235750 0.175590 -0.587727
O13   O     O_R   0.296810 0.094940 0.702210 -0.585824
O14   O     O_R   0.703190 0.905060 0.297790 -0.592296
O15   O     O_R   0.203190 0.594940 0.797790 -0.585877
O16   O     O_R   0.796810 0.405060 0.202210 -0.592310
C5    C     C_R   0.189953 0.432808 0.652880 0.902722
C6    C     C_R   0.810045 0.567425 0.347243 0.905748
C7    C     C_R   0.310047 0.932816 0.847121 0.902636
C8    C     C_R   0.689957 0.067418 0.152755 0.905752
O17   O     O_3   0.281300 0.427390 0.758870 -0.278298
O18   O     O_3   0.718700 0.572610 0.241130 -0.279289
O19   O     O_3   0.218700 0.927390 0.741130 -0.278303
O20   O     O_3   0.781300 0.072610 0.258870 -0.279284
V1    V     V_3+5 0.244190 0.152150 0.748350 1.153784
V2    V     V_3+5 0.755810 0.847850 0.251650 1.150327
V3    V     V_3+5 0.255810 0.652150 0.751650 1.153792
V4    V     V_3+5 0.744190 0.347850 0.248350 1.150319
C9    C     C_R   0.655561 0.060794 0.092500 -0.144084
C10   C     C_R   0.344129 0.941781 0.907381 -0.138830
C11   C     C_R   0.844442 0.560828 0.407496 -0.144082
C12   C     C_R   0.155874 0.441740 0.592619 -0.138904
C13   C     C_R   0.638689 0.102081 0.983056 -0.231642
C14   C     C_R   0.358702 0.961616 0.017310 -0.234481
C15   C     C_R   0.861314 0.602187 0.516939 -0.231663
C16   C     C_R   0.141306 0.461282 0.482687 -0.234417
C17   C     C_R   0.671791 0.114174 0.039121 0.133228
C18   C     C_R   0.325256 0.955381 0.961307 0.142309
C19   C     C_R   0.828210 0.614224 0.460874 0.133239
C20   C     C_R   0.174753 0.454993 0.538689 0.142710
C21   C     C_R   0.605234 0.009377 0.088698 -0.257647
C22   C     C_R   0.396143 0.942669 0.910673 -0.251281
C23   C     C_R   0.894773 0.509462 0.411298 -0.257644
C24   C     C_R   0.103863 0.442880 0.589332 -0.251289
C25   C     C_R   0.569755 0.014819 0.032525 0.112023
C26   C     C_R   0.430763 0.962179 0.967112 0.113440
C27   C     C_R   0.930253 0.514945 0.467471 0.112027
C28   C     C_R   0.069245 0.462296 0.532889 0.113449
C29   C     C_R   0.588067 0.050810 0.978411 0.072785
C30   C     C_R   0.411180 0.964505 0.021539 0.073726
C31   C     C_R   0.911938 0.550948 0.521584 0.072791
C32   C     C_R   0.088829 0.464424 0.478461 0.073655
C33   C     C_R   0.516817 0.989889 0.028709 0.025650
C34   C     C_R   0.483844 0.982729 0.970898 0.026068
C35   C     C_R   0.983191 0.490017 0.471289 0.025647
C36   C     C_R   0.016164 0.482905 0.529100 0.026098
C37   C     C_R   0.504461 0.005640 0.918374 -0.220385
C38   C     C_R   0.495793 0.984147 0.081323 -0.220716
C39   C     C_R   0.995545 0.505849 0.581622 -0.220389
C40   C     C_R   0.004217 0.484203 0.418676 -0.220712
C41   C     C_R   0.555515 0.040019 0.920744 0.124040
C42   C     C_R   0.443991 0.973351 0.079152 0.122613
C43   C     C_R   0.944489 0.540188 0.579251 0.124003
C44   C     C_R   0.056018 0.473285 0.420847 0.122627
H1    H     H_    0.408021 0.927032 0.867870 0.107056
H2    H     H_    0.595090 0.966738 0.130755 0.112748
H3    H     H_    0.091989 0.427480 0.632143 0.107038
H4    H     H_    0.904920 0.466827 0.369241 0.112740
H5    H     H_    0.653114 0.140353 0.943121 0.132697
H6    H     H_    0.342546 0.967666 0.057650 0.130631
H7    H     H_    0.846888 0.640475 0.556873 0.132704
H8    H     H_    0.157464 0.467101 0.442345 0.130662
H9    H     H_    0.480515 0.006707 0.874607 0.129658
H10   H     H_    0.519563 0.998107 0.125006 0.129007
H11   H     H_    0.019487 0.506937 0.625390 0.129665
H12   H     H_    0.980448 0.498163 0.374993 0.129000
C45   C     C_R   0.642099 0.898975 0.385460 -0.255560
C46   C     C_R   0.349764 0.076497 0.603489 -0.271323
C47   C     C_R   0.857891 0.398916 0.114538 -0.255550
C48   C     C_R   0.150125 0.576860 0.896374 -0.270988
H13   H     H_    0.669073 0.788580 0.386085 0.181821
H14   H     H_    0.318407 0.171674 0.596162 0.158041
H15   H     H_    0.830914 0.288533 0.113916 0.181816
H16   H     H_    0.181422 0.672316 0.903619 0.158426
C49   C     C_R   0.606002 0.883018 0.422292 0.351579
C50   C     C_R   0.385209 0.087993 0.565780 0.366078
C51   C     C_R   0.893984 0.382919 0.077703 0.351562
C52   C     C_R   0.114674 0.588342 0.934082 0.365802
C53   C     C_R   0.569687 0.025791 0.420931 -0.260680
C54   C     C_R   0.426522 0.964688 0.574440 -0.251475
C55   C     C_R   0.930303 0.525667 0.079061 -0.260732
C56   C     C_R   0.073441 0.464658 0.925517 -0.251685
C57   C     C_R   0.570390 0.181059 0.381532 0.364833
C58   C     C_R   0.430993 0.829012 0.621305 0.358666
C59   C     C_R   0.929608 0.680958 0.118457 0.364835
C60   C     C_R   0.069041 0.328727 0.878734 0.358560
C61   C     C_R   0.608403 0.193944 0.346901 -0.234305
C62   C     C_R   0.394521 0.820042 0.658121 -0.281652
C63   C     C_R   0.891597 0.693887 0.153090 -0.234305
C64   C     C_R   0.105521 0.319777 0.841928 -0.281546
H17   H     H_    0.609574 0.313338 0.317863 0.179574
H18   H     H_    0.397719 0.715492 0.693403 0.177120
H19   H     H_    0.890431 0.813296 0.182127 0.179568
H20   H     H_    0.102379 0.215015 0.806716 0.177247
C65   C     C_R   0.644535 0.054626 0.348676 -0.206730
C66   C     C_R   0.353847 0.942948 0.649613 -0.190301
C67   C     C_R   0.855460 0.554589 0.151319 -0.206717
C68   C     C_R   0.146130 0.442979 0.850358 -0.190623
N1    N     N_R   0.482846 0.987701 0.436783 -0.030539
N2    N     N_R   0.513427 0.002523 0.558450 -0.033752
N3    N     N_R   0.017134 0.487448 0.063187 -0.030555
N4    N     N_R   0.986542 0.502424 0.941525 -0.033739
N5    N     N_R   0.449455 0.971599 0.472847 -0.019164
N6    N     N_R   0.546819 0.019010 0.522393 -0.025154
N7    N     N_R   0.050519 0.471349 0.027114 -0.019356
N8    N     N_R   0.953155 0.518903 0.977591 -0.025177
C69   C     C_R   0.464059 0.978321 0.534403 0.327900
C70   C     C_R   0.532169 0.012585 0.460857 0.341058
C71   C     C_R   0.035909 0.478159 0.965561 0.328298
C72   C     C_R   0.967812 0.512418 0.039126 0.341183
C73   C     C_3   0.575895 0.066559 0.862111 -0.440895
C74   C     C_3   0.538942 0.034964 0.801539 -0.294165
C75   C     C_3   0.564877 0.053265 0.747271 -0.727483
H21   H     H_    0.581319 0.194012 0.746175 0.256983
H22   H     H_    0.594909 0.947568 0.749944 0.252303
H23   H     H_    0.537172 0.031387 0.704424 0.258177
H24   H     H_    0.522567 0.893407 0.800772 0.224938
H25   H     H_    0.508470 0.139869 0.796244 0.211394
H26   H     H_    0.590621 0.210378 0.861687 0.196506
H27   H     H_    0.607464 0.967831 0.863339 0.197983
C76   C     C_3   0.423012 0.973356 0.137943 -0.431163
C77   C     C_3   0.461298 0.979019 0.198415 -0.304891
C78   C     C_3   0.435426 0.973817 0.252999 -0.734779
H28   H     H_    0.410091 0.095025 0.252075 0.256896
H29   H     H_    0.413474 0.843792 0.252708 0.257005
H30   H     H_    0.464020 0.978948 0.295720 0.253911
H31   H     H_    0.486783 0.857384 0.201406 0.216471
H32   H     H_    0.483583 0.109119 0.201172 0.215051
H33   H     H_    0.398162 0.096181 0.137047 0.194953
H34   H     H_    0.400127 0.845674 0.138270 0.198185
C79   C     C_3   0.924105 0.566691 0.637884 -0.440811
C80   C     C_3   0.961054 0.535046 0.698455 -0.294187
C81   C     C_3   0.935114 0.553264 0.752723 -0.727776
H35   H     H_    0.918674 0.694007 0.753842 0.257077
H36   H     H_    0.905081 0.447565 0.750026 0.252266
H37   H     H_    0.962816 0.531325 0.795567 0.258146
H38   H     H_    0.977434 0.393498 0.699203 0.224794
H39   H     H_    0.991524 0.639964 0.703770 0.211465
H40   H     H_    0.909379 0.710509 0.638322 0.196497
H41   H     H_    0.892535 0.467960 0.636642 0.197968
C82   C     C_3   0.076997 0.473161 0.362056 -0.431154
C83   C     C_3   0.038712 0.478952 0.301584 -0.304814
C84   C     C_3   0.064584 0.473659 0.247000 -0.734949
H42   H     H_    0.089947 0.594783 0.247934 0.256866
H43   H     H_    0.086504 0.343562 0.247281 0.257028
H44   H     H_    0.035991 0.478880 0.204280 0.253926
H45   H     H_    0.013198 0.357402 0.298582 0.216450
H46   H     H_    0.016459 0.609127 0.298839 0.215055
H47   H     H_    0.101884 0.595882 0.362957 0.194970
H48   H     H_    0.099844 0.345382 0.361724 0.198195
C85   C     C_3   0.269707 0.965354 0.961375 -0.419286
C86   C     C_3   0.254287 0.165320 0.972503 -0.308553
C87   C     C_3   0.200609 0.174333 0.982665 -0.720139
H49   H     H_    0.174338 0.115635 0.942984 0.266180
H50   H     H_    0.197204 0.096585 0.024392 0.293139
H51   H     H_    0.190379 0.320868 0.989106 0.237708
H52   H     H_    0.279338 0.223877 0.013295 0.206744
H53   H     H_    0.257642 0.252672 0.932591 0.206216
H54   H     H_    0.246912 0.914970 0.917888 0.174525
H55   H     H_    0.261132 0.872351 0.997606 0.224371
C88   C     C_3   0.723465 0.192157 0.039632 -0.396162
C89   C     C_3   0.721961 0.406362 0.037657 -0.250936
C90   C     C_3   0.752646 0.485793 0.993462 -0.844268
H56   H     H_    0.791724 0.434870 0.004468 0.284729
H57   H     H_    0.735775 0.444550 0.946149 0.257705
H58   H     H_    0.752989 0.639678 0.996381 0.250144
H59   H     H_    0.682974 0.458560 0.023556 0.205515
H60   H     H_    0.736595 0.461967 0.083920 0.199137
H61   H     H_    0.750649 0.145436 0.080350 0.166935
H62   H     H_    0.737578 0.134579 0.000076 0.220987
C91   C     C_3   0.230309 0.464431 0.538624 -0.420050
C92   C     C_3   0.245865 0.664180 0.527449 -0.308589
C93   C     C_3   0.299604 0.672633 0.517475 -0.719723
H63   H     H_    0.325767 0.614031 0.557269 0.265768
H64   H     H_    0.303073 0.594507 0.475840 0.293408
H65   H     H_    0.309931 0.819020 0.510972 0.237943
H66   H     H_    0.220923 0.722667 0.486560 0.206868
H67   H     H_    0.242465 0.751836 0.567280 0.206238
H68   H     H_    0.253064 0.414029 0.582131 0.174528
H69   H     H_    0.238836 0.371179 0.502426 0.224295
C94   C     C_3   0.776530 0.692161 0.460364 -0.396147
C95   C     C_3   0.778022 0.906366 0.462360 -0.250918
C96   C     C_3   0.747339 0.985731 0.506572 -0.844259
H70   H     H_    0.708260 0.934816 0.495558 0.284741
H71   H     H_    0.764212 0.944425 0.553877 0.257701
H72   H     H_    0.746998 0.139620 0.503680 0.250136
H73   H     H_    0.817007 0.958596 0.476459 0.205505
H74   H     H_    0.763377 0.961997 0.416104 0.199108
H75   H     H_    0.749351 0.645450 0.419639 0.166926
H76   H     H_    0.762415 0.634535 0.499911 0.220961
N9    N     N_R   0.606964 0.719905 0.460097 0.243332
O21   O     O_R   0.647697 0.621883 0.474449 -0.425005
O22   O     O_R   0.566569 0.658185 0.476073 -0.310835
N10   N     N_R   0.378441 0.225766 0.518673 0.232920
O23   O     O_R   0.415053 0.335190 0.512254 -0.326534
O24   O     O_R   0.334435 0.251054 0.484807 -0.438636
N11   N     N_R   0.893015 0.219791 0.039899 0.243312
O25   O     O_R   0.852273 0.121820 0.025536 -0.425027
O26   O     O_R   0.933410 0.157999 0.023940 -0.310819
N12   N     N_R   0.121348 0.726542 0.981074 0.233184
O27   O     O_R   0.084559 0.834824 0.987676 -0.325968
O28   O     O_R   0.165420 0.753614 0.014557 -0.438989
N13   N     N_R   0.533386 0.327176 0.375725 0.247630
O29   O     O_R   0.525743 0.433866 0.327933 -0.411987
O30   O     O_R   0.509026 0.362501 0.418895 -0.308494
N14   N     N_R   0.471142 0.695693 0.631077 0.237948
O31   O     O_R   0.487266 0.623468 0.585276 -0.314335
O32   O     O_R   0.487446 0.628568 0.685227 -0.419986
N15   N     N_R   0.966618 0.827051 0.124259 0.247626
O33   O     O_R   0.974264 0.933776 0.172047 -0.411982
O34   O     O_R   0.990984 0.862314 0.081092 -0.308394
N16   N     N_R   0.028942 0.195180 0.869010 0.238001
O35   O     O_R   0.012780 0.123262 0.914828 -0.314191
O36   O     O_R   0.012700 0.127656 0.814898 -0.419844

loop_
_geom_bond_atom_site_label_1
_geom_bond_atom_site_label_2
_geom_bond_distance
_ccdc_geom_bond_type
C73   H27   1.112325 S    
O17   V3    1.757075 S    
C59   C63   1.413088 A    
O1    C5    1.327463 A    
C84   H42   1.110821 S    
N4    C71   1.359070 A    
C58   N14   1.440049 S    
O19   V1    1.757070 S    
C9    C21   1.406690 A    
O3    C7    1.327462 A    
C81   H35   1.110858 S    
C10   C18   1.406019 A    
C49   N9    1.446133 S    
O1    V3    1.966999 S    
C91   H69   1.112206 S    
C44   C82   1.535034 S    
C11   C23   1.406700 A    
N14   O32   1.301504 A    
C79   C80   1.541201 S    
C33   C34   1.426357 A    
C76   C77   1.541176 S    
C87   H50   1.109453 S    
C5    C12   1.483647 S    
C39   H11   1.066884 S    
N9    O21   1.301762 A    
N11   O25   1.301766 A    
O7    C3    1.340632 A    
C6    C11   1.486788 S    
C78   H29   1.110803 S    
C35   C40   1.408392 A    
C48   C68   1.400754 A    
C36   C39   1.409331 A    
C46   C66   1.400778 A    
C57   N13   1.445854 S    
O2    V4    1.967004 S    
C83   C84   1.526725 S    
C81   H36   1.110784 S    
C14   C18   1.400607 A    
O16   V4    1.967798 S    
O4    C8    1.329835 A    
C55   C59   1.427700 A    
C94   H75   1.109538 S    
C54   C58   1.422650 A    
C85   H54   1.109656 S    
C52   C56   1.417324 A    
C25   C33   1.439228 A    
C19   C94   1.513747 S    
N6    C70   1.359704 A    
C92   H66   1.111911 S    
O3    V1    1.967036 S    
N5    C69   1.360083 A    
N14   O31   1.301215 A    
C93   H65   1.108574 S    
C77   H32   1.111998 S    
C28   C36   1.439626 A    
C80   H39   1.111835 S    
N2    C69   1.359070 A    
C1    O15   1.336046 A    
C60   C64   1.411337 A    
C15   C31   1.411813 A    
N1    C70   1.358731 A    
N15   O33   1.301822 A    
C37   H9    1.066907 S    
N10   O23   1.301202 A    
C16   C32   1.414421 A    
C43   C79   1.534954 S    
C16   C20   1.400613 A    
C95   H73   1.112922 S    
C55   C72   1.486923 S    
C52   N12   1.434941 S    
C10   C22   1.404502 A    
C15   H7    1.081051 S    
C11   C19   1.407438 A    
N13   O30   1.300607 A    
C27   C31   1.422292 A    
C18   C85   1.515309 S    
C20   C91   1.515322 S    
C13   C29   1.411814 A    
O11   C7    1.330300 A    
C7    C10   1.483683 S    
C34   C37   1.409320 A    
C76   H33   1.112043 S    
C17   C88   1.513733 S    
O15   V3    1.967802 S    
C35   C36   1.426356 A    
O12   C8    1.329683 A    
C86   H53   1.112005 S    
C3    C66   1.487177 S    
C92   H67   1.112005 S    
C40   H12   1.068057 S    
O10   V2    1.982160 S    
C82   H47   1.112043 S    
C4    C65   1.493977 S    
C50   C54   1.417239 A    
C87   H51   1.108597 S    
O5    V1    1.978749 S    
N9    O22   1.300246 A    
C61   H17   1.082940 S    
C89   H59   1.112917 S    
C78   H30   1.110898 S    
C59   N15   1.445850 S    
O7    V3    1.978801 S    
C38   C42   1.404721 A    
C26   C34   1.439608 A    
C33   C38   1.408386 A    
C81   H37   1.110884 S    
C53   C70   1.486958 S    
C51   N11   1.446127 S    
C2    O16   1.336258 A    
C87   H49   1.110776 S    
C64   C68   1.402217 A    
O18   V4    1.757074 S    
C77   C78   1.526722 S    
C94   C95   1.544376 S    
C23   C27   1.430481 A    
C94   H76   1.112974 S    
C90   H57   1.110792 S    
C85   H55   1.112192 S    
C32   C44   1.421381 A    
C51   C55   1.423419 A    
C49   C53   1.423438 A    
N4    N8    1.334675 A    
C80   H38   1.112063 S    
O8    V4    1.978802 S    
C96   H72   1.110654 S    
C89   H60   1.110539 S    
C75   H22   1.110784 S    
C39   C43   1.403521 A    
O5    C1    1.340638 A    
C77   H31   1.111984 S    
C53   C57   1.427708 A    
C31   C43   1.419826 A    
C88   C89   1.544373 S    
C14   C30   1.414370 A    
C21   C25   1.430477 A    
O8    C4    1.343531 A    
C90   H58   1.110652 S    
C57   C61   1.413089 A    
C4    O14   1.336269 A    
O9    C5    1.330279 A    
C2    C67   1.493962 S    
C26   C30   1.423571 A    
C60   N16   1.440137 S    
N2    N6    1.334664 A    
C86   H52   1.111901 S    
N1    N5    1.334504 A    
C79   H41   1.112324 S    
N10   O24   1.300694 A    
C89   C90   1.526541 S    
N11   O26   1.300242 A    
C45   C65   1.401161 A    
C83   H45   1.111982 S    
N16   O35   1.301218 A    
C84   H44   1.110900 S    
N3    N7    1.334508 A    
C73   C74   1.541191 S    
C47   C67   1.401159 A    
C12   C20   1.406013 A    
C27   C35   1.439253 A    
O9    V1    1.982159 S    
C24   H3    1.076386 S    
C95   H74   1.110550 S    
C75   H21   1.110859 S    
C40   C44   1.404740 A    
C64   H20   1.083279 S    
C29   C41   1.419841 A    
C88   H61   1.109533 S    
C80   C81   1.526737 S    
C14   H6    1.080810 S    
C73   H26   1.111935 S    
C62   H18   1.083294 S    
C13   H5    1.081047 S    
C76   H34   1.112172 S    
N3    C72   1.358724 A    
C56   C71   1.489351 S    
O6    V2    1.978749 S    
C21   H2    1.077405 S    
N12   O27   1.301106 A    
C38   H10   1.068058 S    
C48   H16   1.082780 S    
C91   H68   1.109634 S    
C95   C96   1.526573 S    
C3    O13   1.336054 A    
C47   H15   1.081151 S    
O6    C2    1.343538 A    
C15   C19   1.399239 A    
N15   O34   1.300595 A    
O11   V3    1.982101 S    
C30   C42   1.421374 A    
C63   C67   1.401050 A    
N7    C71   1.360079 A    
C82   H48   1.112172 S    
O12   V4    1.982098 S    
C47   C51   1.406454 A    
C78   H28   1.110823 S    
C22   C26   1.429717 A    
N16   O36   1.301533 A    
C8    C9    1.486797 S    
C46   C50   1.404175 A    
C9    C17   1.407432 A    
O10   C6    1.329676 A    
C96   H71   1.110801 S    
N13   O29   1.301802 A    
C75   H23   1.110880 S    
C79   H40   1.111934 S    
C93   H63   1.110810 S    
C58   C62   1.411340 A    
O13   V1    1.967769 S    
C46   H14   1.082744 S    
C91   C92   1.534677 S    
C86   C87   1.524575 S    
C28   C32   1.423591 A    
C74   H24   1.112060 S    
C1    C68   1.487219 S    
C74   C75   1.526733 S    
C25   C29   1.422290 A    
C56   C60   1.422622 A    
O20   V2    1.757069 S    
O2    C6    1.329838 A    
C12   C24   1.404465 A    
N12   O28   1.300550 A    
C45   C49   1.406481 A    
C13   C17   1.399247 A    
C96   H70   1.107461 S    
O4    V2    1.967032 S    
C23   H4    1.077400 S    
C93   H64   1.109439 S    
C62   C66   1.402157 A    
C74   H25   1.111839 S    
O14   V2    1.967774 S    
C83   H46   1.111998 S    
C42   C76   1.535037 S    
C54   C69   1.489406 S    
C37   C41   1.403532 A    
C85   C86   1.534748 S    
C24   C28   1.429703 A    
C84   H43   1.110804 S    
C90   H56   1.107461 S    
C16   H8    1.080811 S    
C50   N10   1.434661 S    
C82   C83   1.541175 S    
C22   H1    1.076411 S    
C63   H19   1.082943 S    
C48   C52   1.404284 A    
C92   C93   1.524657 S    
C61   C65   1.401056 A    
C45   H13   1.081148 S    
N8    C72   1.359714 A    
C41   C73   1.534945 S    
C88   H62   1.112961 S    
