data_str_m2_o10_o16_f0_pcu.sym.164
_audit_creation_date              2013-03-05T15:40:28-0500
_audit_creation_method            fapswitch 2.2
_symmetry_space_group_name_H-M    P1
_symmetry_Int_Tables_number       1
_space_group_crystal_system       triclinic
_cell_length_a                    7.484174
_cell_length_b                    8.72654
_cell_length_c                    13.423123
_cell_angle_alpha                 94.730824
_cell_angle_beta                  78.555655
_cell_angle_gamma                 103.321918
_cell_volume                      835.503890304

loop_
_atom_site_label
_atom_site_type_symbol
_atom_site_description
_atom_site_fract_x
_atom_site_fract_y
_atom_site_fract_z
_atom_type_partial_charge
O1    O     O_R   0.383920 0.714220 0.492660 -0.614646
O2    O     O_R   0.685730 0.742660 0.511730 -0.594281
C1    C     C_R   0.542983 0.799801 0.508065 0.740378
O3    O     O_R   0.275440 0.478800 0.636790 -0.598026
O4    O     O_R   0.577250 0.507240 0.655860 -0.562760
C2    C     C_R   0.400597 0.467419 0.691256 0.756901
Cu1   Cu    Cu3+1 0.321300 0.483160 0.488710 1.047532
Cu2   Cu    Cu3+1 0.678700 0.516840 0.511290 1.058265
O5    O     O_R   0.314270 0.257340 0.488270 -0.580965
O6    O     O_R   0.616080 0.285780 0.507340 -0.480142
O7    O     O_R   0.422750 0.492760 0.344140 -0.556695
O8    O     O_R   0.724560 0.521200 0.363210 -0.544745
C3    C     C_R   0.454581 0.199979 0.498043 0.883352
C4    C     C_R   0.599198 0.511400 0.306580 0.800750
C5    C     C_R   0.882259 0.601480 0.045890 -0.178331
H1    H     H_    0.939862 0.644514 0.196626 0.191097
H2    H     H_    0.950337 0.559261 0.846576 0.165558
H3    H     H_    0.025115 0.653009 0.011491 0.151981
C6    C     C_R   0.653851 0.521348 0.196372 -0.048994
C7    C     C_R   0.160551 0.348201 0.836699 -0.209145
C8    C     C_R   0.103491 0.320706 0.939999 -0.138201
C9    C     C_R   0.230833 0.363696 0.005793 -0.153638
C10   C     C_R   0.423618 0.419298 0.967460 0.033989
C11   C     C_R   0.483437 0.423135 0.860539 -0.024093
C12   C     C_R   0.560296 0.471945 0.030586 0.055483
C13   C     C_R   0.748188 0.537194 0.985543 0.073810
C14   C     C_R   0.804343 0.523428 0.880954 -0.257919
C15   C     C_R   0.678224 0.441924 0.822186 0.389082
C16   C     C_R   0.517683 0.462446 0.136474 -0.210865
C17   C     C_R   0.835063 0.593955 0.151036 -0.147573
C18   C     C_R   0.347905 0.411239 0.796920 -0.121103
H4    H     H_    0.380384 0.405690 0.174044 0.186921
H5    H     H_    0.057588 0.322539 0.787944 0.206659
H6    H     H_    0.173695 0.351815 0.085689 0.169565
H7    H     H_    0.957404 0.273900 0.970202 0.164752
C19   C     C_2   0.563188 0.968043 0.521626 0.255423
C20   C     C_2   0.433610 0.032223 0.495344 -0.386132
H8    H     H_    0.312375 0.960651 0.467908 0.147772
N1    N     N_2   0.947230 0.542220 0.528320 -0.174653
H9    H     H_    0.001586 0.601325 0.588944 0.203263
N2    N     N_2   0.052770 0.457780 0.471680 0.048674
N3    N     N_R   0.997507 0.391064 0.382420 0.291332
O9    O     O_R   0.933123 0.239642 0.376156 -0.329437
O10   O     O_R   0.069107 0.464733 0.298533 -0.409081
O11   O     O_3   0.749476 0.361501 0.736166 -0.705503
H10   H     H_    0.647718 0.273982 0.719536 0.348212
O12   O     O_3   0.711035 0.059933 0.562571 -0.678138
H11   H     H_    0.782061 0.991939 0.586317 0.334316

loop_
_geom_bond_atom_site_label_1
_geom_bond_atom_site_label_2
_geom_bond_distance
_ccdc_geom_bond_type
C5    H3    1.084106 S    
C10   C11   1.416834 A    
C20   H8    1.087420 S    
C8    H7    1.082688 S    
Cu2   N1    2.027101 S    
O4    Cu2   1.939630 S    
N2    N3    1.384264 S    
C3    C20   1.434109 S    
O12   H11   0.989956 S    
Cu2   O8    1.950875 S    
C10   C12   1.427791 A    
O2    C1    1.289504 A    
C11   C18   1.431620 A    
Cu1   Cu2   2.697734 S    
N1    N2    1.297084 D    
O1    Cu1   1.960834 S    
C8    C9    1.394134 A    
Cu1   O7    1.939630 S    
C13   C14   1.386850 A    
N3    O10   1.299841 A    
C1    C19   1.440849 S    
C5    C17   1.388480 A    
O3    Cu1   1.950875 S    
C7    H5    1.081057 S    
Cu2   O6    1.960834 S    
C19   C20   1.340631 D    
O8    C4    1.304124 A    
C2    C18   1.487003 S    
C16   H4    1.075432 S    
Cu1   N2    2.027100 S    
C12   C16   1.398635 A    
O4    C2    1.288675 A    
C9    H6    1.076890 S    
O7    C4    1.294166 A    
C15   O11   1.380075 S    
N3    O9    1.299861 A    
H1    C17   1.082028 S    
H2    C14   1.082066 S    
N1    H9    1.029163 S    
C7    C8    1.391152 A    
C19   O12   1.388950 S    
O3    C2    1.322268 A    
C14   C15   1.382980 A    
Cu1   O5    1.958723 S    
O5    C3    1.295476 A    
C9    C10   1.416303 A    
C5    C13   1.402101 A    
C12   C13   1.420428 A    
O11   H10   0.992178 S    
C6    C17   1.396853 A    
C4    C6    1.458756 S    
O6    C3    1.290149 A    
O2    Cu2   1.958723 S    
C11   C15   1.422363 A    
O1    C1    1.296223 A    
C7    C18   1.396331 A    
C6    C16   1.401725 A    
