data_str_m9_o18_o19_f0_sra.sym.2
_audit_creation_date              2013-03-05T15:51:58-0500
_audit_creation_method            fapswitch 2.2
_symmetry_space_group_name_H-M    P1
_symmetry_Int_Tables_number       1
_space_group_crystal_system       triclinic
_cell_length_a                    23.278351
_cell_length_b                    7.2987
_cell_length_c                    15.093477
_cell_angle_alpha                 90.011415
_cell_angle_beta                  108.314947
_cell_angle_gamma                 89.989871
_cell_volume                      2434.50352212

loop_
_atom_site_label
_atom_site_type_symbol
_atom_site_description
_atom_site_fract_x
_atom_site_fract_y
_atom_site_fract_z
_atom_type_partial_charge
O1    O     O_R   0.711000 0.648610 0.341170 -0.589653
O2    O     O_R   0.289000 0.351390 0.658830 -0.584937
O3    O     O_R   0.789000 0.148610 0.158830 -0.597471
O4    O     O_R   0.211000 0.851390 0.841170 -0.573323
O5    O     O_R   0.829650 0.322030 0.336650 -0.583954
O6    O     O_R   0.170350 0.677970 0.663350 -0.587398
O7    O     O_R   0.670350 0.822030 0.163350 -0.577457
O8    O     O_R   0.329650 0.177970 0.836650 -0.591477
C1    C     C_R   0.854357 0.485767 0.356507 1.032416
C2    C     C_R   0.145643 0.514280 0.643489 1.030700
C3    C     C_R   0.645690 0.985788 0.143321 1.027898
C4    C     C_R   0.354312 0.014242 0.856676 1.029143
O9    O     O_R   0.713950 0.319280 0.352070 -0.584508
O10   O     O_R   0.286050 0.680720 0.647930 -0.588300
O11   O     O_R   0.786050 0.819280 0.147930 -0.571566
O12   O     O_R   0.213950 0.180720 0.852070 -0.595854
O13   O     O_R   0.672470 0.142870 0.174360 -0.592461
O14   O     O_R   0.327530 0.857130 0.825640 -0.577898
O15   O     O_R   0.827530 0.642870 0.325640 -0.586831
O16   O     O_R   0.172470 0.357130 0.674360 -0.584641
C5    C     C_R   0.701585 0.487488 0.375922 1.083029
C6    C     C_R   0.298137 0.512384 0.623750 1.083612
C7    C     C_R   0.798243 0.987520 0.123953 1.087268
C8    C     C_R   0.201833 0.012506 0.876144 1.085863
O17   O     O_3   0.736530 0.478650 0.191680 -0.281583
O18   O     O_3   0.263470 0.521350 0.808320 -0.279691
O19   O     O_3   0.763470 0.978650 0.308320 -0.284932
O20   O     O_3   0.236530 0.021350 0.691680 -0.283643
V1    V     V_3+5 0.752500 0.206170 0.260820 1.254692
V2    V     V_3+5 0.247500 0.793830 0.739180 1.265953
V3    V     V_3+5 0.747500 0.706170 0.239180 1.267148
V4    V     V_3+5 0.252500 0.293830 0.760820 1.256905
C9    C     C_R   0.827796 0.994835 0.051208 -0.514343
C10   C     C_R   0.172390 0.002868 0.948976 -0.512327
C11   C     C_R   0.672318 0.497739 0.449042 -0.500545
C12   C     C_R   0.327356 0.504857 0.550491 -0.502075
C13   C     C_R   0.822591 0.986475 0.887885 0.407575
C14   C     C_R   0.177228 0.953162 0.110407 0.406093
C15   C     C_R   0.676602 0.589417 0.606169 0.402710
C16   C     C_R   0.321447 0.543432 0.387491 0.411432
C17   C     C_R   0.792759 0.988006 0.956052 0.377378
C18   C     C_R   0.207147 0.970245 0.042752 0.376961
C19   C     C_R   0.706768 0.544057 0.541271 0.359950
C20   C     C_R   0.292129 0.518185 0.455571 0.358947
C21   C     C_R   0.891816 0.000663 0.077813 0.409113
C22   C     C_R   0.108555 0.017609 0.923217 0.409752
C23   C     C_R   0.608582 0.479940 0.423799 0.407595
C24   C     C_R   0.391376 0.499793 0.576704 0.408185
C25   C     C_R   0.921353 0.964731 0.010342 -0.043058
C26   C     C_R   0.078347 0.965703 0.987772 -0.043187
C27   C     C_R   0.577991 0.535906 0.487169 -0.047239
C28   C     C_R   0.420807 0.535794 0.509186 -0.048685
C29   C     C_R   0.885790 0.962453 0.914760 -0.082393
C30   C     C_R   0.113698 0.938441 0.082338 -0.083244
C31   C     C_R   0.612997 0.579995 0.580013 -0.078427
C32   C     C_R   0.385132 0.546341 0.413912 -0.077043
C33   C     C_R   0.985657 0.942462 0.034033 0.119580
C34   C     C_R   0.013760 0.951101 0.962873 0.120705
C35   C     C_R   0.513328 0.545577 0.462019 0.127500
C36   C     C_R   0.485097 0.556933 0.532904 0.127327
C37   C     C_R   0.976455 0.932698 0.869629 -0.154201
C38   C     C_R   0.022502 0.900098 0.125257 -0.152897
C39   C     C_R   0.521479 0.605700 0.623432 -0.159598
C40   C     C_R   0.476165 0.561339 0.368576 -0.162439
C41   C     C_R   0.913974 0.939178 0.846173 -0.077682
C42   C     C_R   0.085028 0.899161 0.148877 -0.077516
C43   C     C_R   0.583805 0.618849 0.646040 -0.077080
C44   C     C_R   0.413651 0.563736 0.345307 -0.078274
H1    H     H_    0.887706 0.926703 0.773110 0.210063
H2    H     H_    0.110958 0.867898 0.220481 0.212880
H3    H     H_    0.609121 0.657778 0.716765 0.217206
H4    H     H_    0.387701 0.576905 0.272207 0.215673
H5    H     H_    0.994431 0.903543 0.813433 0.197363
H6    H     H_    0.003993 0.857494 0.179088 0.198319
H7    H     H_    0.502456 0.647722 0.676816 0.195417
H8    H     H_    0.494376 0.585620 0.312157 0.195656
C45   C     C_1   0.416782 0.007035 0.918704 -0.218843
C46   C     C_1   0.583219 0.993021 0.081300 -0.218983
C47   C     C_1   0.083183 0.507085 0.581422 -0.218321
C48   C     C_1   0.916819 0.493006 0.418565 -0.218024
C49   C     C_1   0.469146 0.002441 0.969961 0.085304
C50   C     C_1   0.530854 0.997614 0.030045 0.085601
C51   C     C_1   0.030840 0.502479 0.530088 0.087384
C52   C     C_1   0.969163 0.497623 0.469895 0.087305
O21   O     O_3   0.075290 0.091644 0.838047 -0.766228
H9    H     H_    0.101817 0.152970 0.807411 0.319075
O22   O     O_3   0.926069 0.051317 0.167266 -0.766530
H10   H     H_    0.900483 0.104908 0.201836 0.318505
O23   O     O_3   0.425886 0.447125 0.665711 -0.764129
H11   H     H_    0.400404 0.393730 0.700488 0.318395
O24   O     O_3   0.575781 0.397100 0.340723 -0.765107
H12   H     H_    0.602745 0.334835 0.311187 0.320030
S1    S     S_3+6 0.287579 0.950760 0.074422 -0.021861
O25   O     O_2   0.303678 0.811407 0.012853 -0.287694
O26   O     O_2   0.312969 0.133585 0.059915 -0.300814
O27   O     O_3   0.319611 0.885037 0.185892 -0.494937
H13   H     H_    0.363645 0.902332 0.198272 0.365196
S2    S     S_3+6 0.712070 0.981103 0.923468 -0.019277
O28   O     O_2   0.693229 0.825278 0.973212 -0.284345
O29   O     O_2   0.690314 0.157962 0.952841 -0.303277
O30   O     O_3   0.678828 0.951390 0.808152 -0.491968
H14   H     H_    0.635587 0.981532 0.796948 0.365317
S3    S     S_3+6 0.211891 0.490072 0.420991 -0.030984
O31   O     O_2   0.194512 0.360388 0.485509 -0.298132
O32   O     O_2   0.183328 0.673642 0.424129 -0.302426
O33   O     O_3   0.185267 0.404409 0.312143 -0.498674
H15   H     H_    0.140641 0.408697 0.296349 0.373673
S4    S     S_3+6 0.787463 0.532836 0.577398 -0.029750
O34   O     O_2   0.808012 0.383937 0.525572 -0.297328
O35   O     O_2   0.811468 0.713777 0.557037 -0.302369
O36   O     O_3   0.815947 0.487737 0.692318 -0.496158
H16   H     H_    0.860159 0.506795 0.707860 0.370147
O37   O     O_3   0.791340 0.010950 0.794675 -0.687508
H17   H     H_    0.763636 0.116081 0.790310 0.382537
O38   O     O_3   0.208759 0.952855 0.204432 -0.690365
H18   H     H_    0.238885 0.053176 0.215631 0.385402
O39   O     O_3   0.708011 0.646742 0.695386 -0.647824
H19   H     H_    0.741645 0.725997 0.691613 0.401332
O40   O     O_3   0.289085 0.568069 0.294496 -0.654301
H20   H     H_    0.253224 0.644026 0.290942 0.402777

loop_
_geom_bond_atom_site_label_1
_geom_bond_atom_site_label_2
_geom_bond_distance
_ccdc_geom_bond_type
O17   V3    1.794831 S    
O22   H10   0.987496 S    
O1    C5    1.333670 A    
S1    O25   1.502294 D    
O19   V1    1.795012 S    
C18   S1    1.786543 S    
C9    C21   1.417007 A    
O3    C7    1.332907 A    
O36   H16   0.990912 S    
C10   C18   1.412458 A    
C48   C52   1.221790 T    
O15   V3    1.964458 S    
C49   C50   1.438178 S    
C25   C33   1.434748 A    
C33   C38   1.408885 A    
O21   H9    0.987481 S    
C2    C47   1.462305 S    
O7    C3    1.319206 A    
C35   C40   1.408540 A    
C26   C30   1.419820 A    
C36   C39   1.408399 A    
C40   C44   1.385686 A    
O9    V1    2.039553 S    
C21   O22   1.385171 S    
C14   C18   1.410818 A    
O4    C8    1.333220 A    
C25   C29   1.419950 A    
C13   O37   1.377407 S    
O33   H15   0.990617 S    
O38   H18   0.991029 S    
O1    V3    2.022503 S    
O13   V1    1.964489 S    
S4    O34   1.502131 D    
O2    V4    2.022506 S    
O3    V1    2.022316 S    
C28   C36   1.433539 A    
C1    O15   1.318692 A    
C15   C31   1.409055 A    
C2    O16   1.319006 A    
C16   C32   1.409138 A    
O2    C6    1.333204 A    
C10   C22   1.416962 A    
C21   C25   1.420734 A    
C11   C19   1.411914 A    
C16   C20   1.412962 A    
C43   H3    1.082653 S    
C44   H4    1.082883 S    
C22   O21   1.385164 S    
C13   C29   1.408720 A    
C34   C37   1.408791 A    
O11   C7    1.335739 A    
C11   C23   1.417075 A    
C35   C36   1.423116 A    
O12   C8    1.335535 A    
C4    C45   1.462294 S    
O10   V2    2.039556 S    
C20   S3    1.786223 S    
O5    V1    1.989650 S    
C39   C43   1.385457 A    
O7    V3    1.989571 S    
C38   C42   1.385462 A    
O8    V4    1.989575 S    
O30   H14   0.991537 S    
C7    C9    1.468487 S    
O24   H12   0.987381 S    
O18   V4    1.794833 S    
C23   C27   1.420063 A    
C37   H5    1.078328 S    
C32   C44   1.400433 A    
C8    C10   1.468567 S    
C1    C48   1.462311 S    
C26   C34   1.434575 A    
O5    C1    1.319305 A    
C3    C46   1.462289 S    
C46   C50   1.221811 T    
C31   C43   1.400290 A    
C51   C52   1.438139 S    
C14   C30   1.408674 A    
C45   C49   1.221810 T    
O8    C4    1.319015 A    
O27   H13   0.990570 S    
C40   H8    1.078534 S    
O9    C5    1.335861 A    
S3    O32   1.502969 D    
O14   V2    1.964490 S    
O6    V2    1.989648 S    
S1    O27   1.681834 S    
S2    O29   1.503314 D    
C24   O23   1.385557 S    
C12   C20   1.412856 A    
C27   C35   1.433785 A    
C29   C41   1.399191 A    
O37   H17   0.991041 S    
O16   V4    1.964454 S    
C3    O13   1.318731 A    
C23   O24   1.385272 S    
O6    C2    1.319001 A    
C15   C19   1.412194 A    
O40   H20   0.989328 S    
O11   V3    2.039906 S    
C5    C11   1.469794 S    
O12   V4    2.039907 S    
S2    O30   1.681866 S    
C6    C12   1.470016 S    
C22   C26   1.420634 A    
S4    O36   1.683438 S    
C9    C17   1.412183 A    
O10   C6    1.336465 A    
O20   V2    1.795013 S    
C15   O39   1.379881 S    
O39   H19   0.989472 S    
C47   C51   1.221788 T    
C14   O38   1.377724 S    
C33   C34   1.423791 A    
C42   H2    1.083741 S    
C39   H7    1.078652 S    
C41   H1    1.083746 S    
S4    O35   1.503036 D    
C12   C24   1.417126 A    
S3    O33   1.683434 S    
C27   C31   1.419011 A    
C19   S4    1.785741 S    
C13   C17   1.410675 A    
C37   C41   1.385415 A    
C24   C28   1.419815 A    
C16   O40   1.380397 S    
S1    O26   1.503195 D    
S2    O28   1.502345 D    
C4    O14   1.318926 A    
S3    O31   1.501982 D    
C17   S2    1.786575 S    
C38   H6    1.078257 S    
O23   H11   0.987468 S    
C30   C42   1.399169 A    
O4    V2    2.022313 S    
C28   C32   1.418782 A    
