data_str_m9_o4_o16_f0_sra.sym.8
_audit_creation_date              2012-12-11T17:00:25-0500
_audit_creation_method            fapswitch 2.2
_symmetry_space_group_name_H-M    P1
_symmetry_Int_Tables_number       1
_space_group_crystal_system       triclinic
_cell_length_a                    6.966251
_cell_length_b                    13.791891
_cell_length_c                    20.291443
_cell_angle_alpha                 103.35093
_cell_angle_beta                  90.11011
_cell_angle_gamma                 90.309084
_cell_volume                      1896.83030955

loop_
_atom_site_label
_atom_site_type_symbol
_atom_type_description
_atom_site_fract_x
_atom_site_fract_y
_atom_site_fract_z
_atom_type_partial_charge
O1    O     O_R   0.506770 0.599700 0.449550 -0.541542
O2    O     O_R   0.179980 0.595740 0.587960 -0.547988
O3    O     O_R   0.004580 0.400300 0.550450 -0.539435
C1    C     C_R   0.348572 0.618320 0.614852 0.692472
O4    O     O_R   0.177380 0.611700 0.452380 -0.544227
O5    O     O_R   0.001970 0.416370 0.413900 -0.546307
C2    C     C_R   0.346625 0.635592 0.434700 0.694715
O6    O     O_R   0.509390 0.583630 0.586100 -0.539493
O7    O     O_3   0.337530 0.435890 0.487530 -0.372618
V1    V     V_3+5 0.064660 0.511890 0.502310 1.410483
O8    O     O_R   0.671950 0.404260 0.412040 -0.539122
C3    C     C_R   0.840392 0.382985 0.385072 0.703308
O9    O     O_R   0.674540 0.388300 0.547620 -0.541904
C4    C     C_R   0.843580 0.362195 0.564521 0.694432
V2    V     V_3+5 0.564030 0.488110 0.497690 1.422618
O10   O     O_3   0.841030 0.564110 0.512470 -0.374996
C5    C     C_R   0.886386 0.114096 0.610288 -0.163306
H1    H     H_    0.859027 0.164441 0.518387 0.135017
H2    H     H_    0.951462 0.992143 0.692978 0.120056
H3    H     H_    0.905736 0.037211 0.583439 0.123278
C6    C     C_R   0.853729 0.287677 0.606096 -0.062230
C7    C     C_R   0.776693 0.313976 0.927427 0.094130
C8    C     C_R   0.686926 0.369796 0.886896 -0.150335
C9    C     C_R   0.698417 0.341521 0.817246 -0.184067
C10   C     C_R   0.809836 0.259913 0.785850 0.071140
C11   C     C_R   0.863433 0.190332 0.824513 0.045160
C12   C     C_R   0.848490 0.240197 0.715295 0.052683
C13   C     C_R   0.883622 0.140270 0.681216 0.116172
C14   C     C_R   0.918374 0.068213 0.718579 -0.198660
C15   C     C_R   0.918640 0.094198 0.789381 -0.189223
C16   C     C_R   0.863642 0.316406 0.677890 0.014302
C17   C     C_R   0.861762 0.186669 0.573215 -0.186032
C18   C     C_R   0.849786 0.217630 0.896706 -0.104714
H4    H     H_    0.613621 0.381988 0.788061 0.116063
H5    H     H_    0.608911 0.436971 0.909533 0.112984
H6    H     H_    0.954755 0.037373 0.816137 0.115974
C19   C     C_R   0.697369 0.256354 0.204397 0.138195
C20   C     C_R   0.862641 0.198887 0.180397 -0.116048
C21   C     C_R   0.022093 0.210327 0.224486 -0.116756
H7    H     H_    0.156720 0.178406 0.207215 0.148478
C22   C     C_R   0.013552 0.264958 0.291704 -0.154573
H8    H     H_    0.140056 0.269373 0.323408 0.141140
C23   C     C_R   0.846942 0.316405 0.316686 -0.084167
C24   C     C_R   0.694644 0.314995 0.271671 0.145806
C25   C     C_3   0.625853 0.406626 0.253408 -0.483945
C26   C     C_3   0.628420 0.347495 0.181063 -0.145549
H9    H     H_    0.733570 0.468208 0.263545 0.159260
H10   H     H_    0.481962 0.428453 0.275438 0.167975
H11   H     H_    0.738234 0.374318 0.150083 0.151762
C27   C     C_R   0.504035 0.683706 0.728842 0.102403
C28   C     C_R   0.353091 0.685588 0.683589 -0.107898
C29   C     C_R   0.196551 0.748290 0.707785 -0.193191
H12   H     H_    0.076483 0.752251 0.674752 0.135645
C30   C     C_R   0.197509 0.810399 0.773615 -0.179532
H13   H     H_    0.079338 0.860826 0.789068 0.127321
C31   C     C_R   0.355573 0.812340 0.817204 -0.103398
C32   C     C_R   0.505477 0.745729 0.793869 0.100732
C33   C     C_3   0.714500 0.767182 0.790234 -0.400291
C34   C     C_3   0.712551 0.700377 0.719468 -0.413154
H14   H     H_    0.799704 0.736356 0.826972 0.172972
H15   H     H_    0.743173 0.846801 0.790937 0.169060
H16   H     H_    0.797522 0.631489 0.715293 0.167657
H17   H     H_    0.739216 0.741177 0.679058 0.169730
C35   C     C_R   0.440840 0.881803 0.397072 -0.112354
H18   H     H_    0.424663 0.826903 0.487135 0.102293
H19   H     H_    0.475348 0.955838 0.426355 0.134128
C36   C     C_R   0.362408 0.712720 0.397601 -0.022609
C37   C     C_R   0.365614 0.690481 0.073992 -0.163883
C38   C     C_R   0.385414 0.615248 0.108356 -0.139014
C39   C     C_R   0.393842 0.637335 0.178747 -0.154095
C40   C     C_R   0.386157 0.736607 0.217070 0.082345
C41   C     C_R   0.379497 0.814866 0.182047 -0.003314
C42   C     C_R   0.388982 0.760008 0.289386 0.066897
C43   C     C_R   0.423494 0.859753 0.325845 0.047607
C44   C     C_R   0.433660 0.936114 0.291049 -0.071157
C45   C     C_R   0.393601 0.914121 0.221255 -0.083890
C46   C     C_R   0.354051 0.687531 0.326979 -0.206030
C47   C     C_R   0.410659 0.808669 0.432434 -0.174084
C48   C     C_R   0.362927 0.790245 0.109138 -0.064178
H20   H     H_    0.316209 0.611545 0.302942 0.088155
H21   H     H_    0.359425 0.670797 0.019113 0.094866
H22   H     H_    0.414941 0.575875 0.202297 0.107737
H23   H     H_    0.395034 0.539074 0.079813 0.115802
O11   O     O_R   0.203450 0.916320 0.913910 -0.543976
O12   O     O_R   0.535520 0.888300 0.047620 -0.535679
O13   O     O_R   0.710860 0.083650 0.086100 -0.531755
C49   C     C_R   0.367696 0.864444 0.066645 0.721476
O14   O     O_R   0.532860 0.904250 0.912040 -0.543593
O15   O     O_R   0.708190 0.099710 0.949550 -0.544554
C50   C     C_R   0.364294 0.882861 0.884708 0.688264
O16   O     O_R   0.206120 0.900260 0.050460 -0.515075
O17   O     O_3   0.375280 0.064080 0.012470 -0.392333
V3    V     V_3+5 0.648180 0.988110 0.997690 1.442910
O18   O     O_R   0.038220 0.111740 0.952370 -0.549836
C51   C     C_R   0.868177 0.140240 0.936979 0.653167
O19   O     O_R   0.040880 0.095790 0.087940 -0.533992
C52   C     C_R   0.871207 0.124127 0.113052 0.757268
V4    V     V_3+5 0.148800 0.011950 0.002300 1.429208
O20   O     O_3   0.871820 0.935920 0.987530 -0.365978
C53   C     C_3   0.426613 0.342970 0.150067 -0.392379
C54   C     C_3   0.411223 0.265839 0.083427 -0.274133
C55   C     C_3   0.290042 0.299641 0.030780 -0.747151
H24   H     H_    0.331303 0.374741 0.025201 0.196512
H25   H     H_    0.305227 0.246776 0.980819 0.241705
H26   H     H_    0.139960 0.300865 0.047217 0.221351
H27   H     H_    0.553626 0.241666 0.061855 0.196595
H28   H     H_    0.335776 0.202486 0.095447 0.214237
H29   H     H_    0.316911 0.326748 0.185832 0.168560
H30   H     H_    0.393588 0.417629 0.142129 0.193094
C56   C     C_2   0.464946 0.041378 0.328472 0.769261
O21   O     O_2   0.614900 0.084061 0.321102 -0.534234
O22   O     O_R   0.322111 0.091032 0.371435 -0.665933
H31   H     H_    0.359716 0.162193 0.393714 0.285425
C57   C     C_2   0.337724 0.996845 0.193365 0.734240
O23   O     O_2   0.169870 0.004407 0.178469 -0.550981
O24   O     O_R   0.475202 0.066891 0.186517 -0.643242
H32   H     H_    0.422607 0.118624 0.164133 0.270483
C58   C     C_3   0.924492 0.423403 0.712340 -0.364040
C59   C     C_3   0.118110 0.426358 0.749552 -0.275790
C60   C     C_3   0.153212 0.527834 0.797361 -0.794296
H33   H     H_    0.138471 0.587948 0.769773 0.244556
H34   H     H_    0.047876 0.540355 0.839491 0.229061
H35   H     H_    0.300285 0.530794 0.819000 0.211515
H36   H     H_    0.124454 0.369199 0.780002 0.205487
H37   H     H_    0.235668 0.410659 0.711638 0.188055
H38   H     H_    0.942950 0.470380 0.675341 0.161982
H39   H     H_    0.813403 0.463328 0.746486 0.167236
C61   C     C_3   0.787920 0.361472 0.002266 -0.383786
C62   C     C_3   0.909123 0.457946 0.015264 -0.302565
C63   C     C_3   0.924505 0.507566 0.090484 -0.774168
H40   H     H_    0.779416 0.521618 0.113082 0.235185
H41   H     H_    0.008251 0.460459 0.117580 0.222303
H42   H     H_    0.997869 0.580658 0.096878 0.241744
H43   H     H_    0.054558 0.442423 0.993509 0.199818
H44   H     H_    0.841836 0.512474 0.989803 0.192775
H45   H     H_    0.642596 0.382837 0.021035 0.190360
H46   H     H_    0.841976 0.308789 0.031300 0.131990

loop_
_geom_bond_atom_site_label_1
_geom_bond_atom_site_label_2
_ccdc_geom_bond_type
C54   H28   S    
C54   C55   S    
C49   O16   A    
C22   H8    S    
O2    C1    A    
C36   C46   A    
C41   C45   A    
C61   C62   S    
C48   C49   S    
C57   O23   D    
O17   V4    S    
C21   C22   A    
C25   C26   S    
C29   H12   S    
C6    C16   A    
C26   H11   S    
C14   C15   A    
C37   H21   S    
C4    C6    S    
C13   C14   A    
C3    C23   S    
C61   H45   S    
O5    C3    A    
C20   C21   A    
C46   H20   S    
O18   V4    S    
C33   H14   S    
V2    O10   S    
C5    H3    S    
C31   C32   A    
C55   H26   S    
C42   C43   A    
O13   C52   A    
C58   C59   S    
O17   V3    S    
C62   H44   S    
O8    V2    S    
C60   H34   S    
C37   C38   A    
C34   H16   S    
O19   V4    S    
C45   C57   S    
C8    C9    A    
C39   C40   A    
O1    V2    S    
O7    V1    S    
V3    O20   S    
C60   H35   S    
C1    O6    A    
C33   H15   S    
C31   C50   S    
C53   H30   S    
O9    C4    A    
O15   V3    S    
C22   C23   A    
C55   H24   S    
C36   C47   A    
O11   C50   A    
C20   C52   S    
C18   C51   S    
O22   H31   S    
C29   C30   A    
C25   H9    S    
C6    C17   A    
C30   C31   A    
C53   H29   S    
C43   C44   A    
O12   C49   A    
C12   C16   A    
C28   C29   A    
C9    C10   A    
C21   H7    S    
C40   C42   A    
O14   V3    S    
C1    C28   S    
C10   C11   A    
C59   H36   S    
C9    H4    S    
C56   O21   D    
C35   H19   S    
O15   C51   A    
C63   H41   S    
C44   C45   A    
C16   C58   S    
C19   C20   A    
C38   H23   S    
O13   V3    S    
C11   C18   A    
C7    C61   S    
O12   V3    S    
C59   C60   S    
O19   C52   A    
C27   C28   A    
O18   C51   A    
C55   H25   S    
O3    C4    A    
C61   H46   S    
C59   H37   S    
O14   C50   A    
C11   C15   A    
O6    V2    S    
C8    H5    S    
O9    V2    S    
C23   C24   A    
C10   C12   A    
C63   H42   S    
H1    C17   S    
C58   H39   S    
C27   C34   S    
O2    V1    S    
C60   H33   S    
O4    C2    A    
C62   C63   S    
C25   H10   S    
C54   H27   S    
C7    C18   A    
C26   C53   S    
C30   H13   S    
C44   C56   S    
C42   C46   A    
H18   C47   S    
O1    C2    A    
C5    C13   A    
C35   C47   A    
C24   C25   S    
O5    V1    S    
C57   O24   S    
O8    C3    A    
C41   C48   A    
C34   H17   S    
C15   H6    S    
O11   V4    S    
C19   C24   A    
C63   H40   S    
C33   C34   S    
O4    V1    S    
O3    V1    S    
V1    O10   S    
C27   C32   A    
C32   C33   S    
C37   C48   A    
C53   C54   S    
O24   H32   S    
O16   V4    S    
O7    V2    S    
C38   C39   A    
C39   H22   S    
C56   O22   S    
C2    C36   S    
C62   H43   S    
C40   C41   A    
V4    O20   S    
C12   C13   A    
C5    C17   A    
C35   C43   A    
C7    C8    A    
C58   H38   S    
C19   C26   S    
H2    C14   S    
