data_str_m9_o1_o16_f0_sra.sym.22
_audit_creation_date              2012-12-11T15:47:02-0500
_audit_creation_method            fapswitch 2.2
_symmetry_space_group_name_H-M    P1
_symmetry_Int_Tables_number       1
_space_group_crystal_system       triclinic
_cell_length_a                    20.110237
_cell_length_b                    7.256453
_cell_length_c                    13.577634
_cell_angle_alpha                 90.150735
_cell_angle_beta                  102.98463
_cell_angle_gamma                 89.778166
_cell_volume                      1930.68988801

loop_
_atom_site_label
_atom_site_type_symbol
_atom_type_description
_atom_site_fract_x
_atom_site_fract_y
_atom_site_fract_z
_atom_type_partial_charge
O1    O     O_R   0.449560 0.506810 0.599700 -0.534190
O2    O     O_R   0.550440 0.006810 0.400300 -0.537579
O3    O     O_R   0.587960 0.180060 0.595760 -0.547913
O4    O     O_R   0.412040 0.680060 0.404240 -0.543868
C1    C     C_R   0.615080 0.344090 0.617021 0.684095
C2    C     C_R   0.384868 0.844252 0.383135 0.686305
O5    O     O_R   0.452380 0.177430 0.611700 -0.541281
O6    O     O_R   0.547620 0.677430 0.388300 -0.536447
O7    O     O_R   0.413900 0.001890 0.416350 -0.540326
O8    O     O_R   0.586100 0.501890 0.583650 -0.540663
C3    C     C_R   0.436802 0.346283 0.638078 0.713451
C4    C     C_R   0.563162 0.845008 0.361766 0.712233
O9    O     O_3   0.487530 0.337490 0.435890 -0.378017
O10   O     O_3   0.512470 0.837490 0.564110 -0.381652
V1    V     V_3+5 0.502310 0.064660 0.511890 1.397471
V2    V     V_3+5 0.497690 0.564660 0.488110 1.417414
C5    C     C_R   0.606556 0.780058 0.108576 0.500665
C6    C     C_R   0.394157 0.421850 0.891009 0.480314
H1    H     H_    0.515647 0.759444 0.167278 0.137056
H2    H     H_    0.486004 0.423246 0.833984 0.142315
C7    C     C_R   0.601174 0.847689 0.281863 -0.095121
C8    C     C_R   0.398324 0.358173 0.717092 -0.092666
C9    C     C_R   0.928856 0.875732 0.315323 -0.270389
C10   C     C_R   0.070672 0.350263 0.684636 -0.271597
C11   C     C_R   0.892453 0.872794 0.391769 0.488411
C12   C     C_R   0.106925 0.350728 0.607632 0.488093
C13   C     C_R   0.821263 0.869746 0.366014 -0.202796
C14   C     C_R   0.178031 0.359788 0.633299 -0.199462
C15   C     C_R   0.784708 0.857096 0.263936 0.031997
C16   C     C_R   0.214839 0.366187 0.735296 0.028138
C17   C     C_R   0.822707 0.844999 0.187683 0.002410
C18   C     C_R   0.177253 0.375706 0.812028 -0.000647
C19   C     C_R   0.711880 0.848816 0.235989 -0.018649
C20   C     C_R   0.287673 0.371112 0.762762 -0.015891
C21   C     C_R   0.678430 0.807530 0.133931 -0.065180
C22   C     C_R   0.321697 0.409462 0.864850 -0.069689
C23   C     C_R   0.717464 0.795787 0.059577 0.471848
C24   C     C_R   0.282395 0.435140 0.938093 0.448557
C25   C     C_R   0.788331 0.815330 0.086919 -0.278538
C26   C     C_R   0.211982 0.407698 0.912491 -0.278094
C27   C     C_R   0.671265 0.877672 0.307154 -0.191765
C28   C     C_R   0.327712 0.339201 0.691242 -0.193186
C29   C     C_R   0.569419 0.793746 0.184237 -0.287415
C30   C     C_R   0.431261 0.402589 0.815649 -0.288937
C31   C     C_R   0.894774 0.861496 0.214005 -0.097471
C32   C     C_R   0.105157 0.360947 0.786011 -0.098865
H3    H     H_    0.692682 0.919393 0.383939 0.109057
H4    H     H_    0.305548 0.299735 0.614272 0.107797
H5    H     H_    0.983932 0.887908 0.334828 0.109186
H6    H     H_    0.015418 0.349709 0.665928 0.110886
H7    H     H_    0.796437 0.869438 0.428513 0.127751
H8    H     H_    0.202829 0.369028 0.570901 0.130334
H9    H     H_    0.816402 0.801685 0.027951 0.129077
H10   H     H_    0.184466 0.420459 0.972213 0.133753
C33   C     C_R   0.221266 0.022124 0.211644 -0.143935
C34   C     C_R   0.777535 0.521959 0.790927 -0.110590
H11   H     H_    0.201071 0.153889 0.181288 0.132085
H12   H     H_    0.796885 0.653120 0.823134 0.120601
C35   C     C_R   0.286392 0.017764 0.275466 -0.159349
C36   C     C_R   0.712406 0.517293 0.727034 -0.116384
C37   C     C_R   0.315428 0.850243 0.315843 -0.066175
C38   C     C_R   0.684432 0.350202 0.684569 -0.045564
C39   C     C_R   0.277259 0.687325 0.291430 -0.137109
C40   C     C_R   0.723811 0.188369 0.706431 -0.172337
H13   H     H_    0.297713 0.555589 0.321441 0.127206
H14   H     H_    0.704364 0.057274 0.674225 0.118129
C41   C     C_R   0.212114 0.691644 0.227559 -0.141714
C42   C     C_R   0.789132 0.193216 0.769776 -0.168036
H15   H     H_    0.184528 0.563440 0.210216 0.130239
H16   H     H_    0.817965 0.065996 0.784396 0.125541
C43   C     C_R   0.183265 0.859063 0.186539 -0.062844
C44   C     C_R   0.816688 0.359715 0.813601 -0.045685
O11   O     O_R   0.913920 0.203370 0.916260 -0.538883
O12   O     O_R   0.086080 0.703370 0.083740 -0.539888
O13   O     O_R   0.047620 0.535540 0.888290 -0.540913
O14   O     O_R   0.952380 0.035540 0.111710 -0.538730
C45   C     C_R   0.064372 0.368266 0.862958 0.705995
C46   C     C_R   0.935533 0.868611 0.136987 0.708207
O15   O     O_R   0.912040 0.532780 0.904220 -0.546928
O16   O     O_R   0.087960 0.032780 0.095780 -0.544199
O17   O     O_R   0.949550 0.708160 0.099720 -0.534784
O18   O     O_R   0.050450 0.208160 0.900280 -0.534718
C47   C     C_R   0.885561 0.365078 0.882698 0.676773
C48   C     C_R   0.114431 0.864794 0.117328 0.674106
O19   O     O_3   0.012480 0.375300 0.064060 -0.377217
O20   O     O_3   0.987520 0.875300 0.935940 -0.379324
V3    V     V_3+5 0.997690 0.648180 0.988110 1.410502
V4    V     V_3+5 0.002310 0.148180 0.011890 1.417120
H17   H     H_    0.314158 0.145799 0.292412 0.133514
H18   H     H_    0.683797 0.644657 0.711542 0.117435
O21   O     O_3   0.686861 0.756427 0.959953 -0.525650
C49   C     C_3   0.685824 0.917629 0.901855 -0.207597
H19   H     H_    0.737855 0.951196 0.892688 0.121458
H20   H     H_    0.663638 0.037219 0.935108 0.128237
H21   H     H_    0.653250 0.892822 0.825554 0.154507
O22   O     O_3   0.312345 0.482124 0.036718 -0.535841
C50   C     C_3   0.310649 0.675955 0.045060 -0.149341
H22   H     H_    0.257362 0.726925 0.035552 0.116466
H23   H     H_    0.335562 0.744929 0.989628 0.127081
H24   H     H_    0.339613 0.716020 0.121450 0.161090
O23   O     O_3   0.574370 0.716526 0.013434 -0.519744
C51   C     C_3   0.524973 0.845753 0.965788 -0.155148
H25   H     H_    0.507841 0.806923 0.884999 0.163336
H26   H     H_    0.546374 0.987330 0.968422 0.085842
H27   H     H_    0.479324 0.843844 0.999068 0.130913
O24   O     O_3   0.428109 0.470001 0.988053 -0.533711
C52   C     C_3   0.469368 0.321667 0.033020 -0.144432
H28   H     H_    0.440404 0.189874 0.025877 0.097114
H29   H     H_    0.487400 0.351125 0.114880 0.163829
H30   H     H_    0.515301 0.307518 0.000926 0.129274
O25   O     O_3   0.925170 0.886729 0.492673 -0.570582
C53   C     C_3   0.964284 0.726145 0.522149 -0.247176
H31   H     H_    0.009633 0.721164 0.488157 0.167588
H32   H     H_    0.933144 0.598979 0.502997 0.144175
H33   H     H_    0.983283 0.728941 0.605431 0.167335
O26   O     O_3   0.074678 0.363226 0.506227 -0.569683
C54   C     C_3   0.026712 0.220537 0.478716 -0.222884
H34   H     H_    0.978836 0.252454 0.503173 0.159850
H35   H     H_    0.047771 0.084312 0.508443 0.156916
H36   H     H_    0.013374 0.210590 0.395082 0.164310

loop_
_geom_bond_atom_site_label_1
_geom_bond_atom_site_label_2
_ccdc_geom_bond_type
O15   C47   A    
C39   H13   S    
O23   C51   S    
C9    C31   A    
C33   C35   A    
C13   C15   A    
O25   C53   S    
O1    C3    A    
O16   C48   A    
O2    C4    A    
C2    O7    A    
C53   H32   S    
C50   H22   S    
C8    C28   A    
O5    C3    A    
C40   C42   A    
C2    C37   S    
C21   C23   A    
C10   C12   A    
C54   H35   S    
C9    H5    S    
O24   C52   S    
C15   C19   A    
O26   C54   S    
C51   H27   S    
C36   C38   A    
C35   H17   S    
C37   C39   A    
C5    O23   S    
C38   C40   A    
H2    C30   S    
C7    C29   A    
C8    C30   A    
C13   H7    S    
C34   C44   A    
C20   C28   A    
C52   H28   S    
C31   C46   S    
O12   V3    S    
C16   C18   A    
O14   V4    S    
C20   C22   A    
C42   C44   A    
O5    V1    S    
C45   O18   A    
O6    V2    S    
C52   H29   S    
O15   V3    S    
C53   H31   S    
C50   H23   S    
H1    C29   S    
C10   H6    S    
C23   C25   A    
C39   C41   A    
C35   C37   A    
C16   C20   A    
O4    C2    A    
C54   H36   S    
O12   C48   A    
O21   C49   S    
C23   O21   S    
O20   V3    S    
C4    C7    S    
C49   H21   S    
C34   C36   A    
C41   H15   S    
C40   H14   S    
O4    V2    S    
C5    C29   A    
O11   V4    S    
C6    C30   A    
O6    C4    A    
O22   C50   S    
C49   H20   S    
C27   H3    S    
O1    V2    S    
C28   H4    S    
C51   H26   S    
O2    V1    S    
O13   C45   A    
O17   V3    S    
C7    C27   A    
O13   V3    S    
C26   H10   S    
C33   H11   S    
C52   H30   S    
C50   H24   S    
O3    V1    S    
C43   C48   S    
O19   V4    S    
C18   C32   A    
O14   C46   A    
O3    C1    A    
C32   C45   S    
C36   H18   S    
C11   C13   A    
C3    C8    S    
C12   C14   A    
C19   C27   A    
C22   C24   A    
O7    V1    S    
C10   C32   A    
C1    O8    A    
O16   V4    S    
O8    V2    S    
C54   H34   S    
C24   C26   A    
C14   H8    S    
C46   O17   A    
C25   H9    S    
C6    O24   S    
O18   V4    S    
C14   C16   A    
C49   H19   S    
C19   C21   A    
C34   H12   S    
C1    C38   S    
C41   C43   A    
C18   C26   A    
C51   H25   S    
C12   O26   S    
C44   C47   S    
C11   O25   S    
C9    C11   A    
C15   C17   A    
C17   C31   A    
O9    V2    S    
C24   O22   S    
C17   C25   A    
C42   H16   S    
O10   V1    S    
C5    C21   A    
C6    C22   A    
O11   C47   A    
C53   H33   S    
C33   C43   A    
