data_str_m9_o4_o18_f0_sra.sym.117
_audit_creation_date              2013-03-05T16:07:35-0500
_audit_creation_method            fapswitch 2.2
_symmetry_space_group_name_H-M    P1
_symmetry_Int_Tables_number       1
_space_group_crystal_system       triclinic
_cell_length_a                    21.660409
_cell_length_b                    7.078261
_cell_length_c                    15.103644
_cell_angle_alpha                 89.118975
_cell_angle_beta                  107.034051
_cell_angle_gamma                 89.545587
_cell_volume                      2213.6257608

loop_
_atom_site_label
_atom_site_type_symbol
_atom_site_description
_atom_site_fract_x
_atom_site_fract_y
_atom_site_fract_z
_atom_type_partial_charge
O1    O     O_R   0.585850 0.505770 0.002130 -0.593156
O2    O     O_R   0.414150 0.005770 0.997870 -0.588049
O3    O     O_R   0.467530 0.173560 0.861970 -0.588316
O4    O     O_R   0.532470 0.673560 0.138030 -0.592927
C1    C     C_R   0.455631 0.346436 0.825913 0.924910
C2    C     C_R   0.544662 0.842501 0.174003 0.918461
O5    O     O_R   0.588690 0.175900 0.993250 -0.597145
O6    O     O_R   0.411310 0.675900 0.006750 -0.599530
O7    O     O_R   0.536170 0.007950 0.130090 -0.592532
O8    O     O_R   0.463830 0.507950 0.869910 -0.588853
C3    C     C_R   0.615513 0.344130 0.000345 0.937481
C4    C     C_R   0.384805 0.844960 0.000964 0.944756
O9    O     O_3   0.482630 0.339970 0.044740 -0.278796
O10   O     O_3   0.517370 0.839970 0.955260 -0.280915
V1    V     V_3+5 0.503220 0.064200 0.991700 1.185951
V2    V     V_3+5 0.496780 0.564200 0.008300 1.186912
C5    C     C_R   0.271644 0.975170 0.935973 0.116836
C6    C     C_R   0.707673 0.513525 0.966754 0.131454
C7    C     C_R   0.315690 0.852113 0.996996 -0.183062
C8    C     C_R   0.684476 0.354794 0.002922 -0.173101
C9    C     C_R   0.291212 0.728671 0.052220 -0.117910
C10   C     C_R   0.729848 0.214723 0.047758 -0.084836
H1    H     H_    0.323048 0.627196 0.098358 0.177094
H2    H     H_    0.714741 0.093824 0.080604 0.125549
C11   C     C_R   0.226477 0.743868 0.053343 0.035752
C12   C     C_R   0.795694 0.231548 0.052432 0.021508
C13   C     C_R   0.183532 0.877404 0.996780 -0.206196
C14   C     C_R   0.817908 0.385318 0.010738 -0.217193
C15   C     C_R   0.207234 0.988990 0.936412 0.029511
C16   C     C_R   0.773175 0.530264 0.971485 0.073049
C17   C     C_3   0.208159 0.200008 0.924704 0.539461
C18   C     C_3   0.773138 0.731095 0.003043 0.477532
C19   C     C_3   0.277059 0.181304 0.918504 -0.646323
C20   C     C_3   0.701019 0.713400 0.992015 -0.617407
H3    H     H_    0.314287 0.251349 0.974769 0.235299
H4    H     H_    0.668094 0.792482 0.932469 0.245199
H5    H     H_    0.281644 0.208587 0.848154 0.195037
H6    H     H_    0.687118 0.727366 0.056846 0.215503
C21   C     C_R   0.928224 0.895045 0.723649 -0.198796
C22   C     C_R   0.072691 0.370421 0.275022 -0.162448
C23   C     C_R   0.572617 0.842163 0.274080 -0.098860
C24   C     C_R   0.427854 0.362162 0.725678 -0.100778
C25   C     C_R   0.934681 0.009360 0.575500 -0.036140
C26   C     C_R   0.065665 0.228418 0.417581 -0.037047
C27   C     C_R   0.963309 0.976678 0.669589 -0.084905
C28   C     C_R   0.037319 0.275662 0.324969 -0.102577
C29   C     C_R   0.864277 0.842242 0.682164 -0.084961
C30   C     C_R   0.137582 0.412356 0.317589 -0.108682
C31   C     C_R   0.831168 0.897509 0.589292 0.099098
C32   C     C_R   0.169881 0.343539 0.408251 0.106781
C33   C     C_R   0.868489 0.975961 0.534627 -0.039933
C34   C     C_R   0.131352 0.264871 0.460881 -0.051499
C35   C     C_R   0.762804 0.875186 0.548849 -0.099591
C36   C     C_R   0.238591 0.353275 0.448667 -0.102372
C37   C     C_R   0.735457 0.901379 0.450924 -0.010923
C38   C     C_R   0.265479 0.318003 0.546017 -0.014838
C39   C     C_R   0.775079 0.972090 0.399004 -0.220529
C40   C     C_R   0.224643 0.249243 0.596519 -0.225293
C41   C     C_R   0.839533 0.016526 0.439958 0.347792
C42   C     C_R   0.159175 0.219846 0.555072 0.348933
C43   C     C_R   0.720029 0.834456 0.602417 0.332147
C44   C     C_R   0.281960 0.390129 0.395536 0.335429
C45   C     C_R   0.656227 0.786614 0.559590 -0.310884
C46   C     C_R   0.346461 0.430293 0.439599 -0.318939
C47   C     C_R   0.630176 0.800052 0.464363 0.113028
C48   C     C_R   0.371924 0.413180 0.535072 0.112646
C49   C     C_R   0.668522 0.863199 0.408423 0.142306
C50   C     C_R   0.332645 0.350079 0.589626 0.143061
C51   C     C_R   0.564707 0.758416 0.425266 -0.127891
C52   C     C_R   0.437584 0.451136 0.575882 -0.126416
C53   C     C_R   0.536274 0.777667 0.330504 -0.156949
C54   C     C_R   0.465204 0.427668 0.670849 -0.159045
C55   C     C_R   0.637952 0.883953 0.312013 -0.211076
C56   C     C_R   0.362438 0.323968 0.685962 -0.206155
H7    H     H_    0.663499 0.925316 0.263606 0.113952
H8    H     H_    0.336373 0.278875 0.732974 0.103279
H9    H     H_    0.625075 0.752131 0.602052 0.176192
H10   H     H_    0.378311 0.463433 0.398032 0.176870
H11   H     H_    0.964660 0.064348 0.535632 0.174348
H12   H     H_    0.036301 0.156172 0.453739 0.163272
H13   H     H_    0.013182 0.014288 0.700548 0.210961
H14   H     H_    0.987694 0.237053 0.291827 0.178353
H15   H     H_    0.841429 0.761689 0.724599 0.161744
H16   H     H_    0.162050 0.494791 0.277782 0.140562
H17   H     H_    0.756617 0.004725 0.326173 0.167905
H18   H     H_    0.241941 0.215288 0.669287 0.164156
H19   H     H_    0.535453 0.710543 0.468182 0.113165
H20   H     H_    0.467637 0.498995 0.534132 0.113466
O11   O     O_R   0.036080 0.231270 0.130120 -0.596785
O12   O     O_R   0.963920 0.731270 0.869880 -0.588979
O13   O     O_R   0.911300 0.558970 0.006750 -0.546929
O14   O     O_R   0.088700 0.058970 0.993250 -0.549745
C57   C     C_R   0.885587 0.391008 0.005648 0.951850
C58   C     C_R   0.115199 0.889742 0.998094 0.944677
O15   O     O_R   0.032450 0.561140 0.138040 -0.593166
O16   O     O_R   0.967550 0.061140 0.861960 -0.574068
O17   O     O_R   0.085870 0.728910 0.002130 -0.571052
O18   O     O_R   0.914130 0.228910 0.997870 -0.567871
C59   C     C_R   0.045574 0.390485 0.174512 0.964358
C60   C     C_R   0.955131 0.894154 0.825000 1.024124
O19   O     O_3   0.017320 0.394650 0.955270 -0.234368
O20   O     O_3   0.982680 0.894650 0.044730 -0.245888
V3    V     V_3+5 0.996780 0.670490 0.008300 1.323190
V4    V     V_3+5 0.003220 0.170490 0.991700 1.336766
N1    N     N_R   0.736200 0.872243 0.698925 0.236631
O21   O     O_R   0.717059 0.758036 0.753619 -0.389591
O22   O     O_R   0.758901 0.036904 0.728291 -0.341262
N2    N     N_R   0.264885 0.358503 0.298011 0.235273
O23   O     O_R   0.236744 0.202122 0.265039 -0.364710
O24   O     O_R   0.288331 0.466498 0.245607 -0.411172
H21   H     H_    0.210631 0.656652 0.101698 0.189285
H22   H     H_    0.829589 0.124507 0.088737 0.178842
N3    N     N_R   0.203838 0.298716 0.007003 0.210401
O25   O     O_R   0.246482 0.264816 0.086480 -0.360615
O26   O     O_R   0.151920 0.394115 0.004620 -0.370787
N4    N     N_R   0.787866 0.868272 0.938472 0.243565
O27   O     O_R   0.746059 0.998583 0.897817 -0.353180
O28   O     O_R   0.843235 0.862468 0.921385 -0.363425
N5    N     N_R   0.161686 0.271850 0.839507 0.255200
O29   O     O_R   0.175670 0.420348 0.797624 -0.361107
O30   O     O_R   0.101856 0.219024 0.819112 -0.349362
N6    N     N_R   0.813215 0.754237 0.099638 0.206629
O31   O     O_R   0.793226 0.694138 0.168286 -0.396201
O32   O     O_R   0.873299 0.803016 0.117177 -0.355535
N7    N     N_R   0.874626 0.105890 0.383820 0.220051
O33   O     O_R   0.900694 0.269767 0.406930 -0.405876
O34   O     O_R   0.869741 0.043069 0.301551 -0.368199
N8    N     N_R   0.120629 0.154434 0.611670 0.232728
O35   O     O_R   0.072452 0.257910 0.618747 -0.367611
O36   O     O_R   0.140050 0.010328 0.667776 -0.387893
H23   H     H_    0.486002 0.741241 0.300979 0.123175
H24   H     H_    0.515722 0.459832 0.701579 0.125705

loop_
_geom_bond_atom_site_label_1
_geom_bond_atom_site_label_2
_geom_bond_distance
_ccdc_geom_bond_type
C48   C50   1.416933 A    
C1    C24   1.458225 S    
C45   C47   1.384034 A    
C13   C15   1.406155 A    
C5    C15   1.399761 A    
O14   C58   1.315833 A    
C35   C37   1.431549 A    
O1    C3    1.312255 A    
O2    C4    1.314935 A    
N8    O35   1.300950 A    
C22   C59   1.462644 S    
C29   C31   1.422762 A    
N4    O27   1.300543 A    
C22   C28   1.391842 A    
N1    O22   1.301593 A    
C32   C36   1.436322 A    
C56   H8    1.074972 S    
O11   C59   1.306911 A    
C7    C9    1.408643 A    
C47   C51   1.402817 A    
O15   C59   1.313671 A    
C39   C41   1.391991 A    
C44   N2    1.431379 S    
C50   C56   1.416841 A    
N2    O23   1.301766 A    
C51   C53   1.386568 A    
C43   C45   1.390471 A    
C44   C46   1.393918 A    
C34   C42   1.403324 A    
C5    C7    1.401902 A    
C28   H14   1.083633 S    
C35   C43   1.425626 A    
C38   C40   1.411300 A    
C14   C16   1.404247 A    
C47   C49   1.417373 A    
C2    C23   1.454305 S    
C32   C34   1.421559 A    
C17   C19   1.527300 S    
C6    C16   1.405565 A    
C29   H15   1.076970 S    
C43   N1    1.425905 S    
C6    C8    1.401470 A    
C51   H19   1.083407 S    
C23   C53   1.393250 A    
C26   C34   1.408723 A    
O5    V1    2.012815 S    
C52   H20   1.083307 S    
O6    V2    2.000963 S    
C55   H7    1.076802 S    
C5    C19   1.490390 S    
C2    O7    1.321518 A    
C40   H18   1.074839 S    
O12   C60   1.312201 A    
O15   V3    2.023045 S    
C54   H24   1.083633 S    
C40   C42   1.390920 A    
N5    O30   1.300580 A    
C36   C38   1.431128 A    
C3    C8    1.485386 S    
C24   C56   1.397749 A    
C39   H17   1.075309 S    
C18   N6    1.475294 S    
C42   N8    1.433304 S    
O4    C2    1.317503 A    
O14   V4    2.000668 S    
C36   C44   1.426050 A    
C58   O17   1.317311 A    
C31   C33   1.423924 A    
C38   C50   1.431902 A    
C53   H23   1.083774 S    
C19   H5    1.109948 S    
C30   H16   1.078722 S    
C14   C57   1.491111 S    
C46   C48   1.387741 A    
O4    V2    2.050545 S    
O5    C3    1.321143 A    
O13   C57   1.315144 A    
C6    C20   1.487782 S    
C26   H12   1.079060 S    
O6    C4    1.313656 A    
C24   C54   1.393534 A    
O1    V2    1.998944 S    
C18   N4    1.467567 S    
O20   V4    2.196827 S    
O2    V1    2.004675 S    
C25   C27   1.388827 A    
C17   N5    1.463063 S    
O17   V3    2.005083 S    
C49   C55   1.416813 A    
C8    C10   1.407624 A    
O19   V4    1.729976 S    
C9    H1    1.082704 S    
O11   V4    2.055042 S    
N7    O33   1.301364 A    
C10   H2    1.082582 S    
C11   C13   1.408598 A    
N6    O32   1.300422 A    
C12   H22   1.075303 S    
O3    V1    2.022983 S    
C21   C29   1.399203 A    
N3    O25   1.299897 A    
C45   H9    1.085130 S    
C22   C30   1.400039 A    
O16   V4    2.050603 S    
C9    C11   1.410526 A    
C20   H6    1.111070 S    
C46   H10   1.084854 S    
C27   H13   1.081171 S    
O13   V3    2.012504 S    
O3    C1    1.323867 A    
N8    O36   1.301246 A    
C37   C49   1.432970 A    
N5    O29   1.301394 A    
N2    O24   1.300680 A    
C41   N7    1.437209 S    
N1    O21   1.301246 A    
C12   C14   1.406233 A    
C21   C27   1.390718 A    
C37   C39   1.411048 A    
O7    V1    2.032905 S    
C1    O8    1.318164 A    
C15   C17   1.502357 S    
O8    V2    2.047660 S    
C16   C18   1.506315 S    
C25   C33   1.408522 A    
C21   C60   1.469663 S    
C48   C52   1.404409 A    
O18   V4    1.999353 S    
O16   C60   1.310874 A    
C4    C7    1.481058 S    
C30   C32   1.419363 A    
C19   H3    1.111779 S    
N4    O28   1.299050 A    
C20   H4    1.110502 S    
O20   V3    1.741018 S    
O12   V3    2.039157 S    
C31   C35   1.437907 A    
C11   H21   1.081044 S    
C23   C55   1.398319 A    
C33   C41   1.406894 A    
O19   V3    2.212391 S    
C10   C12   1.413270 A    
O9    V2    1.730782 S    
N7    O34   1.301377 A    
O10   V1    1.741810 S    
C13   C58   1.487944 S    
C52   C54   1.389685 A    
N6    O31   1.302247 A    
C25   H11   1.077801 S    
C57   O18   1.322100 A    
C17   N3    1.461457 S    
C26   C28   1.387295 A    
C18   C20   1.528064 S    
N3    O26   1.298220 A    
