data_str_m3_o10_o26_f0_pcu.sym.189
_audit_creation_date              2012-12-10T16:57:05-0500
_audit_creation_method            fapswitch 2.2
_symmetry_space_group_name_H-M    P1
_symmetry_Int_Tables_number       1
_space_group_crystal_system       triclinic
_cell_length_a                    7.856663
_cell_length_b                    8.590388
_cell_length_c                    16.929798
_cell_angle_alpha                 94.017635
_cell_angle_beta                  80.999568
_cell_angle_gamma                 92.338524
_cell_volume                      1125.26342144

loop_
_atom_site_label
_atom_site_type_symbol
_atom_type_description
_atom_site_fract_x
_atom_site_fract_y
_atom_site_fract_z
_atom_type_partial_charge
C1    C     C_R   0.543526 0.793467 0.497270 0.939402
C2    C     C_R   0.456446 0.206533 0.502775 0.937009
C3    C     C_2   0.560163 0.951185 0.480375 -0.027898
C4    C     C_2   0.439704 0.048791 0.519667 -0.025470
C5    C     C_R   0.478742 0.506934 0.653910 0.863791
C6    C     C_R   0.521282 0.491156 0.346065 0.865122
C7    C     C_R   0.477653 0.526388 0.740592 -0.178180
C8    C     C_R   0.524221 0.465069 0.259380 -0.193473
C9    C     C_R   0.619741 0.467639 0.768108 -0.227692
C10   C     C_R   0.379859 0.513486 0.229525 -0.229743
C11   C     C_R   0.648489 0.499812 0.845947 -0.040760
C12   C     C_R   0.360240 0.480505 0.150416 -0.032003
C13   C     C_R   0.524598 0.582149 0.900011 0.079181
C14   C     C_R   0.493729 0.405953 0.098233 0.064268
C15   C     C_R   0.385129 0.651397 0.873611 0.133992
C16   C     C_R   0.633971 0.344133 0.127242 0.129879
C17   C     C_R   0.359233 0.621042 0.793016 -0.011694
C18   C     C_R   0.651552 0.376145 0.208644 -0.013306
C19   C     C_2   0.519732 0.565757 0.985426 -0.150079
C20   C     C_2   0.504934 0.422284 0.012566 -0.160135
H1    H     H_    0.713794 0.399860 0.727563 0.215765
H2    H     H_    0.278684 0.575391 0.268758 0.228690
H3    H     H_    0.509508 0.318336 0.971867 0.167952
H4    H     H_    0.513786 0.669293 0.026456 0.167136
N1    N     N_2   0.953500 0.457650 0.478520 0.002996
N2    N     N_2   0.046500 0.542350 0.521480 0.001545
O1    O     O_R   0.388470 0.738640 0.505270 -0.619400
O2    O     O_R   0.611530 0.261360 0.494730 -0.620158
O3    O     O_R   0.679650 0.711510 0.491500 -0.635504
O4    O     O_R   0.320350 0.288490 0.508500 -0.636088
O5    O     O_R   0.337210 0.515200 0.623500 -0.577076
O6    O     O_R   0.662790 0.484800 0.376500 -0.578393
O7    O     O_R   0.628380 0.488060 0.609730 -0.634169
O8    O     O_R   0.371620 0.511940 0.390270 -0.632400
Zn1   Zn    Zn3+2 0.305580 0.518120 0.509190 0.973127
Zn2   Zn    Zn3+2 0.694420 0.481880 0.490810 0.972535
C21   C     C_2   0.801413 0.316088 0.239176 0.908483
O9    O     O_2   0.913254 0.406774 0.259154 -0.603207
O10   O     O_R   0.818407 0.155229 0.241324 -0.828069
H5    H     H_    0.928501 0.128228 0.260854 0.341082
C22   C     C_2   0.210935 0.688747 0.764645 0.905347
O11   O     O_2   0.095035 0.603194 0.744441 -0.600950
O12   O     O_R   0.200704 0.850677 0.764183 -0.818171
H6    H     H_    0.091594 0.882849 0.745476 0.347161
C23   C     C_3   0.265781 0.753780 0.932881 -0.805292
H7    H     H_    0.340518 0.856182 0.954511 0.238060
H8    H     H_    0.156048 0.797864 0.908254 0.279714
H9    H     H_    0.209116 0.687768 0.984888 0.255380
C24   C     C_3   0.764012 0.249110 0.069560 -0.756333
H10   H     H_    0.697192 0.145957 0.043647 0.226423
H11   H     H_    0.824306 0.320735 0.020445 0.269082
H12   H     H_    0.870723 0.206113 0.096769 0.272999
C25   C     C_2   0.198275 0.524182 0.123652 0.938679
O13   O     O_2   0.141896 0.445623 0.069908 -0.653036
O14   O     O_R   0.107539 0.652672 0.161324 -0.783282
H13   H     H_    0.998333 0.669008 0.138384 0.358659
C26   C     C_2   0.811357 0.449692 0.869275 0.951302
O15   O     O_2   0.879892 0.330903 0.837563 -0.608331
O16   O     O_R   0.889844 0.541868 0.925537 -0.801998
H14   H     H_    0.002689 0.498014 0.934325 0.366752
C27   C     C_3   0.685223 0.987206 0.405548 -0.842422
H15   H     H_    0.698110 0.883852 0.361894 0.254211
H16   H     H_    0.640195 0.082253 0.373661 0.258261
H17   H     H_    0.814108 0.016735 0.422134 0.237720
C28   C     C_3   0.314165 0.012681 0.594346 -0.846011
H18   H     H_    0.301611 0.115809 0.638150 0.256537
H19   H     H_    0.185273 0.983756 0.577610 0.237130
H20   H     H_    0.358412 0.917123 0.626131 0.257700
C29   C     C_3   0.018380 0.310854 0.442713 -0.450017
H21   H     H_    0.929474 0.262649 0.401987 0.186298
H22   H     H_    0.144550 0.325083 0.404819 0.214565
H23   H     H_    0.020136 0.227088 0.489576 0.180991
C30   C     C_3   0.981546 0.688988 0.557540 -0.447895
H24   H     H_    0.070121 0.736829 0.598563 0.187452
H25   H     H_    0.980049 0.773147 0.510836 0.180761
H26   H     H_    0.855187 0.674614 0.595228 0.215498

loop_
_geom_bond_atom_site_label_1
_geom_bond_atom_site_label_2
_ccdc_geom_bond_type
C5    O5    A    
C27   H17   S    
C2    C4    S    
O12   H6    S    
C25   O13   D    
C21   O9    D    
C14   C20   S    
C29   H23   S    
C30   H25   S    
C30   H24   S    
C6    O6    A    
C19   C20   D    
C28   H19   S    
C20   H3    S    
C2    O4    A    
C28   H20   S    
C1    O1    A    
C7    C9    A    
C24   H12   S    
O14   H13   S    
C25   O14   S    
C19   H4    S    
O16   H14   S    
C21   O10   S    
C16   C18   A    
C27   H16   S    
C23   H7    S    
C10   H2    S    
C22   O12   S    
O3    Zn2   S    
C9    H1    S    
C26   O15   D    
C29   H21   S    
C6    O8    A    
C10   C12   A    
O4    Zn1   S    
C6    C8    S    
C9    C11   A    
C1    O3    A    
C18   C21   S    
C12   C14   A    
C24   H10   S    
O5    Zn1   S    
C23   H8    S    
C13   C15   A    
C27   H15   S    
C30   H26   S    
C14   C16   A    
C26   O16   S    
C17   C22   S    
C29   H22   S    
C28   H18   S    
C15   C23   S    
C3    C27   S    
C3    C4    D    
O6    Zn2   S    
N2    Zn1   S    
C11   C13   A    
O7    Zn2   S    
N1    C29   S    
C16   C24   S    
O2    Zn2   S    
C15   C17   A    
O8    Zn1   S    
C22   O11   D    
C23   H9    S    
O10   H5    S    
C5    C7    S    
C13   C19   S    
C4    C28   S    
C2    O2    A    
N1    Zn2   S    
C1    C3    S    
N1    N2    D    
C11   C26   S    
N2    C30   S    
C8    C10   A    
C8    C18   A    
C12   C25   S    
O1    Zn1   S    
C24   H11   S    
C7    C17   A    
C5    O7    A    
