data_str_m9_o4_o18_f0_sra.sym.46
_audit_creation_date              2013-03-05T16:07:36-0500
_audit_creation_method            fapswitch 2.2
_symmetry_space_group_name_H-M    P1
_symmetry_Int_Tables_number       1
_space_group_crystal_system       triclinic
_cell_length_a                    21.624883
_cell_length_b                    7.049938
_cell_length_c                    14.78395
_cell_angle_alpha                 90.00894
_cell_angle_beta                  105.79807
_cell_angle_gamma                 90.000555
_cell_volume                      2168.73833678

loop_
_atom_site_label
_atom_site_type_symbol
_atom_site_description
_atom_site_fract_x
_atom_site_fract_y
_atom_site_fract_z
_atom_type_partial_charge
O1    O     O_R   0.585850 0.505770 0.002130 -0.590796
O2    O     O_R   0.414150 0.005770 0.997870 -0.590818
O3    O     O_R   0.467530 0.173560 0.861970 -0.589124
O4    O     O_R   0.532470 0.673560 0.138030 -0.589114
C1    C     C_R   0.455189 0.344378 0.825145 0.938315
C2    C     C_R   0.544792 0.844402 0.174846 0.938459
O5    O     O_R   0.588690 0.175900 0.993250 -0.599749
O6    O     O_R   0.411310 0.675900 0.006750 -0.599738
O7    O     O_R   0.536170 0.007950 0.130090 -0.591293
O8    O     O_R   0.463830 0.507950 0.869910 -0.591291
C3    C     C_R   0.615038 0.344550 0.997859 0.936617
C4    C     C_R   0.384961 0.844549 0.002139 0.936447
O9    O     O_3   0.482630 0.339970 0.044740 -0.280873
O10   O     O_3   0.517370 0.839970 0.955260 -0.280895
V1    V     V_3+5 0.503220 0.064200 0.991700 1.164145
V2    V     V_3+5 0.496780 0.564200 0.008300 1.164159
C5    C     C_R   0.293182 0.981976 0.055043 0.155070
C6    C     C_R   0.706817 0.481922 0.944949 0.155189
C7    C     C_R   0.316505 0.850898 0.001653 -0.206513
C8    C     C_R   0.683492 0.350892 0.998341 -0.206595
C9    C     C_R   0.272488 0.717976 0.949216 -0.213843
C10   C     C_R   0.727504 0.217967 0.050756 -0.213737
H1    H     H_    0.289946 0.612326 0.908906 0.167431
H2    H     H_    0.710045 0.112326 0.091056 0.167446
C11   C     C_R   0.205577 0.730670 0.941057 -0.078947
C12   C     C_R   0.794415 0.230639 0.058905 -0.078428
C13   C     C_R   0.182548 0.875138 0.992144 -0.257194
C14   C     C_R   0.817448 0.375106 0.007834 -0.257275
C15   C     C_R   0.228644 0.991219 0.051915 0.136242
C16   C     C_R   0.771351 0.491141 0.948062 0.135923
C17   C     C_3   0.231351 0.201270 0.065523 -0.455268
C18   C     C_3   0.768644 0.701166 0.934392 -0.455383
C19   C     C_3   0.302125 0.190997 0.067627 -0.430146
C20   C     C_3   0.697875 0.690927 0.932327 -0.430019
H3    H     H_    0.223699 0.242944 0.134181 0.162277
H4    H     H_    0.776279 0.742698 0.865711 0.162339
H5    H     H_    0.201223 0.278752 0.003922 0.236221
H6    H     H_    0.798789 0.778748 0.995957 0.236183
H7    H     H_    0.334982 0.228329 0.137256 0.174318
H8    H     H_    0.665005 0.728170 0.862701 0.174293
H9    H     H_    0.312886 0.261217 0.006280 0.220302
H10   H     H_    0.687132 0.761237 0.993675 0.220300
C21   C     C_R   0.931352 0.887809 0.721615 -0.175104
C22   C     C_R   0.068523 0.388189 0.278460 -0.174944
C23   C     C_R   0.574949 0.853054 0.276420 -0.151059
C24   C     C_R   0.424994 0.352970 0.723561 -0.151049
C25   C     C_R   0.940626 0.934258 0.563464 -0.199243
C26   C     C_R   0.059477 0.438713 0.436491 -0.200821
C27   C     C_R   0.969946 0.928588 0.660394 -0.094297
C28   C     C_R   0.030075 0.432080 0.339571 -0.094343
C29   C     C_R   0.865214 0.856996 0.685045 -0.253330
C30   C     C_R   0.134583 0.355919 0.315151 -0.254238
C31   C     C_R   0.834695 0.875826 0.587924 0.115728
C32   C     C_R   0.165194 0.376199 0.412177 0.116643
C33   C     C_R   0.874045 0.912107 0.527360 0.171247
C34   C     C_R   0.125974 0.414846 0.472649 0.168943
C35   C     C_R   0.766404 0.866167 0.549320 0.073059
C36   C     C_R   0.233476 0.365880 0.450746 0.072875
C37   C     C_R   0.739395 0.876513 0.449865 0.070296
C38   C     C_R   0.260543 0.377041 0.550169 0.069918
C39   C     C_R   0.780544 0.922964 0.393662 -0.206063
C40   C     C_R   0.219516 0.425030 0.606328 -0.205135
C41   C     C_R   0.846475 0.936624 0.431342 -0.188924
C42   C     C_R   0.153622 0.440055 0.568619 -0.188565
C43   C     C_R   0.724070 0.859554 0.606914 -0.200695
C44   C     C_R   0.275766 0.358212 0.393110 -0.200733
C45   C     C_R   0.658017 0.870439 0.568941 -0.207305
C46   C     C_R   0.341839 0.368975 0.431017 -0.207144
C47   C     C_R   0.630601 0.873664 0.471442 0.105659
C48   C     C_R   0.369293 0.372910 0.528513 0.105610
C49   C     C_R   0.671260 0.858968 0.410437 0.041446
C50   C     C_R   0.328657 0.358988 0.589570 0.041464
C51   C     C_R   0.563203 0.890185 0.433572 0.072097
C52   C     C_R   0.436695 0.389446 0.566337 0.072071
C53   C     C_R   0.536552 0.888371 0.336472 -0.239698
C54   C     C_R   0.463380 0.387832 0.663441 -0.239670
C55   C     C_R   0.641628 0.826345 0.312952 -0.057481
C56   C     C_R   0.358282 0.326749 0.687084 -0.057591
H11   H     H_    0.875976 0.972767 0.385124 0.157572
H12   H     H_    0.124228 0.477778 0.614766 0.159566
H13   H     H_    0.485121 0.906550 0.307429 0.117325
H14   H     H_    0.514822 0.405873 0.692437 0.117331
H15   H     H_    0.628381 0.875076 0.617317 0.136437
H16   H     H_    0.371457 0.372947 0.382607 0.136397
H17   H     H_    0.969440 0.964950 0.515566 0.169564
H18   H     H_    0.030838 0.471469 0.484376 0.172092
H19   H     H_    0.838703 0.822769 0.734952 0.099531
H20   H     H_    0.161015 0.319598 0.265405 0.099864
H21   H     H_    0.762381 0.962520 0.320800 0.169326
H22   H     H_    0.237792 0.464974 0.679130 0.168970
H23   H     H_    0.740400 0.858040 0.682512 0.123753
H24   H     H_    0.259372 0.356256 0.317513 0.123693
O11   O     O_R   0.036080 0.231270 0.130120 -0.587731
O12   O     O_R   0.963920 0.731270 0.869880 -0.587889
O13   O     O_R   0.911300 0.558970 0.006750 -0.583860
O14   O     O_R   0.088700 0.058970 0.993250 -0.584010
C57   C     C_R   0.885526 0.389269 0.005358 1.027513
C58   C     C_R   0.114469 0.889275 0.994625 1.025673
O15   O     O_R   0.032450 0.561140 0.138040 -0.582903
O16   O     O_R   0.967550 0.061140 0.861960 -0.582073
O17   O     O_R   0.085870 0.728910 0.002130 -0.597729
O18   O     O_R   0.914130 0.228910 0.997870 -0.598011
C59   C     C_R   0.043143 0.392670 0.175633 1.015555
C60   C     C_R   0.956847 0.892614 0.824386 1.013788
O19   O     O_3   0.017320 0.394650 0.955270 -0.268275
O20   O     O_3   0.982680 0.894650 0.044730 -0.268653
V3    V     V_3+5 0.996780 0.670490 0.008300 1.226472
V4    V     V_3+5 0.003220 0.170490 0.991700 1.226908
C61   C     C_2   0.040306 0.967900 0.693679 1.017940
O21   O     O_2   0.065004 0.021227 0.774040 -0.650891
O22   O     O_R   0.078501 0.947728 0.631565 -0.810478
H25   H     H_    0.125304 0.979817 0.661718 0.327307
C62   C     C_2   0.959831 0.473884 0.306264 1.015781
O23   O     O_2   0.934821 0.519631 0.224776 -0.650406
O24   O     O_R   0.922087 0.464845 0.369544 -0.810877
H26   H     H_    0.875387 0.497896 0.339238 0.327468
C63   C     C_1   0.520012 0.911329 0.492411 0.033803
N1    N     N_1   0.485406 0.927676 0.539427 -0.079545
C64   C     C_1   0.479849 0.410637 0.507445 0.033853
N2    N     N_1   0.514423 0.427066 0.460388 -0.079517
C65   C     C_2   0.162163 0.601405 0.872146 0.994836
O25   O     O_2   0.105534 0.640653 0.838485 -0.628680
O26   O     O_R   0.187039 0.436975 0.842249 -0.835742
H27   H     H_    0.153280 0.361311 0.794968 0.340089
C66   C     C_2   0.837817 0.101316 0.127779 0.995479
O27   O     O_2   0.894439 0.140596 0.161515 -0.627606
O28   O     O_R   0.812932 0.936790 0.157559 -0.836235
H28   H     H_    0.846688 0.861031 0.204781 0.338923
C67   C     C_1   0.676186 0.739642 0.252034 0.053454
N3    N     N_1   0.703389 0.669671 0.203250 -0.056520
C68   C     C_1   0.323641 0.240858 0.748092 0.053290
N4    N     N_1   0.296372 0.171512 0.796948 -0.056187

loop_
_geom_bond_atom_site_label_1
_geom_bond_atom_site_label_2
_geom_bond_distance
_ccdc_geom_bond_type
C14   C57   1.485933 S    
O17   V3    1.996316 S    
C44   C46   1.387567 A    
C13   C58   1.485944 S    
C45   H15   1.082994 S    
C2    C23   1.466549 S    
C13   C15   1.401549 A    
C5    C15   1.385283 A    
O15   C59   1.305083 A    
O22   H25   1.014184 S    
O1    C3    1.309935 A    
C26   C34   1.401201 A    
O2    C4    1.309946 A    
O11   C59   1.309427 A    
C2    O7    1.317213 A    
C24   C54   1.393284 A    
O26   H27   1.013959 S    
C25   C27   1.400867 A    
C41   H11   1.084518 S    
O5    C3    1.312160 A    
C52   C64   1.446937 S    
O19   V3    2.186954 S    
C19   H7    1.111506 S    
C52   C54   1.393901 A    
C20   H8    1.111502 S    
C25   H17   1.084799 S    
C10   H2    1.083886 S    
C25   C33   1.401375 A    
C7    C9    1.408236 A    
C67   N3    1.157779 T    
C61   O22   1.399504 S    
O11   V4    2.020946 S    
C35   C37   1.428556 A    
O20   V3    1.723251 S    
C38   C50   1.434570 A    
C36   C38   1.428567 A    
O24   H26   1.014179 S    
O16   C60   1.305178 A    
C38   C40   1.411345 A    
C39   C41   1.385606 A    
C21   C60   1.468828 S    
C50   C56   1.427456 A    
C42   H12   1.084570 S    
C36   C44   1.410530 A    
C39   H21   1.077995 S    
C20   H10   1.112144 S    
C43   C45   1.387355 A    
O14   C58   1.317587 A    
C48   C52   1.416680 A    
C40   C42   1.385617 A    
C17   C19   1.524013 S    
O18   V4    1.996317 S    
C6    C16   1.385235 A    
C18   H6    1.108728 S    
C6    C8    1.395649 A    
C57   O18   1.307746 A    
C22   C30   1.401737 A    
O5    V1    2.003419 S    
O14   V4    2.003136 S    
O12   C60   1.309129 A    
O6    V2    2.003435 S    
C51   C53   1.393754 A    
C5    C19   1.491238 S    
C22   C59   1.469313 S    
C30   C32   1.413895 A    
C31   C33   1.416373 A    
C3    C8    1.479058 S    
O19   V4    1.723399 S    
C32   C34   1.416209 A    
O12   V3    2.021084 S    
O16   V4    2.015496 S    
C37   C39   1.411428 A    
C46   H16   1.082978 S    
C30   H20   1.077954 S    
C51   C63   1.446933 S    
O4    C2    1.318603 A    
C54   H14   1.085247 S    
C24   C56   1.408028 A    
C31   C35   1.432595 A    
C53   H13   1.085251 S    
C44   H24   1.076671 S    
C17   H5    1.108759 S    
C33   C41   1.392720 A    
C29   C31   1.413823 A    
C12   C66   1.492945 S    
C18   C20   1.524049 S    
O4    V2    2.015451 S    
C56   C68   1.452374 S    
O6    C4    1.312190 A    
C34   C42   1.392874 A    
O1    V2    1.995909 S    
C55   C67   1.452414 S    
C47   C51   1.416667 A    
O2    V1    1.995907 S    
C6    C20   1.491235 S    
C65   O25   1.221505 D    
O13   V3    2.003119 S    
C8    C10   1.408241 A    
C9    H1    1.083880 S    
C66   O27   1.221522 D    
C17   H3    1.111467 S    
C29   H19   1.077789 S    
O28   H28   1.013960 S    
C18   H4    1.111463 S    
C49   C55   1.427466 A    
O3    V1    2.015685 S    
C27   C61   1.492075 S    
C62   O23   1.221967 D    
C32   C36   1.432582 A    
C22   C28   1.418526 A    
C43   H23   1.076578 S    
C9    C11   1.421687 A    
C21   C27   1.417661 A    
C35   C43   1.410560 A    
O3    C1    1.318687 A    
C48   C50   1.424270 A    
C64   N2    1.157420 T    
O13   C57   1.317618 A    
C11   C13   1.435377 A    
C58   O17   1.307809 A    
O15   V3    2.015729 S    
C1    C24   1.466822 S    
C12   C14   1.435433 A    
C47   C49   1.424432 A    
C23   C53   1.393187 A    
C28   C62   1.493171 S    
C19   H9    1.112137 S    
C14   C16   1.401553 A    
O7    V1    2.014291 S    
C1    O8    1.317243 A    
C15   C17   1.493424 S    
O8    V2    2.014164 S    
C63   N1    1.157425 T    
C16   C18   1.493414 S    
C21   C29   1.401412 A    
O20   V4    2.187165 S    
C40   H22   1.078068 S    
C4    C7    1.479080 S    
C26   C28   1.401235 A    
C5    C7    1.395673 A    
C26   H18   1.084769 S    
C65   O26   1.399227 S    
C46   C48   1.401721 A    
C10   C12   1.421692 A    
O9    V2    1.724187 S    
C66   O28   1.399264 S    
O10   V1    1.724039 S    
C23   C55   1.407931 A    
C45   C47   1.401571 A    
C61   O21   1.221657 D    
C11   C65   1.492890 S    
C68   N4    1.157774 T    
C37   C49   1.434678 A    
C62   O24   1.400438 S    
