data_str_m9_o18_o27_f0_sra.sym.121
_audit_creation_date              2012-12-11T15:33:36-0500
_audit_creation_method            fapswitch 2.2
_symmetry_space_group_name_H-M    P1
_symmetry_Int_Tables_number       1
_space_group_crystal_system       triclinic
_cell_length_a                    27.177975
_cell_length_b                    7.195281
_cell_length_c                    22.578308
_cell_angle_alpha                 90.000228
_cell_angle_beta                  101.440187
_cell_angle_gamma                 90.000727
_cell_volume                      4327.53857278

loop_
_atom_site_label
_atom_site_type_symbol
_atom_type_description
_atom_site_fract_x
_atom_site_fract_y
_atom_site_fract_z
_atom_type_partial_charge
O1    O     O_R   0.207310 0.594030 0.676830 -0.542681
O2    O     O_R   0.792690 0.405970 0.323170 -0.524726
O3    O     O_R   0.292690 0.094030 0.823170 -0.542679
O4    O     O_R   0.707310 0.905970 0.176830 -0.524704
O5    O     O_R   0.197320 0.262370 0.795700 -0.544848
O6    O     O_R   0.802680 0.737630 0.204300 -0.535734
O7    O     O_R   0.302680 0.762370 0.704300 -0.544849
O8    O     O_R   0.697320 0.237630 0.295700 -0.535741
C1    C     C_R   0.184839 0.432830 0.812160 0.679823
C2    C     C_R   0.815828 0.567340 0.188902 0.684595
C3    C     C_R   0.315160 0.932832 0.687841 0.679834
C4    C     C_R   0.684173 0.067340 0.311100 0.684552
O9    O     O_R   0.201410 0.264250 0.675590 -0.530950
O10   O     O_R   0.798590 0.735750 0.324410 -0.544206
O11   O     O_R   0.298590 0.764250 0.824410 -0.530956
O12   O     O_R   0.701410 0.235750 0.175590 -0.544190
O13   O     O_R   0.296810 0.094940 0.702210 -0.534424
O14   O     O_R   0.703190 0.905060 0.297790 -0.539704
O15   O     O_R   0.203190 0.594940 0.797790 -0.534423
O16   O     O_R   0.796810 0.405060 0.202210 -0.539693
C5    C     C_R   0.190370 0.432907 0.652687 0.755716
C6    C     C_R   0.810068 0.566890 0.346994 0.765919
C7    C     C_R   0.309630 0.932910 0.847313 0.755725
C8    C     C_R   0.689933 0.066888 0.153005 0.765990
O17   O     O_3   0.281300 0.427390 0.758870 -0.373975
O18   O     O_3   0.718700 0.572610 0.241130 -0.375592
O19   O     O_3   0.218700 0.927390 0.741130 -0.373973
O20   O     O_3   0.781300 0.072610 0.258870 -0.375603
V1    V     V_3+5 0.244190 0.152150 0.748350 1.399342
V2    V     V_3+5 0.755810 0.847850 0.251650 1.418285
V3    V     V_3+5 0.255810 0.652150 0.751650 1.399329
V4    V     V_3+5 0.744190 0.347850 0.248350 1.418293
C9    C     C_R   0.655661 0.054572 0.093394 -0.176173
C10   C     C_R   0.343905 0.942937 0.906978 -0.193918
C11   C     C_R   0.844341 0.554588 0.406604 -0.176283
C12   C     C_R   0.156095 0.442924 0.593023 -0.193916
C13   C     C_R   0.643080 0.994309 0.985490 0.333717
C14   C     C_R   0.357590 0.938620 0.016629 0.343575
C15   C     C_R   0.856919 0.494578 0.514521 0.333792
C16   C     C_R   0.142408 0.438538 0.483372 0.343575
C17   C     C_R   0.675464 0.026546 0.041439 0.284704
C18   C     C_R   0.324666 0.941427 0.960170 0.307512
C19   C     C_R   0.824539 0.526735 0.458567 0.284831
C20   C     C_R   0.175333 0.441366 0.539829 0.307509
C21   C     C_R   0.603505 0.052914 0.089336 -0.276155
C22   C     C_R   0.395781 0.957866 0.910487 -0.266909
C23   C     C_R   0.896496 0.552835 0.410658 -0.276112
C24   C     C_R   0.104219 0.457877 0.589514 -0.266909
C25   C     C_R   0.569626 0.020138 0.033498 0.007553
C26   C     C_R   0.430171 0.967849 0.966957 0.007599
C27   C     C_R   0.930375 0.520137 0.466502 0.007605
C28   C     C_R   0.069829 0.467834 0.533045 0.007587
C29   C     C_R   0.590101 0.000876 0.980456 -0.107719
C30   C     C_R   0.410236 0.961140 0.020752 -0.114163
C31   C     C_R   0.909901 0.501030 0.519551 -0.107832
C32   C     C_R   0.089762 0.461069 0.479249 -0.114159
C33   C     C_R   0.516241 0.002871 0.029029 0.037509
C34   C     C_R   0.483619 0.983339 0.971435 0.038549
C35   C     C_R   0.983758 0.502830 0.470972 0.037509
C36   C     C_R   0.016381 0.483360 0.528567 0.038566
C37   C     C_R   0.505574 0.973782 0.920067 -0.276407
C38   C     C_R   0.494838 0.994464 0.080789 -0.273339
C39   C     C_R   0.994428 0.473919 0.579939 -0.276387
C40   C     C_R   0.005160 0.494351 0.419211 -0.273343
C41   C     C_R   0.557384 0.985505 0.923629 0.425802
C42   C     C_R   0.443135 0.977511 0.077475 0.422441
C43   C     C_R   0.942619 0.485728 0.576380 0.425641
C44   C     C_R   0.056863 0.477395 0.422526 0.422438
H1    H     H_    0.407641 0.965310 0.867820 0.123971
H2    H     H_    0.590747 0.077531 0.130883 0.123017
H3    H     H_    0.092362 0.465347 0.632181 0.123971
H4    H     H_    0.909252 0.577331 0.369103 0.123007
H5    H     H_    0.483720 0.949913 0.875619 0.131390
H6    H     H_    0.517560 0.992756 0.125580 0.131529
H7    H     H_    0.016282 0.450094 0.624389 0.131378
H8    H     H_    0.982440 0.492607 0.374420 0.131539
C45   C     C_R   0.617094 0.888332 0.348958 -0.231342
C46   C     C_R   0.361391 0.119947 0.622698 -0.151600
C47   C     C_R   0.882909 0.388324 0.151049 -0.231341
C48   C     C_R   0.138606 0.619938 0.877304 -0.151593
H9    H     H_    0.625403 0.768665 0.323519 0.124652
H10   H     H_    0.339671 0.240613 0.630484 0.150751
H11   H     H_    0.874598 0.268660 0.176487 0.124626
H12   H     H_    0.160321 0.740613 0.869511 0.150744
C49   C     C_R   0.579278 0.873057 0.383237 0.305167
C50   C     C_R   0.397036 0.142446 0.586122 0.297087
C51   C     C_R   0.920725 0.373039 0.116769 0.305119
C52   C     C_R   0.102964 0.642423 0.913885 0.297103
C53   C     C_R   0.568163 0.026942 0.417387 -0.013897
C54   C     C_R   0.426363 0.987940 0.574056 -0.066490
C55   C     C_R   0.931844 0.526921 0.082623 -0.013849
C56   C     C_R   0.073642 0.487906 0.925956 -0.066532
C57   C     C_R   0.593906 0.194954 0.413873 -0.221758
C58   C     C_R   0.418719 0.816285 0.601326 -0.184892
C59   C     C_R   0.906105 0.694937 0.086136 -0.221788
C60   C     C_R   0.081288 0.316254 0.898685 -0.184887
H13   H     H_    0.586333 0.314538 0.439766 0.161568
H14   H     H_    0.440442 0.695535 0.594124 0.164967
H15   H     H_    0.913684 0.814517 0.060244 0.161528
H16   H     H_    0.059569 0.195495 0.905892 0.164998
C61   C     C_R   0.630849 0.209464 0.378784 -0.170872
C62   C     C_R   0.382876 0.796250 0.637949 -0.177000
C63   C     C_R   0.869159 0.709454 0.121221 -0.170820
C64   C     C_R   0.117128 0.296231 0.862058 -0.176989
H17   H     H_    0.650322 0.340256 0.377923 0.133031
H18   H     H_    0.378189 0.661644 0.657557 0.145514
H19   H     H_    0.849689 0.840246 0.122085 0.132981
H20   H     H_    0.121817 0.161624 0.842451 0.145525
C65   C     C_R   0.643518 0.055556 0.346654 -0.068894
C66   C     C_R   0.353609 0.948101 0.649027 -0.113132
C67   C     C_R   0.856486 0.555550 0.153350 -0.068848
C68   C     C_R   0.146392 0.448092 0.850976 -0.113146
N1    N     N_R   0.503092 0.165445 0.466085 -0.294053
N2    N     N_R   0.491690 0.847482 0.524354 -0.290198
N3    N     N_R   0.996985 0.665312 0.034017 -0.294108
N4    N     N_R   0.008255 0.347538 0.975580 -0.290197
N5    N     N_R   0.470111 0.156475 0.502479 -0.289979
N6    N     N_R   0.524561 0.855594 0.487625 -0.244493
N7    N     N_R   0.029968 0.656335 0.997625 -0.289992
N8    N     N_R   0.975384 0.355653 0.012309 -0.244601
C69   C     C_R   0.463670 0.998295 0.532924 0.506516
C70   C     C_R   0.530986 0.015019 0.457702 0.522087
C71   C     C_R   0.036339 0.498256 0.967092 0.506550
C72   C     C_R   0.969023 0.514987 0.042313 0.522182
O21   O     O_3   0.576182 0.965770 0.871150 -0.555443
C73   C     C_3   0.561320 0.115889 0.830871 0.093445
H21   H     H_    0.595713 0.192049 0.825518 0.146913
H22   H     H_    0.536127 0.219505 0.846684 0.098300
C74   C     C_3   0.535665 0.039446 0.769193 -0.310522
H23   H     H_    0.562030 0.945653 0.751748 0.204356
H24   H     H_    0.502047 0.957423 0.774022 0.189886
C75   C     C_3   0.519491 0.195361 0.723643 -0.814654
H25   H     H_    0.491714 0.287200 0.739156 0.228569
H26   H     H_    0.501829 0.134799 0.679293 0.238873
H27   H     H_    0.552515 0.279070 0.717713 0.233272
O22   O     O_3   0.425440 0.958183 0.130674 -0.558697
C76   C     C_3   0.433198 0.122433 0.165913 0.098837
H28   H     H_    0.395781 0.180525 0.168206 0.148130
H29   H     H_    0.454346 0.234118 0.147283 0.097455
C77   C     C_3   0.460537 0.073001 0.229893 -0.317832
H30   H     H_    0.437787 0.970610 0.249738 0.199700
H31   H     H_    0.497366 0.008509 0.228110 0.190964
C78   C     C_3   0.469333 0.244232 0.270442 -0.836281
H32   H     H_    0.493340 0.346150 0.252434 0.232205
H33   H     H_    0.488634 0.202686 0.316582 0.247834
H34   H     H_    0.432997 0.310692 0.273361 0.230417
O23   O     O_3   0.923820 0.466099 0.628862 -0.555458
C79   C     C_3   0.938723 0.616183 0.669144 0.093566
H35   H     H_    0.904350 0.692474 0.674496 0.146779
H36   H     H_    0.963944 0.719695 0.653332 0.098276
C80   C     C_3   0.964355 0.539674 0.730821 -0.310495
H37   H     H_    0.937962 0.446005 0.748266 0.204391
H38   H     H_    0.997948 0.457506 0.725993 0.189895
C81   C     C_3   0.980575 0.695554 0.776372 -0.814707
H39   H     H_    0.008383 0.787255 0.760863 0.228573
H40   H     H_    0.998214 0.634948 0.820723 0.238889
H41   H     H_    0.947577 0.779417 0.782297 0.233276
O24   O     O_3   0.074556 0.458036 0.369327 -0.558698
C82   C     C_3   0.066810 0.622292 0.334090 0.098831
H42   H     H_    0.104232 0.680372 0.331810 0.148130
H43   H     H_    0.045659 0.733981 0.352714 0.097467
C83   C     C_3   0.039483 0.572873 0.270105 -0.317847
H44   H     H_    0.062239 0.470502 0.250261 0.199695
H45   H     H_    0.002653 0.508362 0.271876 0.190978
C84   C     C_3   0.030688 0.744118 0.229561 -0.836226
H46   H     H_    0.006664 0.845992 0.247559 0.232200
H47   H     H_    0.011407 0.702575 0.183413 0.247847
H48   H     H_    0.067023 0.810629 0.226666 0.230423
O25   O     O_3   0.273411 0.928781 0.957666 -0.582444
C85   C     C_3   0.251350 0.108044 0.950091 0.080822
H49   H     H_    0.212181 0.090446 0.924819 0.148523
H50   H     H_    0.270057 0.203897 0.922640 0.111161
C86   C     C_3   0.250209 0.198146 0.011359 -0.307924
H51   H     H_    0.235341 0.097492 0.040773 0.216420
H52   H     H_    0.288930 0.237802 0.033734 0.206173
C87   C     C_3   0.217503 0.372340 0.004021 -0.857646
H53   H     H_    0.230932 0.473662 0.973642 0.242610
H54   H     H_    0.219047 0.438915 0.048683 0.233996
H55   H     H_    0.177903 0.335155 0.985149 0.251766
O26   O     O_3   0.726894 0.010315 0.046577 -0.575664
C88   C     C_3   0.745771 0.174393 0.024979 0.082473
H56   H     H_    0.742154 0.293092 0.055530 0.107208
H57   H     H_    0.725583 0.208845 0.978401 0.154692
C89   C     C_3   0.801230 0.145326 0.023659 -0.288584
H58   H     H_    0.822699 0.130219 0.070631 0.185405
H59   H     H_    0.805765 0.015450 0.998589 0.207933
C90   C     C_3   0.822599 0.307399 0.993249 -0.817348
H60   H     H_    0.803835 0.316790 0.945005 0.227333
H61   H     H_    0.863276 0.284511 0.995291 0.253734
H62   H     H_    0.817443 0.440089 0.016407 0.237877
O27   O     O_3   0.226587 0.428683 0.542332 -0.582443
C91   C     C_3   0.248660 0.607929 0.549908 0.080828
H63   H     H_    0.287829 0.590300 0.575174 0.148540
H64   H     H_    0.229962 0.703793 0.577365 0.111163
C92   C     C_3   0.249800 0.698034 0.488641 -0.307921
H65   H     H_    0.264663 0.597377 0.459223 0.216406
H66   H     H_    0.211080 0.737701 0.466269 0.206169
C93   C     C_3   0.282511 0.872218 0.495979 -0.857644
H67   H     H_    0.269085 0.973548 0.526357 0.242609
H68   H     H_    0.280970 0.938787 0.451316 0.233984
H69   H     H_    0.322110 0.835022 0.514853 0.251773
O28   O     O_3   0.773107 0.510630 0.453445 -0.575619
C94   C     C_3   0.754256 0.674914 0.474943 0.082661
H70   H     H_    0.757796 0.793308 0.444247 0.107265
H71   H     H_    0.774517 0.709832 0.521451 0.154340
C95   C     C_3   0.698829 0.645870 0.476447 -0.288432
H72   H     H_    0.677281 0.630263 0.429531 0.185393
H73   H     H_    0.694367 0.516265 0.501687 0.207949
C96   C     C_3   0.677503 0.808272 0.506749 -0.817384
H74   H     H_    0.696343 0.818155 0.554955 0.227319
H75   H     H_    0.636842 0.785399 0.504833 0.253619
H76   H     H_    0.682603 0.940714 0.483428 0.237962
O29   O     O_3   0.663958 0.956135 0.935708 -0.551816
C97   C     C_3   0.672074 0.762556 0.933225 0.158962
H77   H     H_    0.637524 0.682691 0.936655 0.111557
H78   H     H_    0.703242 0.719481 0.970555 0.125102
C98   C     C_3   0.686339 0.715544 0.872847 -0.278826
H79   H     H_    0.655979 0.762262 0.835266 0.221471
H80   H     H_    0.721454 0.790046 0.869212 0.194903
C99   C     C_3   0.694247 0.507104 0.866797 -0.862128
H81   H     H_    0.725360 0.458923 0.902968 0.229389
H82   H     H_    0.704007 0.476923 0.822299 0.239535
H83   H     H_    0.659506 0.429951 0.870091 0.233616
O30   O     O_3   0.337158 0.926415 0.067912 -0.555410
C100  C     C_3   0.332278 0.736914 0.082083 0.154180
H84   H     H_    0.369128 0.663983 0.087466 0.127132
H85   H     H_    0.304648 0.666493 0.046020 0.123051
C101  C     C_3   0.313613 0.724047 0.141511 -0.276295
H86   H     H_    0.337290 0.813463 0.176039 0.219163
H87   H     H_    0.274305 0.775474 0.134421 0.182425
C102  C     C_3   0.315795 0.525073 0.165232 -0.868982
H88   H     H_    0.293770 0.430627 0.131109 0.237676
H89   H     H_    0.299951 0.519790 0.206900 0.236577
H90   H     H_    0.355350 0.476850 0.176414 0.228677
O31   O     O_3   0.836027 0.456735 0.564315 -0.551774
C103  C     C_3   0.827948 0.263168 0.566938 0.159001
H91   H     H_    0.862573 0.183385 0.563791 0.112063
H92   H     H_    0.796914 0.219649 0.529510 0.124689
C104  C     C_3   0.813436 0.216704 0.627220 -0.278854
H93   H     H_    0.843583 0.264361 0.664896 0.221454
H94   H     H_    0.778164 0.290719 0.630479 0.194697
C105  C     C_3   0.805767 0.008230 0.633549 -0.861546
H95   H     H_    0.774943 0.958991 0.597197 0.229287
H96   H     H_    0.795702 0.978522 0.677915 0.239449
H97   H     H_    0.840706 0.931633 0.630776 0.233508
O32   O     O_3   0.162839 0.426316 0.432088 -0.555417
C106  C     C_3   0.167723 0.236812 0.417925 0.154178
H98   H     H_    0.130876 0.163860 0.412553 0.127119
H99   H     H_    0.195360 0.166420 0.453986 0.123077
C107  C     C_3   0.186379 0.223934 0.358491 -0.276298
H100  H     H_    0.162690 0.313306 0.323960 0.219165
H101  H     H_    0.225682 0.275407 0.365567 0.182428
C108  C     C_3   0.184209 0.024946 0.334783 -0.868980
H102  H     H_    0.206251 0.930544 0.368905 0.237678
H103  H     H_    0.200041 0.019663 0.293106 0.236576
H104  H     H_    0.144658 0.976667 0.323618 0.228672
N9    N     N_2   0.553055 0.701909 0.383396 -0.505260
H105  H     H_    0.573685 0.587430 0.375637 0.248800
C109  C     C_3   0.503384 0.700544 0.345666 -0.519451
H106  H     H_    0.506044 0.709805 0.297272 0.176017
H107  H     H_    0.480475 0.817999 0.357154 0.203686
H108  H     H_    0.484095 0.569115 0.353043 0.219767
N10   N     N_2   0.403059 0.324553 0.564261 -0.538962
H109  H     H_    0.439348 0.370309 0.567318 0.281844
C110  C     C_3   0.368317 0.373898 0.509323 -0.513574
H110  H     H_    0.373159 0.522743 0.498850 0.202826
H111  H     H_    0.329022 0.352246 0.514869 0.211980
H112  H     H_    0.375287 0.288004 0.470965 0.214381
N11   N     N_2   0.946939 0.201878 0.116600 -0.505331
H113  H     H_    0.926305 0.087410 0.124360 0.248817
C111  C     C_3   0.996614 0.200475 0.154320 -0.519490
H114  H     H_    0.993961 0.209743 0.202716 0.176036
H115  H     H_    0.019528 0.317908 0.142827 0.203697
H116  H     H_    0.015892 0.069027 0.146938 0.219779
N12   N     N_2   0.096930 0.824536 0.935735 -0.538963
H117  H     H_    0.060637 0.870214 0.932710 0.281830
C112  C     C_3   0.131694 0.873984 0.990645 -0.513598
H118  H     H_    0.126840 0.022828 0.001109 0.202808
H119  H     H_    0.170983 0.852398 0.985065 0.211998
H120  H     H_    0.124761 0.788107 0.029024 0.214414

loop_
_geom_bond_atom_site_label_1
_geom_bond_atom_site_label_2
_ccdc_geom_bond_type
O17   V3    S    
C111  H116  S    
C15   O31   S    
C94   H70   S    
O1    C5    A    
C84   H46   S    
N4    C71   A    
C51   C55   A    
O19   V1    S    
C9    C21   A    
O25   C85   S    
C17   O26   S    
O3    C7    A    
C104  H93   S    
C10   C18   A    
C77   C78   S    
C56   C60   A    
C48   H12   S    
C109  H108  S    
C11   C23   A    
O30   C100  S    
C96   H76   S    
C101  H87   S    
O31   C103  S    
C25   C33   A    
N10   H109  S    
C5    C12   S    
C86   H51   S    
C89   H58   S    
C98   C99   S    
O7    C3    A    
C6    C11   S    
C76   H29   S    
C35   C40   A    
C26   C30   A    
C47   C51   A    
C73   H21   S    
C36   C39   A    
C40   C44   A    
C63   C67   A    
N12   C112  S    
C52   N12   S    
C77   H31   S    
C14   C18   A    
C20   O27   S    
C108  H102  S    
O4    C8    A    
C59   H15   S    
C106  C107  S    
C53   C70   S    
C58   H14   S    
C107  H101  S    
C78   H32   S    
C103  H92   S    
C88   H56   S    
O1    V3    S    
C100  C101  S    
O13   V1    S    
C103  H91   S    
O2    V4    S    
N9    H105  S    
N6    C70   A    
C80   C81   S    
C14   O30   S    
O3    V1    S    
N5    C69   A    
C101  H86   S    
C90   H62   S    
C28   C36   A    
O23   C79   S    
C100  H85   S    
N2    C69   A    
C1    O15   A    
C87   H55   S    
C15   C31   A    
N1    C70   A    
C52   C56   A    
C2    O16   A    
C75   H25   S    
C22   H1    S    
O2    C6    A    
C105  H96   S    
C80   H37   S    
C82   H43   S    
C12   C24   A    
C93   H67   S    
C10   C22   A    
C45   H9    S    
C104  C105  S    
C11   C19   A    
C110  H110  S    
C16   C20   A    
O5    V1    S    
C112  H119  S    
C74   C75   S    
C13   C29   A    
O11   C7    A    
C46   C50   A    
C34   C37   A    
C87   H54   S    
C111  H114  S    
O15   V3    S    
C35   C36   A    
O12   C8    A    
C112  H118  S    
C107  C108  S    
C3    C66   S    
C13   C17   A    
C84   H47   S    
O10   V2    S    
C44   O24   S    
C13   O29   S    
C4    C65   S    
C76   C77   S    
C59   C63   A    
C54   C58   A    
C83   H45   S    
C106  H99   S    
C61   H17   S    
C93   H68   S    
C94   C95   S    
C39   C43   A    
C16   O32   S    
C105  H97   S    
O7    V3    S    
O28   C94   S    
C38   C42   A    
O27   C91   S    
C26   C34   A    
C91   C92   S    
C100  H84   S    
C33   C38   A    
C79   C80   S    
C77   H30   S    
C81   H41   S    
C104  H94   S    
C50   C54   A    
C88   H57   S    
C57   C61   A    
C64   C68   A    
C49   C53   A    
C97   H77   S    
C101  C102  S    
C15   C19   A    
C73   C74   S    
C16   C32   A    
C107  H100  S    
O29   C97   S    
C55   C59   A    
N4    N8    A    
N9    C109  S    
C41   O21   S    
O5    C1    A    
C18   O25   S    
C37   C41   A    
C83   C84   S    
C94   H71   S    
C32   C44   A    
C46   H10   S    
C57   H13   S    
C31   C43   A    
C82   H42   S    
C14   C30   A    
C21   C25   A    
O8    C4    A    
C7    C10   S    
C48   C68   A    
C19   O28   S    
C96   H74   S    
C40   H8    S    
C82   C83   S    
O9    C5    A    
C2    C67   S    
C102  H89   S    
C79   H35   S    
C45   C65   A    
C110  H111  S    
C81   H39   S    
N2    N6    A    
C86   H52   S    
C42   O22   S    
C99   H83   S    
C87   H53   S    
O6    V2    S    
N12   H117  S    
C84   H48   S    
N3    N7    A    
C55   C72   S    
N11   C111  S    
C43   O23   S    
O24   C82   S    
C54   C69   S    
N1    N5    A    
C56   C71   S    
C27   C35   A    
C78   H34   S    
C24   H3    S    
C109  H106  S    
C111  H115  S    
C50   N10   S    
C64   H20   S    
C29   C41   A    
O26   C88   S    
C108  H103  S    
C83   H44   S    
O16   V4    S    
C88   C89   S    
O9    V1    S    
C78   H33   S    
O32   C106  S    
C3    O13   A    
C73   H22   S    
N3    C72   A    
C105  H95   S    
C21   H2    S    
C95   H72   S    
C81   H40   S    
C79   H36   S    
O22   C76   S    
C109  H107  S    
C97   C98   S    
O6    C2    A    
C108  H104  S    
C23   C27   A    
C106  H98   S    
C89   C90   S    
C86   C87   S    
O11   V3    S    
C30   C42   A    
N7    C71   A    
O12   V4    S    
C76   H28   S    
C22   C26   A    
C8    C9    S    
C46   C66   A    
C103  C104  S    
C47   C67   A    
C99   H82   S    
C37   H5    S    
C91   H63   S    
O10   C6    A    
C60   C64   A    
C98   H79   S    
C97   H78   S    
C9    C17   A    
C90   H60   S    
C48   C52   A    
N10   C110  S    
C51   N11   S    
C62   C66   A    
C47   H11   S    
C95   C96   S    
C33   C34   A    
O21   C73   S    
O8    V4    S    
C39   H7    S    
C1    C68   S    
C75   H27   S    
C25   C29   A    
C60   H16   S    
O20   V2    S    
C96   H75   S    
C89   H59   S    
C99   H81   S    
C62   H18   S    
C93   H69   S    
C27   C31   A    
C80   H38   S    
C53   C57   A    
C98   H80   S    
C110  H112  S    
C23   H4    S    
C90   H61   S    
C12   C20   A    
C102  H90   S    
O14   V2    S    
C45   C49   A    
C92   H65   S    
C92   C93   S    
N8    C72   A    
C74   H24   S    
C24   C28   A    
C58   C62   A    
C75   H26   S    
C85   H49   S    
C112  H120  S    
C4    O14   A    
C102  H88   S    
C74   H23   S    
C38   H6    S    
C63   H19   S    
C85   H50   S    
C49   N9    S    
N11   H113  S    
C95   H73   S    
C61   C65   A    
O18   V4    S    
O4    V2    S    
C28   C32   A    
C91   H64   S    
C92   H66   S    
C85   C86   S    
