data_str_m4_o17_o17_f0_acs.sym.121
_audit_creation_date              2012-12-11T14:30:00-0500
_audit_creation_method            fapswitch 2.2
_symmetry_space_group_name_H-M    P1
_symmetry_Int_Tables_number       1
_space_group_crystal_system       triclinic
_cell_length_a                    12.603119
_cell_length_b                    12.603075
_cell_length_c                    26.932327
_cell_angle_alpha                 89.999263
_cell_angle_beta                  90.000513
_cell_angle_gamma                 120.000249
_cell_volume                      3704.74208156

loop_
_atom_site_label
_atom_site_type_symbol
_atom_type_description
_atom_site_fract_x
_atom_site_fract_y
_atom_site_fract_z
_atom_type_partial_charge
C1    C     C_R   0.556302 0.457819 0.821696 0.567168
C2    C     C_R   0.901518 0.443699 0.678304 0.567118
C3    C     C_R   0.542180 0.098481 0.821696 0.567154
C4    C     C_R   0.556300 0.457820 0.678305 0.567176
C5    C     C_R   0.901517 0.443697 0.821696 0.567100
C6    C     C_R   0.542179 0.098481 0.678305 0.567164
C7    C     C_R   0.457820 0.556301 0.321696 0.567176
C8    C     C_R   0.443700 0.901520 0.178305 0.567228
C9    C     C_R   0.098480 0.542179 0.321695 0.567127
C10   C     C_R   0.457819 0.556301 0.178305 0.567173
C11   C     C_R   0.443699 0.901518 0.321696 0.567146
C12   C     C_R   0.098479 0.542181 0.178305 0.567143
C13   C     C_R   0.996827 0.499679 0.973816 -0.002446
C14   C     C_R   0.502836 0.003145 0.526189 -0.002450
C15   C     C_R   0.500316 0.497155 0.973814 -0.002445
C16   C     C_R   0.996840 0.499686 0.526185 -0.002445
C17   C     C_R   0.502851 0.003187 0.973816 -0.002447
C18   C     C_R   0.500306 0.497166 0.526189 -0.002449
C19   C     C_R   0.499685 0.996839 0.473814 -0.002445
C20   C     C_R   0.003135 0.502836 0.026191 -0.002450
C21   C     C_R   0.497154 0.500319 0.473814 -0.002449
C22   C     C_R   0.499700 0.996883 0.026191 -0.002449
C23   C     C_R   0.003148 0.502839 0.473811 -0.002449
C24   C     C_R   0.497160 0.500309 0.026188 -0.002446
C25   C     C_R   0.992685 0.690671 0.974249 -0.117688
C26   C     C_R   0.697995 0.007338 0.525752 -0.117692
C27   C     C_R   0.309339 0.302004 0.974251 -0.117687
C28   C     C_R   0.992641 0.690649 0.525745 -0.117698
C29   C     C_R   0.697987 0.007333 0.974252 -0.117694
C30   C     C_R   0.309338 0.302005 0.525751 -0.117687
C31   C     C_R   0.690650 0.992645 0.474255 -0.117689
C32   C     C_R   0.007381 0.698022 0.025746 -0.117690
C33   C     C_R   0.301993 0.309352 0.474253 -0.117690
C34   C     C_R   0.690643 0.992643 0.025749 -0.117695
C35   C     C_R   0.007334 0.697996 0.474248 -0.117694
C36   C     C_R   0.301989 0.309352 0.025748 -0.117703
C37   C     C_R   0.967633 0.581051 0.896416 0.356257
C38   C     C_R   0.613416 0.032364 0.603586 0.356239
C39   C     C_R   0.418950 0.386574 0.896416 0.356268
C40   C     C_R   0.967619 0.581048 0.603582 0.356241
C41   C     C_R   0.613413 0.032365 0.896416 0.356257
C42   C     C_R   0.418944 0.386577 0.603585 0.356258
C43   C     C_R   0.581049 0.967620 0.396418 0.356251
C44   C     C_R   0.032390 0.613438 0.103584 0.356218
C45   C     C_R   0.386572 0.418954 0.396417 0.356259
C46   C     C_R   0.581051 0.967629 0.103585 0.356217
C47   C     C_R   0.032366 0.613419 0.396413 0.356245
C48   C     C_R   0.386565 0.418951 0.103584 0.356209
C49   C     C_R   0.034869 0.517761 0.129625 -0.002195
C50   C     C_R   0.482880 0.965120 0.370378 -0.002196
C51   C     C_R   0.482238 0.517115 0.129623 -0.002208
C52   C     C_R   0.034874 0.517753 0.370376 -0.002214
C53   C     C_R   0.482890 0.965138 0.129625 -0.002158
C54   C     C_R   0.482242 0.517121 0.370379 -0.002174
C55   C     C_R   0.517752 0.034872 0.629623 -0.002195
C56   C     C_R   0.965112 0.482870 0.870380 -0.002214
C57   C     C_R   0.517114 0.482243 0.629624 -0.002173
C58   C     C_R   0.517753 0.034882 0.870379 -0.002190
C59   C     C_R   0.965118 0.482879 0.629621 -0.002205
C60   C     C_R   0.517122 0.482239 0.870379 -0.002174
C61   C     C_R   0.987768 0.592195 0.947861 0.028973
C62   C     C_R   0.604423 0.012229 0.552141 0.028958
C63   C     C_R   0.407807 0.395571 0.947861 0.028984
C64   C     C_R   0.987753 0.592189 0.552137 0.028967
C65   C     C_R   0.604425 0.012243 0.947863 0.028959
C66   C     C_R   0.407801 0.395576 0.552141 0.028973
C67   C     C_R   0.592189 0.987755 0.447863 0.028977
C68   C     C_R   0.012248 0.604440 0.052140 0.028963
C69   C     C_R   0.395566 0.407814 0.447862 0.028965
C70   C     C_R   0.592193 0.987774 0.052141 0.028961
C71   C     C_R   0.012230 0.604425 0.447858 0.028960
C72   C     C_R   0.395564 0.407809 0.052139 0.028933
C73   C     C_R   0.999593 0.405382 0.895246 -0.003103
C74   C     C_R   0.405769 0.000362 0.604762 -0.003116
C75   C     C_R   0.594599 0.594219 0.895240 -0.003125
C76   C     C_R   0.999623 0.405405 0.604759 -0.003105
C77   C     C_R   0.405780 0.000397 0.895243 -0.003114
C78   C     C_R   0.594582 0.594229 0.604764 -0.003123
C79   C     C_R   0.405408 0.999627 0.395240 -0.003113
C80   C     C_R   0.000330 0.405767 0.104767 -0.003106
C81   C     C_R   0.594226 0.594594 0.395240 -0.003125
C82   C     C_R   0.405433 0.999677 0.104769 -0.003151
C83   C     C_R   0.000367 0.405772 0.395239 -0.003098
C84   C     C_R   0.594226 0.594580 0.104764 -0.003119
C85   C     C_R   0.001174 0.404830 0.947541 -0.019561
C86   C     C_R   0.403629 0.998774 0.552466 -0.019570
C87   C     C_R   0.595157 0.596358 0.947536 -0.019571
C88   C     C_R   0.001212 0.404852 0.552465 -0.019558
C89   C     C_R   0.403652 0.998832 0.947538 -0.019568
C90   C     C_R   0.595141 0.596372 0.552468 -0.019568
C91   C     C_R   0.404851 0.001210 0.447535 -0.019564
C92   C     C_R   0.998739 0.403620 0.052472 -0.019563
C93   C     C_R   0.596363 0.595153 0.447536 -0.019568
C94   C     C_R   0.404877 0.001274 0.052472 -0.019576
C95   C     C_R   0.998781 0.403633 0.447534 -0.019561
C96   C     C_R   0.596370 0.595138 0.052468 -0.019565
C97   C     C_R   0.996179 0.306702 0.025676 -0.113226
C98   C     C_R   0.310479 0.003738 0.474332 -0.113243
C99   C     C_R   0.693278 0.689503 0.025670 -0.113244
C100  C     C_R   0.996253 0.306733 0.474333 -0.113238
C101  C     C_R   0.310524 0.003837 0.025672 -0.113242
C102  C     C_R   0.693264 0.689523 0.474335 -0.113250
C103  C     C_R   0.306728 0.996240 0.525667 -0.113238
C104  C     C_R   0.003675 0.310446 0.974340 -0.113249
C105  C     C_R   0.689513 0.693273 0.525670 -0.113248
C106  C     C_R   0.306769 0.996333 0.974337 -0.113268
C107  C     C_R   0.003746 0.310482 0.525668 -0.113241
C108  C     C_R   0.689533 0.693252 0.974335 -0.113248
Cr1   Cr    Cr6+3 0.487630 0.241180 0.750000 1.175580
Cr2   Cr    Cr6+3 0.753550 0.512370 0.750000 1.175579
Cr3   Cr    Cr6+3 0.758820 0.246450 0.750000 1.175609
Cr4   Cr    Cr6+3 0.241180 0.487630 0.250000 1.175605
Cr5   Cr    Cr6+3 0.512370 0.753550 0.250000 1.175588
Cr6   Cr    Cr6+3 0.246450 0.758820 0.250000 1.175577
H1    H     H_    0.013765 0.776635 0.044872 0.186632
H2    H     H_    0.762891 0.986285 0.455127 0.186610
H3    H     H_    0.223383 0.237115 0.044875 0.186632
H4    H     H_    0.013692 0.776595 0.455119 0.186619
H5    H     H_    0.762876 0.986264 0.044876 0.186618
H6    H     H_    0.223391 0.237111 0.455125 0.186605
H7    H     H_    0.776597 0.013700 0.544880 0.186621
H8    H     H_    0.986344 0.762921 0.955119 0.186616
H9    H     H_    0.237095 0.223404 0.544879 0.186609
H10   H     H_    0.776578 0.013672 0.955122 0.186614
H11   H     H_    0.986278 0.762889 0.544873 0.186611
H12   H     H_    0.237094 0.223407 0.955122 0.186596
H13   H     H_    0.993357 0.228874 0.043667 0.161797
H14   H     H_    0.235463 0.006541 0.456340 0.161769
H15   H     H_    0.771101 0.764517 0.043660 0.161807
H16   H     H_    0.993458 0.228916 0.456343 0.161764
H17   H     H_    0.235518 0.006667 0.043656 0.161869
H18   H     H_    0.771088 0.764539 0.456346 0.161799
H19   H     H_    0.228907 0.993435 0.543655 0.161799
H20   H     H_    0.006454 0.235416 0.956349 0.161727
H21   H     H_    0.764533 0.771093 0.543658 0.161809
H22   H     H_    0.228959 0.993550 0.956347 0.161784
H23   H     H_    0.006550 0.235467 0.543661 0.161750
H24   H     H_    0.764557 0.771068 0.956346 0.161802
O1    O     O_R   0.460870 0.120930 0.805240 -0.472304
O2    O     O_R   0.660060 0.539130 0.694760 -0.472288
O3    O     O_R   0.879070 0.339940 0.805240 -0.472309
O4    O     O_R   0.460870 0.120930 0.694760 -0.472296
O5    O     O_R   0.660060 0.539130 0.805240 -0.472301
O6    O     O_R   0.879070 0.339940 0.694760 -0.472298
O7    O     O_R   0.120930 0.460870 0.305240 -0.472301
O8    O     O_R   0.539130 0.660060 0.194760 -0.472282
O9    O     O_R   0.339940 0.879070 0.305240 -0.472288
O10   O     O_R   0.120930 0.460870 0.194760 -0.472285
O11   O     O_R   0.539130 0.660060 0.305240 -0.472294
O12   O     O_R   0.339940 0.879070 0.194760 -0.472275
O13   O     O_R   0.498910 0.350470 0.801870 -0.438827
O14   O     O_R   0.851560 0.501090 0.698130 -0.438825
O15   O     O_R   0.649530 0.148440 0.801870 -0.438814
O16   O     O_R   0.498910 0.350470 0.698130 -0.438829
O17   O     O_R   0.851560 0.501090 0.801870 -0.438827
O18   O     O_R   0.649530 0.148440 0.698130 -0.438809
O19   O     O_R   0.350470 0.498910 0.301870 -0.438822
O20   O     O_R   0.501090 0.851560 0.198130 -0.438833
O21   O     O_R   0.148440 0.649530 0.301870 -0.438819
O22   O     O_R   0.350470 0.498910 0.198130 -0.438817
O23   O     O_R   0.501090 0.851560 0.301870 -0.438834
O24   O     O_R   0.148440 0.649530 0.198130 -0.438841
O25   O     O_3   0.666667 0.333333 0.750000 -0.326311
O26   O     O_3   0.333333 0.666667 0.250000 -0.326313
F1    F     F_    0.054213 0.717024 0.127812 -0.588913
F2    F     F_    0.662831 0.945828 0.372188 -0.588901
F3    F     F_    0.282983 0.337179 0.127813 -0.588823
F4    F     F_    0.054153 0.716992 0.372180 -0.588850
F5    F     F_    0.662818 0.945808 0.127813 -0.588882
F6    F     F_    0.283005 0.337172 0.372184 -0.588880
F7    F     F_    0.716987 0.054154 0.627820 -0.588839
F8    F     F_    0.945861 0.662842 0.872182 -0.588897
F9    F     F_    0.337165 0.283002 0.627817 -0.588900
F10   F     F_    0.716964 0.054113 0.872180 -0.588837
F11   F     F_    0.945825 0.662827 0.627813 -0.588893
F12   F     F_    0.337172 0.283000 0.872185 -0.588917
C109  C     C_2   0.960788 0.291572 0.133854 0.625006
O27   O     O_2   0.017032 0.236019 0.131041 -0.427926
O28   O     O_R   0.862068 0.251859 0.166590 -0.649328
H25   H     H_    0.844172 0.174502 0.185024 0.376329
C110  C     C_2   0.330727 0.039145 0.366157 0.624968
O29   O     O_2   0.218923 0.982841 0.368961 -0.427920
O30   O     O_R   0.389719 0.137909 0.333434 -0.649284
H26   H     H_    0.330234 0.155778 0.315003 0.376328
C111  C     C_2   0.708422 0.669228 0.133851 0.625025
O31   O     O_2   0.763996 0.781024 0.131030 -0.427967
O32   O     O_R   0.748108 0.610214 0.166598 -0.649331
H27   H     H_    0.825478 0.669673 0.185027 0.376311
C112  C     C_2   0.960843 0.291574 0.366159 0.624996
O33   O     O_2   0.017136 0.236070 0.368960 -0.427934
O34   O     O_R   0.862071 0.251792 0.333448 -0.649322
H28   H     H_    0.844182 0.174427 0.315022 0.376353
C113  C     C_2   0.330793 0.039219 0.133865 0.625133
O35   O     O_2   0.219007 0.983111 0.130994 -0.428101
O36   O     O_R   0.389791 0.137746 0.166691 -0.649277
H29   H     H_    0.330330 0.155650 0.185125 0.376256
C114  C     C_2   0.708422 0.669256 0.366155 0.625022
O37   O     O_2   0.763990 0.781056 0.368980 -0.427987
O38   O     O_R   0.748106 0.610253 0.333398 -0.649293
H30   H     H_    0.825471 0.669722 0.314969 0.376320
C115  C     C_2   0.291574 0.960838 0.633844 0.625017
O39   O     O_2   0.236027 0.017087 0.631020 -0.427992
O40   O     O_R   0.251861 0.862132 0.666593 -0.649313
H31   H     H_    0.174494 0.844237 0.685016 0.376334
C116  C     C_2   0.039093 0.330681 0.866173 0.624904
O41   O     O_2   0.982713 0.218871 0.868957 -0.427860
O42   O     O_R   0.137945 0.389667 0.833487 -0.649300
H32   H     H_    0.155812 0.330171 0.815064 0.376377
C117  C     C_2   0.669236 0.708423 0.633851 0.625044
O43   O     O_2   0.781031 0.764003 0.631025 -0.428000
O44   O     O_R   0.610231 0.748097 0.666607 -0.649299
H33   H     H_    0.669694 0.825465 0.685036 0.376324
C118  C     C_2   0.291576 0.960858 0.866162 0.625012
O45   O     O_2   0.236038 0.017121 0.868973 -0.427967
O46   O     O_R   0.251843 0.862120 0.833430 -0.649305
H34   H     H_    0.174475 0.844220 0.815003 0.376344
C119  C     C_2   0.039140 0.330724 0.633839 0.624925
O47   O     O_2   0.982809 0.218916 0.631045 -0.427879
O48   O     O_R   0.137948 0.389726 0.666545 -0.649303
H35   H     H_    0.155826 0.330241 0.684973 0.376361
C120  C     C_2   0.669256 0.708417 0.866156 0.625043
O49   O     O_2   0.781052 0.763980 0.868975 -0.427992
O50   O     O_R   0.610251 0.748119 0.833412 -0.649284
H36   H     H_    0.669715 0.825490 0.814985 0.376341

loop_
_geom_bond_atom_site_label_1
_geom_bond_atom_site_label_2
_ccdc_geom_bond_type
C44   C49   A    
C14   C86   A    
C4    O16   A    
C41   F10   S    
C29   H10   S    
C80   C92   A    
C82   C94   A    
C18   C21   A    
C2    O6    A    
C115  O39   D    
C5    C56   S    
O50   H36   S    
C11   O23   A    
C6    C55   S    
C97   H13   S    
C8    O20   A    
C45   F6    S    
C37   F8    S    
C12   C49   S    
C77   C118  S    
C38   F7    S    
C116  O41   D    
C78   C90   A    
C31   C67   A    
C99   C108  A    
C20   C92   A    
C77   C89   A    
C104  H20   S    
Cr1   O13   S    
C102  H18   S    
Cr6   O9    S    
Cr2   O14   S    
C24   C96   A    
C44   C68   A    
C81   C114  S    
C27   H12   S    
C100  H16   S    
C98   H14   S    
C111  O32   S    
C9    O21   A    
C98   C103  A    
C14   C62   A    
C96   C99   A    
C3    O15   A    
Cr4   O7    S    
C102  C105  A    
C112  O34   S    
C84   C96   A    
C114  O38   S    
C82   C113  S    
C73   C116  S    
Cr2   O17   S    
C58   C77   A    
C7    O11   A    
C55   C74   A    
Cr6   O26   S    
C48   C51   A    
C87   C108  A    
C94   C101  A    
C109  O28   S    
C89   C106  A    
C42   C66   A    
C19   C67   A    
Cr1   O4    S    
C26   H7    S    
Cr5   O20   S    
C6    O4    A    
C25   H8    S    
C34   C70   A    
C79   C91   A    
C13   C20   A    
C33   C69   A    
C32   C68   A    
C25   C32   A    
C106  H22   S    
C35   C71   A    
C26   C31   A    
C91   C98   A    
C40   C59   A    
C50   C79   A    
C115  O40   S    
C84   C111  S    
C114  O37   D    
C9    C52   S    
C48   C72   A    
C86   C103  A    
C14   C19   A    
C42   C57   A    
C20   C68   A    
C92   C97   A    
C116  O42   S    
C2    O14   A    
Cr4   O26   S    
Cr4   O19   S    
C38   C55   A    
C45   C69   A    
O42   H32   S    
C18   C90   A    
Cr5   O11   S    
C17   C89   A    
C28   C35   A    
Cr1   O25   S    
C110  O30   S    
O48   H35   S    
C88   C107  A    
C99   H15   S    
C2    C59   S    
C41   C65   A    
C113  O36   S    
C119  O47   D    
C110  O29   D    
Cr5   O23   S    
C29   C34   A    
C22   C94   A    
C79   C110  S    
C21   C69   A    
C53   C82   A    
Cr5   O8    S    
C107  H23   S    
C52   C83   A    
C8    O12   A    
O46   H34   S    
O30   H26   S    
C120  O49   D    
C1    O5    A    
C23   C71   A    
C4    O2    A    
C81   C93   A    
C5    O3    A    
O44   H33   S    
C118  O45   D    
C76   C119  S    
C83   C95   A    
C117  O43   D    
Cr3   O25   S    
C112  O33   D    
C25   C61   A    
C74   C86   A    
C36   H3    S    
Cr3   O15   S    
C78   C117  S    
C73   C85   A    
C30   C66   A    
C85   C104  A    
C27   C63   A    
Cr3   O6    S    
C10   O8    A    
C29   C65   A    
C101  H17   S    
C75   C87   A    
C15   C24   A    
C45   C54   A    
C109  O27   D    
C16   C23   A    
O40   H31   S    
C1    C60   S    
C3    O1    A    
C47   C71   A    
C10   O22   A    
C31   H2    S    
C101  C106  A    
C28   H11   S    
C24   C72   A    
C15   C87   A    
Cr3   O18   S    
C43   F2    S    
C34   H5    S    
C76   C88   A    
C18   C66   A    
C100  C107  A    
C15   C63   A    
C56   C73   A    
Cr4   O22   S    
C30   C33   A    
C95   C100  A    
C93   C102  A    
C57   C78   A    
C83   C112  S    
C19   C91   A    
Cr1   O16   S    
C90   C105  A    
C39   F12   S    
C42   F9    S    
C8    C53   S    
C41   C58   A    
C40   F11   S    
C37   C61   A    
Cr2   O25   S    
C46   F5    S    
C43   C50   A    
C28   C64   A    
C47   C52   A    
C7    O19   A    
C74   C115  S    
C27   C36   A    
C119  O48   S    
C39   C63   A    
C60   C75   A    
C17   C65   A    
C17   C22   A    
C40   C64   A    
C49   C80   A    
C105  H21   S    
Cr1   O1    S    
C10   C51   S    
C80   C109  S    
C12   O10   A    
Cr2   O2    S    
C103  H19   S    
C118  O46   S    
O32   H27   S    
C120  O50   S    
C11   C50   S    
C5    O17   A    
Cr5   O26   S    
C108  H24   S    
C47   F4    S    
C11   O9    A    
C111  O31   D    
C48   F3    S    
C21   C93   A    
C39   C60   A    
C59   C76   A    
C46   C53   A    
C9    O7    A    
C117  O44   S    
C23   C95   A    
C1    O13   A    
C44   F1    S    
C32   H1    S    
C26   C62   A    
Cr2   O5    S    
O34   H28   S    
Cr6   O21   S    
C46   C70   A    
C97   C104  A    
Cr6   O24   S    
Cr3   O3    S    
C12   O24   A    
O36   H29   S    
C3    C58   S    
Cr4   O10   S    
O38   H30   S    
C13   C61   A    
C30   H9    S    
C75   C120  S    
C33   H6    S    
C43   C67   A    
C113  O35   D    
C13   C85   A    
C37   C56   A    
C16   C88   A    
O28   H25   S    
Cr6   O12   S    
C35   H4    S    
C16   C64   A    
C7    C54   S    
C51   C84   A    
C22   C70   A    
C54   C81   A    
C6    O18   A    
C36   C72   A    
C4    C57   S    
C38   C62   A    
