data_str_m2_o9_o18_f0_pcu.sym.220
_audit_creation_date              2012-12-10T19:45:44-0500
_audit_creation_method            fapswitch 2.2
_symmetry_space_group_name_H-M    P1
_symmetry_Int_Tables_number       1
_space_group_crystal_system       triclinic
_cell_length_a                    10.858589
_cell_length_b                    14.778108
_cell_length_c                    14.783909
_cell_angle_alpha                 64.171767
_cell_angle_beta                  104.647172
_cell_angle_gamma                 102.558102
_cell_volume                      2050.24776969

loop_
_atom_site_label
_atom_site_type_symbol
_atom_type_description
_atom_site_fract_x
_atom_site_fract_y
_atom_site_fract_z
_atom_type_partial_charge
C1    C     C_R   0.476079 0.120130 0.311227 0.821135
C2    C     C_R   0.489900 0.774390 0.966231 -0.273120
C3    C     C_R   0.431634 0.148978 0.124265 0.502407
C4    C     C_R   0.525101 0.844577 0.872535 0.494697
C5    C     C_R   0.445404 0.290619 0.170332 -0.239535
C6    C     C_R   0.498586 0.705906 0.820263 -0.255338
C7    C     C_R   0.418776 0.356979 0.066392 0.092059
C8    C     C_R   0.458834 0.635465 0.911499 0.081614
C9    C     C_R   0.409091 0.319328 0.991810 0.009526
C10   C     C_R   0.455941 0.671356 0.985295 0.027443
C11   C     C_R   0.412723 0.461840 0.034814 -0.081948
C12   C     C_R   0.521703 0.879746 0.688271 0.825650
C13   C     C_R   0.426125 0.529987 0.933269 -0.091658
C14   C     C_R   0.401249 0.488965 0.858289 0.476201
C15   C     C_R   0.388166 0.500949 0.099549 0.465705
C16   C     C_R   0.263283 0.998911 0.502948 0.787823
C17   C     C_R   0.736686 0.000927 0.497144 0.789146
C18   C     C_R   0.394653 0.384826 0.888688 -0.262774
C19   C     C_R   0.415567 0.604436 0.076518 -0.278135
C20   C     C_R   0.700280 0.270955 0.683395 -0.113392
C21   C     C_R   0.289590 0.721405 0.326018 -0.122208
C22   C     C_R   0.677066 0.197715 0.643646 0.043300
C23   C     C_R   0.869951 0.000554 0.495070 -0.071084
C24   C     C_R   0.318282 0.798867 0.360224 0.023724
C25   C     C_R   0.517308 0.286173 0.509086 0.086276
C26   C     C_R   0.480797 0.712699 0.494429 0.128432
C27   C     C_R   0.547510 0.369823 0.538394 -0.069120
C28   C     C_R   0.447491 0.626290 0.469899 -0.061967
C29   C     C_R   0.631267 0.355661 0.633026 0.102877
C30   C     C_R   0.359617 0.637351 0.377487 0.087789
C31   C     C_R   0.491648 0.463181 0.482242 0.051209
C32   C     C_R   0.503673 0.532811 0.527756 0.079947
C33   C     C_R   0.567792 0.504806 0.629895 -0.206957
C34   C     C_R   0.129867 0.998774 0.505158 -0.071453
C35   C     C_R   0.427993 0.490991 0.380602 -0.226023
C36   C     C_R   0.637124 0.422441 0.678612 -0.212075
C37   C     C_R   0.352012 0.568921 0.333919 -0.187629
C38   C     C_R   0.342334 0.097936 0.764022 -0.095257
C39   C     C_R   0.655293 0.889016 0.243868 -0.105489
C40   C     C_R   0.261463 0.048411 0.705037 -0.083806
C41   C     C_R   0.734801 0.942190 0.299915 -0.072368
C42   C     C_R   0.184775 0.103796 0.612781 0.115904
C43   C     C_R   0.815169 0.890711 0.391777 0.112997
C44   C     C_R   0.188208 0.208640 0.581901 -0.148245
C45   C     C_R   0.906483 0.946794 0.448631 0.008239
C46   C     C_R   0.815915 0.785878 0.425566 -0.146220
C47   C     C_R   0.271373 0.257980 0.640074 -0.138204
C48   C     C_R   0.734820 0.732957 0.370050 -0.135908
C49   C     C_R   0.349226 0.202664 0.730587 -0.136274
C50   C     C_R   0.654411 0.784504 0.279280 -0.138196
C51   C     C_R   0.963769 0.052355 0.545666 -0.236897
C52   C     C_R   0.036102 0.946870 0.454634 -0.239915
C53   C     C_3   0.247002 0.564513 0.725559 -0.320962
C54   C     C_3   0.192636 0.434562 0.143253 -0.300069
C55   C     C_1   0.595244 0.722133 0.566341 0.319533
C56   C     C_R   0.093276 0.051505 0.552484 0.007888
C57   C     C_1   0.402528 0.276289 0.437718 0.330693
C58   C     C_1   0.793534 0.256343 0.776230 0.178121
C59   C     C_1   0.190640 0.731366 0.237072 0.166202
C60   C     C_3   0.646414 0.964759 0.930092 -0.350716
C61   C     C_3   0.341359 0.002633 0.099848 -0.349886
C62   C     C_R   0.452177 0.187328 0.200301 -0.181501
C63   C     C_R   0.519371 0.810125 0.796312 -0.174982
C64   C     C_R   0.414343 0.216577 0.020651 -0.258903
Cu1   Cu    Cu3+1 0.466270 0.918260 0.475690 0.972502
Cu2   Cu    Cu3+1 0.533730 0.081740 0.524310 0.970878
H1    H     H_    0.414750 0.240661 0.775126 0.125778
H2    H     H_    0.438446 0.454263 0.335075 0.202045
H3    H     H_    0.398858 0.055361 0.836293 0.168887
H4    H     H_    0.595411 0.928783 0.172249 0.165138
H5    H     H_    0.257269 0.967112 0.731717 0.115044
H6    H     H_    0.735089 0.023317 0.271230 0.121403
H7    H     H_    0.127778 0.252242 0.512068 0.141056
H8    H     H_    0.878710 0.745108 0.495336 0.139015
H9    H     H_    0.275715 0.339053 0.614881 0.151321
H10   H     H_    0.734580 0.652039 0.397273 0.143818
H11   H     H_    0.936451 0.091547 0.583500 0.160635
H12   H     H_    0.592131 0.743623 0.235993 0.130153
H13   H     H_    0.063549 0.907513 0.417027 0.160048
H14   H     H_    0.379206 0.355681 0.830561 0.157567
H15   H     H_    0.403203 0.632882 0.129329 0.148618
H16   H     H_    0.515437 0.681383 0.766332 0.231200
H17   H     H_    0.466756 0.319534 0.228949 0.213486
H18   H     H_    0.225239 0.607357 0.764470 0.170564
H19   H     H_    0.182078 0.491906 0.740816 0.170071
H20   H     H_    0.227598 0.611002 0.642117 0.194059
H21   H     H_    0.164859 0.397144 0.088740 0.172335
H22   H     H_    0.159610 0.510901 0.106912 0.161465
H23   H     H_    0.408574 0.189674 0.962170 0.136911
H24   H     H_    0.142219 0.388044 0.208559 0.203542
H25   H     H_    0.598633 0.957607 0.991385 0.156478
H26   H     H_    0.693512 0.043773 0.898714 0.204086
H27   H     H_    0.723171 0.914125 0.961773 0.173740
H28   H     H_    0.246803 0.023014 0.096329 0.172813
H29   H     H_    0.338074 0.919372 0.141189 0.191913
H30   H     H_    0.358034 0.021351 0.022252 0.156561
H31   H     H_    0.485569 0.800324 0.023388 0.135456
H32   H     H_    0.690338 0.408510 0.755074 0.161265
H33   H     H_    0.293847 0.579413 0.259816 0.172789
H34   H     H_    0.267496 0.864941 0.320747 0.142828
H35   H     H_    0.727297 0.131332 0.682548 0.145329
H36   H     H_    0.563934 0.544166 0.675311 0.190125
N1    N     N_R   0.584450 0.204570 0.560790 -0.207182
N2    N     N_R   0.415550 0.795430 0.439210 -0.206159
N3    N     N_1   0.687398 0.729083 0.624189 -0.328086
N4    N     N_1   0.309821 0.268427 0.380797 -0.280720
N5    N     N_1   0.868242 0.244622 0.850534 -0.302439
N6    N     N_1   0.111496 0.739410 0.165841 -0.297851
O1    O     O_R   0.455540 0.022090 0.338120 -0.531457
O2    O     O_3   0.325949 0.440072 0.180399 -0.613979
O3    O     O_3   0.555097 0.947343 0.850609 -0.587390
O4    O     O_3   0.443649 0.048017 0.152983 -0.588369
O5    O     O_R   0.544460 0.977910 0.661880 -0.533307
O6    O     O_R   0.512510 0.160150 0.379180 -0.594201
O7    O     O_R   0.487490 0.839850 0.620820 -0.587103
O8    O     O_R   0.291160 0.930970 0.479480 -0.599529
O9    O     O_R   0.708840 0.069030 0.520520 -0.598071
O10   O     O_R   0.348130 0.069020 0.520540 -0.567664
O11   O     O_R   0.651870 0.930980 0.479460 -0.567380
O12   O     O_3   0.376814 0.547675 0.754607 -0.618352

loop_
_geom_bond_atom_site_label_1
_geom_bond_atom_site_label_2
_ccdc_geom_bond_type
C54   H22   S    
C34   C56   A    
C8    C13   A    
C6    H16   S    
C40   H5    S    
C27   C29   A    
C9    C64   A    
C41   C43   A    
C48   H10   S    
C37   H33   S    
C26   C55   S    
C61   H30   S    
C39   C41   A    
C38   C49   A    
C3    C64   A    
C7    C11   A    
C4    C63   A    
C17   C23   S    
C22   H35   S    
C25   C57   S    
C55   N3    T    
C53   H18   S    
C23   C45   A    
C35   C37   A    
C21   C59   S    
C54   H21   S    
C5    H17   S    
C60   H25   S    
C50   H12   S    
C33   C36   A    
C54   O2    S    
C58   N5    T    
C14   C18   A    
C1    O1    A    
C15   C19   A    
C11   C15   A    
C2    H31   S    
Cu2   O9    S    
C53   H20   S    
C52   H13   S    
Cu2   O6    S    
C3    O4    S    
C44   C47   A    
C17   O9    A    
C12   O7    A    
C16   C34   S    
C60   H27   S    
C40   C42   A    
C57   N4    T    
C38   H3    S    
C13   C14   A    
C1    C62   S    
Cu1   O7    S    
C15   O2    S    
C42   C44   A    
C64   H23   S    
C16   O8    A    
C20   C29   A    
C60   H26   S    
C46   C48   A    
C53   O12   S    
C27   C31   A    
C33   H36   S    
C28   C32   A    
C47   C49   A    
C5    C7    A    
C12   C63   S    
C61   H28   S    
C25   N1    A    
C6    C8    A    
C45   C52   A    
C22   N1    A    
C30   C37   A    
C24   N2    A    
C6    C63   A    
C2    C4    A    
C51   H11   S    
C16   O10   A    
C23   C51   A    
C31   C32   A    
C29   C36   A    
C10   C19   A    
Cu1   O11   S    
C42   C56   S    
C43   C45   S    
Cu1   O1    S    
C41   H6    S    
C8    C10   A    
C4    O3    S    
C20   C22   A    
Cu2   O5    S    
C14   O12   S    
Cu1   O8    S    
C31   C35   A    
C1    O6    A    
C20   C58   S    
C2    C10   A    
C46   H8    S    
C12   O5    A    
C3    C62   A    
C7    C9    A    
C49   H1    S    
C24   H34   S    
C26   C28   A    
Cu2   N1    S    
C51   C56   A    
C36   H32   S    
C61   H29   S    
C54   H24   S    
C25   C27   A    
C21   C30   A    
C34   C52   A    
C59   N6    T    
C32   C33   A    
C28   C30   A    
C47   H9    S    
C60   O3    S    
C38   C40   A    
C11   C13   A    
C35   H2    S    
C48   C50   A    
C39   H4    S    
C5    C62   A    
C44   H7    S    
C43   C46   A    
C26   N2    A    
C17   O11   A    
C9    C18   A    
C39   C50   A    
C18   H14   S    
Cu1   Cu2   S    
Cu2   O10   S    
C21   C24   A    
C53   H19   S    
Cu1   N2    S    
C19   H15   S    
C61   O4    S    
