data_str_m2_o10_o26_f0_pcu.sym.119
_audit_creation_date              2012-12-10T16:48:44-0500
_audit_creation_method            fapswitch 2.2
_symmetry_space_group_name_H-M    P1
_symmetry_Int_Tables_number       1
_space_group_crystal_system       triclinic
_cell_length_a                    17.231395
_cell_length_b                    8.668181
_cell_length_c                    7.440189
_cell_angle_alpha                 103.004998
_cell_angle_beta                  89.448779
_cell_angle_gamma                 93.105691
_cell_volume                      1081.20420266

loop_
_atom_site_label
_atom_site_type_symbol
_atom_type_description
_atom_site_fract_x
_atom_site_fract_y
_atom_site_fract_z
_atom_type_partial_charge
C1    C     C_R   0.498347 0.199798 0.453429 0.878786
C2    C     C_R   0.501672 0.800203 0.546567 0.878630
C3    C     C_2   0.498615 0.031928 0.427121 -0.372970
C4    C     C_2   0.501432 0.968075 0.572868 -0.372947
C5    C     C_R   0.351352 0.497358 0.526819 0.778143
C6    C     C_R   0.648650 0.502670 0.473189 0.778099
C7    C     C_R   0.267528 0.494461 0.548677 -0.029700
C8    C     C_R   0.732483 0.505696 0.451381 -0.029866
C9    C     C_R   0.219321 0.364737 0.454633 0.078176
C10   C     C_R   0.780659 0.635270 0.545921 0.078231
C11   C     C_R   0.138788 0.375925 0.467594 -0.170587
C12   C     C_R   0.861193 0.624146 0.533011 -0.170561
C13   C     C_R   0.106534 0.513210 0.570959 0.156770
C14   C     C_R   0.893489 0.487084 0.429147 0.156904
C15   C     C_R   0.154841 0.636127 0.672373 -0.169225
C16   C     C_R   0.845220 0.364352 0.327187 -0.169309
C17   C     C_R   0.235021 0.626917 0.661048 -0.229027
C18   C     C_R   0.765035 0.373483 0.338510 -0.229051
C19   C     C_2   0.022439 0.531170 0.573944 -0.223777
C20   C     C_2   0.977588 0.469139 0.426190 -0.223698
Cu1   Cu    Cu3+1 0.508700 0.517250 0.683000 0.937511
Cu2   Cu    Cu3+1 0.491300 0.482750 0.317000 0.937545
H1    H     H_    0.728224 0.274825 0.264132 0.142533
H2    H     H_    0.271862 0.725695 0.735010 0.142417
H3    H     H_    0.002394 0.398874 0.301584 0.145722
H4    H     H_    0.997658 0.601438 0.698573 0.145700
H5    H     H_    0.130535 0.741583 0.755220 0.127364
H6    H     H_    0.869555 0.259093 0.243889 0.127293
H7    H     H_    0.898701 0.723560 0.602391 0.121773
H8    H     H_    0.101241 0.276439 0.398587 0.121862
H9    H     H_    0.496206 0.960525 0.286729 0.175396
H10   H     H_    0.503842 0.039479 0.713258 0.175429
H11   H     H_    0.439156 0.379173 0.958785 0.221782
H12   H     H_    0.560844 0.620837 0.041216 0.221769
N1    N     N_2   0.478180 0.456750 0.041980 -0.215788
N2    N     N_2   0.521820 0.543250 0.958020 -0.215803
O1    O     O_R   0.505650 0.286040 0.618880 -0.584046
O2    O     O_R   0.494350 0.713960 0.381120 -0.584010
O3    O     O_R   0.490960 0.256910 0.309800 -0.588603
O4    O     O_R   0.509040 0.743090 0.690200 -0.588587
O5    O     O_R   0.394600 0.516230 0.672450 -0.589639
O6    O     O_R   0.605400 0.483770 0.327550 -0.589642
O7    O     O_R   0.379910 0.487100 0.363380 -0.581402
O8    O     O_R   0.620090 0.512900 0.636620 -0.581472
C21   C     C_3   0.251196 0.211717 0.346219 -0.432887
C22   C     C_3   0.279441 0.111521 0.475914 -0.358669
C23   C     C_3   0.300486 0.947387 0.368675 -0.802467
H13   H     H_    0.247987 0.879927 0.300688 0.249834
H14   H     H_    0.344726 0.957789 0.261941 0.254601
H15   H     H_    0.324463 0.880633 0.464646 0.240252
H16   H     H_    0.331227 0.172207 0.554269 0.212789
H17   H     H_    0.232975 0.096806 0.576411 0.220698
H18   H     H_    0.205164 0.141228 0.254522 0.193674
H19   H     H_    0.298907 0.236490 0.253872 0.213009
C24   C     C_3   0.748753 0.788160 0.654632 -0.432726
C25   C     C_3   0.720594 0.888660 0.525170 -0.358547
C26   C     C_3   0.699612 0.052741 0.632696 -0.802409
H20   H     H_    0.655271 0.042287 0.739219 0.254494
H21   H     H_    0.752096 0.119985 0.700979 0.249740
H22   H     H_    0.675769 0.119759 0.536811 0.240389
H23   H     H_    0.767103 0.903431 0.424785 0.220707
H24   H     H_    0.668804 0.828176 0.446682 0.212711
H25   H     H_    0.700995 0.763234 0.746800 0.213081
H26   H     H_    0.794752 0.858483 0.746569 0.193600

loop_
_geom_bond_atom_site_label_1
_geom_bond_atom_site_label_2
_ccdc_geom_bond_type
C25   H23   S    
C16   H6    S    
C2    C4    S    
C24   C25   S    
C9    C21   S    
C10   C24   S    
C22   H17   S    
C12   H7    S    
C4    H10   S    
Cu1   O8    S    
C11   C13   A    
C2    O2    A    
C15   H5    S    
C19   C20   D    
C1    O1    A    
C25   H24   S    
C24   H26   S    
C5    O7    A    
C21   H18   S    
C23   H14   S    
Cu1   N2    S    
C6    O8    A    
C21   C22   S    
C3    H9    S    
Cu2   N1    S    
C9    C11   A    
C26   H20   S    
Cu2   O6    S    
Cu1   O4    S    
C10   C12   A    
Cu1   O5    S    
Cu2   O3    S    
C6    C8    S    
C8    C10   A    
H11   N1    S    
C12   C14   A    
C21   H19   S    
Cu2   O7    S    
C23   H15   S    
H12   N2    S    
C13   C15   A    
C14   C16   A    
C26   H21   S    
C17   H2    S    
C20   H3    S    
C13   C19   S    
C18   H1    S    
Cu2   O2    S    
C23   H13   S    
C2    O4    A    
Cu1   O1    S    
C25   C26   S    
C14   C20   S    
C7    C9    A    
C6    O6    A    
C5    C7    S    
C19   H4    S    
C1    O3    A    
C22   C23   S    
C26   H22   S    
C5    O5    A    
C1    C3    S    
Cu1   Cu2   S    
C15   C17   A    
C22   H16   S    
C16   C18   A    
C8    C18   A    
C3    C4    D    
C11   H8    S    
C7    C17   A    
N1    N2    D    
C24   H25   S    
