data_str_m2_o1_o21_f0_pcu.sym.79
_audit_creation_date              2012-10-26T19:45:14-0400
_audit_creation_method            fapswitch 2.2
_symmetry_space_group_name_H-M    P1
_symmetry_Int_Tables_number       1
_space_group_crystal_system       triclinic
_cell_length_a                    9.579213
_cell_length_b                    10.782184
_cell_length_c                    13.867373
_cell_angle_alpha                 91.058303
_cell_angle_beta                  85.910709
_cell_angle_gamma                 90.606993
_cell_volume                      1428.33743854

loop_
_atom_site_label
_atom_site_type_symbol
_atom_type_description
_atom_site_fract_x
_atom_site_fract_y
_atom_site_fract_z
_atom_type_partial_charge
C1    C     C_R   0.500480 0.737680 0.500092 0.548790
C2    C     C_R   0.930028 0.433568 0.432392 -0.005970
C3    C     C_1   0.532982 0.488999 0.214895 -0.024468
C4    C     C_1   0.467019 0.511003 0.785104 -0.024469
C5    C     C_2   0.547102 0.469425 0.024931 -0.023155
C6    C     C_2   0.452898 0.530580 0.975068 -0.023155
C7    C     C_1   0.458840 0.520248 0.871484 -0.062896
C8    C     C_1   0.541161 0.479756 0.128515 -0.062896
C9    C     C_R   0.619205 0.936301 0.463032 -0.150425
C10   C     C_R   0.380794 0.063699 0.536968 -0.150426
C11   C     C_R   0.618778 0.064583 0.463133 -0.142270
C12   C     C_R   0.499520 0.262320 0.499908 0.548790
C13   C     C_R   0.381221 0.935417 0.536866 -0.142269
C14   C     C_R   0.849062 0.642975 0.645308 0.066741
C15   C     C_R   0.829644 0.597410 0.739720 -0.084419
C16   C     C_R   0.773126 0.673613 0.815069 -0.113049
C17   C     C_R   0.737779 0.796047 0.797051 -0.112311
C18   C     C_R   0.762046 0.843362 0.704138 -0.121006
C19   C     C_R   0.820253 0.767834 0.628987 -0.074432
C20   C     C_R   0.150939 0.357030 0.354688 0.066740
C21   C     C_R   0.170351 0.402601 0.260277 -0.084419
C22   C     C_R   0.226870 0.326403 0.184925 -0.113047
C23   C     C_R   0.499354 0.128417 0.499794 0.022433
C24   C     C_R   0.262224 0.203969 0.202939 -0.112310
C25   C     C_R   0.237964 0.156649 0.295851 -0.121006
C26   C     C_R   0.179755 0.232172 0.371005 -0.074431
C27   C     C_R   0.343466 0.613013 0.022359 0.043162
C28   C     C_R   0.202638 0.595961 0.002360 -0.102837
C29   C     C_R   0.099275 0.673688 0.045502 -0.119536
C30   C     C_R   0.135592 0.769585 0.108364 -0.106744
C31   C     C_R   0.275522 0.788711 0.127455 -0.113762
C32   C     C_R   0.379293 0.711502 0.084174 -0.087588
C33   C     C_R   0.656534 0.386993 0.977639 0.043164
C34   C     C_R   0.500646 0.871582 0.500206 0.022434
C35   C     C_R   0.797364 0.404055 0.997629 -0.102837
C36   C     C_R   0.900727 0.326329 0.954484 -0.119536
C37   C     C_R   0.864407 0.230423 0.891629 -0.106742
C38   C     C_R   0.724475 0.211288 0.872548 -0.113760
C39   C     C_R   0.620704 0.288497 0.915831 -0.087588
C40   C     C_R   0.478361 0.501891 0.682617 0.554051
C41   C     C_R   0.521639 0.498109 0.317382 0.554050
C42   C     C_R   0.922017 0.567045 0.568415 0.089338
C43   C     C_R   0.077983 0.432956 0.431585 0.089337
C44   C     C_R   0.069972 0.566431 0.567608 -0.005970
Cu1   Cu    Cu3+1 0.359340 0.499980 0.500000 0.941487
Cu2   Cu    Cu3+1 0.640660 0.500020 0.500000 0.941488
H1    H     H_    0.122588 0.619982 0.621291 0.117476
H2    H     H_    0.737679 0.939019 0.690620 0.108793
H3    H     H_    0.844190 0.806733 0.558308 0.102360
H4    H     H_    0.142042 0.496966 0.245241 0.116627
H5    H     H_    0.242933 0.362075 0.112532 0.114962
H6    H     H_    0.306363 0.145241 0.144626 0.108195
H7    H     H_    0.262337 0.060992 0.309365 0.108790
H8    H     H_    0.155823 0.193268 0.441683 0.102363
H9    H     H_    0.172918 0.522090 0.953773 0.098122
H10   H     H_    0.991058 0.659889 0.029935 0.099005
H11   H     H_    0.055454 0.829655 0.141714 0.107197
H12   H     H_    0.877412 0.380018 0.378708 0.117476
H13   H     H_    0.303722 0.863878 0.175343 0.101288
H14   H     H_    0.487520 0.729115 0.098307 0.102266
H15   H     H_    0.827086 0.477932 0.046211 0.098121
H16   H     H_    0.008946 0.340136 0.970043 0.099004
H17   H     H_    0.944545 0.170353 0.858278 0.107196
H18   H     H_    0.696273 0.136114 0.824666 0.101286
H19   H     H_    0.512476 0.270878 0.901705 0.102265
H20   H     H_    0.711017 0.887869 0.432634 0.116911
H21   H     H_    0.288982 0.112131 0.567366 0.116911
H22   H     H_    0.710892 0.113707 0.433525 0.122895
H23   H     H_    0.289108 0.886293 0.566475 0.122895
H24   H     H_    0.857947 0.503045 0.754759 0.116630
H25   H     H_    0.757057 0.637945 0.887463 0.114961
H26   H     H_    0.693642 0.854779 0.855361 0.108194
N1    N     N_R   0.147930 0.499970 0.499980 -0.236679
N2    N     N_R   0.852070 0.500030 0.500020 -0.236679
O1    O     O_R   0.381260 0.680340 0.500000 -0.508629
O2    O     O_R   0.618740 0.319660 0.500000 -0.508628
O3    O     O_R   0.618830 0.680370 0.500010 -0.501871
O4    O     O_R   0.381170 0.319630 0.499990 -0.501873
O5    O     O_R   0.364420 0.499960 0.637840 -0.508037
O6    O     O_R   0.635580 0.500040 0.362160 -0.508037
O7    O     O_R   0.601990 0.499990 0.637850 -0.482016
O8    O     O_R   0.398010 0.500010 0.362150 -0.482015

loop_
_geom_bond_atom_site_label_1
_geom_bond_atom_site_label_2
_ccdc_geom_bond_type
C43   N1    A    
C24   H6    S    
C1    O3    A    
C35   C36   A    
C41   O6    A    
Cu2   O2    S    
Cu1   Cu2   S    
C12   C23   S    
C33   C39   A    
C20   C26   A    
C36   C37   A    
C37   C38   A    
C25   H7    S    
C5    C6    D    
Cu1   O8    S    
C15   C16   A    
C30   H11   S    
Cu1   N1    S    
C18   C19   A    
C31   H13   S    
C9    H20   S    
C3    C41   S    
C4    C40   S    
C16   C17   A    
C5    C33   S    
Cu1   O4    S    
C2    N2    A    
C44   H1    S    
C14   C42   S    
C21   C22   A    
C39   H19   S    
C16   H25   S    
C42   C44   A    
C4    C7    T    
C36   H16   S    
C26   H8    S    
C21   H4    S    
C37   H17   S    
C28   H9    S    
C1    C34   S    
C38   H18   S    
C38   C39   A    
C42   N2    A    
C1    O1    A    
C24   C25   A    
C35   H15   S    
C3    C8    T    
C14   C19   A    
C25   C26   A    
C10   H21   S    
C12   O4    A    
C29   C30   A    
C5    C8    S    
Cu2   O7    S    
C19   H3    S    
C6    C27   S    
C2    C43   A    
C17   C18   A    
C40   O5    A    
Cu1   O5    S    
C9    C11   A    
C12   O2    A    
C9    C34   A    
C22   C24   A    
C32   H14   S    
Cu2   N2    S    
C20   C43   S    
C11   H22   S    
C15   H24   S    
C28   C29   A    
C27   C32   A    
C40   O7    A    
C31   C32   A    
C10   C13   A    
C18   H2    S    
Cu2   O3    S    
C2    H12   S    
C6    C7    S    
C29   H10   S    
C10   C23   A    
Cu1   O1    S    
C13   C34   A    
Cu2   O6    S    
C30   C31   A    
C13   H23   S    
C41   O8    A    
C11   C23   A    
C33   C35   A    
C44   N1    A    
C20   C21   A    
C17   H26   S    
C27   C28   A    
C14   C15   A    
C22   H5    S    
