data_str_m2_o10_o14_f0_pcu.sym.154
_audit_creation_date              2012-12-10T16:43:24-0500
_audit_creation_method            fapswitch 2.2
_symmetry_space_group_name_H-M    P1
_symmetry_Int_Tables_number       1
_space_group_crystal_system       triclinic
_cell_length_a                    10.758179
_cell_length_b                    8.694163
_cell_length_c                    7.515439
_cell_angle_alpha                 102.600395
_cell_angle_beta                  95.059027
_cell_angle_gamma                 93.338885
_cell_volume                      681.167755572

loop_
_atom_site_label
_atom_site_type_symbol
_atom_type_description
_atom_site_fract_x
_atom_site_fract_y
_atom_site_fract_z
_atom_type_partial_charge
C1    C     C_R   0.496088 0.200009 0.453546 0.880248
C2    C     C_R   0.080069 0.639454 0.630076 0.047281
C3    C     C_R   0.130029 0.518352 0.504859 -0.080055
C4    C     C_R   0.051747 0.407053 0.375018 -0.197897
C5    C     C_R   0.923730 0.408102 0.372964 -0.198249
C6    C     C_R   0.871818 0.520997 0.500551 -0.083029
C7    C     C_2   0.491336 0.031820 0.427486 -0.372955
C8    C     C_2   0.515366 0.967597 0.570345 -0.368904
C9    C     C_R   0.263203 0.505977 0.501898 0.773096
C10   C     C_R   0.506325 0.799853 0.546030 0.859728
C11   C     C_R   0.737392 0.507694 0.500165 0.779298
C12   C     C_R   0.157201 0.761327 0.753204 -0.181802
C13   C     C_R   0.105837 0.879119 0.876117 0.220121
C14   C     C_R   0.975733 0.881158 0.871433 -0.165464
C15   C     C_R   0.898015 0.765204 0.747100 -0.216312
C16   C     C_R   0.948638 0.641094 0.627425 0.095129
Cu1   Cu    Cu3+1 0.513920 0.517380 0.684380 0.937878
Cu2   Cu    Cu3+1 0.486080 0.482620 0.315620 0.945258
H1    H     H_    0.090165 0.316314 0.277315 0.140049
H2    H     H_    0.584696 0.638116 0.050989 0.210295
H3    H     H_    0.257816 0.769001 0.754644 0.168375
H4    H     H_    0.934143 0.973764 0.962591 0.129810
H5    H     H_    0.798383 0.776215 0.744299 0.155150
H6    H     H_    0.864821 0.317339 0.274562 0.151346
H7    H     H_    0.466327 0.960329 0.289586 0.173933
H8    H     H_    0.543709 0.038225 0.706837 0.164705
N1    N     N_2   0.465100 0.456430 0.038520 -0.094734
N2    N     N_2   0.534900 0.543570 0.961480 -0.182410
O1    O     O_R   0.509050 0.286130 0.619770 -0.587441
O2    O     O_R   0.485540 0.256780 0.308360 -0.594117
O3    O     O_R   0.331410 0.514680 0.655740 -0.600689
O4    O     O_R   0.307900 0.485330 0.344330 -0.576588
O5    O     O_R   0.514460 0.743220 0.691640 -0.604203
O6    O     O_R   0.490950 0.713870 0.380230 -0.585414
O7    O     O_R   0.692100 0.514670 0.655670 -0.579476
O8    O     O_R   0.668590 0.485320 0.344260 -0.583755
N3    N     N_3   0.187653 0.997776 0.002109 -0.622407
H9    H     H_    0.238122 0.941412 0.091205 0.218546
H10   H     H_    0.135438 0.077834 0.083015 0.200593
C17   C     C_3   0.401196 0.309132 0.937318 -0.303763
H11   H     H_    0.334354 0.268650 0.024581 0.175824
H12   H     H_    0.343446 0.319636 0.813545 0.192496
H13   H     H_    0.469024 0.218495 0.911619 0.160506

loop_
_geom_bond_atom_site_label_1
_geom_bond_atom_site_label_2
_ccdc_geom_bond_type
N3    H9    S    
C3    C9    S    
C4    H1    S    
Cu1   O1    S    
C13   N3    S    
C7    H7    S    
N1    C17   S    
C2    C12   A    
C15   H5    S    
C14   H4    S    
C17   H12   S    
C2    C3    A    
C7    C8    D    
N3    H10   S    
C13   C14   A    
C1    O2    A    
Cu2   O6    S    
C5    H6    S    
Cu1   O5    S    
C8    H8    S    
Cu2   O2    S    
C12   H3    S    
C1    O1    A    
C17   H11   S    
Cu1   Cu2   S    
C10   O5    A    
C17   H13   S    
C5    C6    A    
Cu1   O3    S    
Cu2   O4    S    
C9    O3    A    
C6    C16   A    
C3    C4    A    
N1    N2    D    
C2    C16   A    
C12   C13   A    
C10   O6    A    
C6    C11   S    
C14   C15   A    
C11   O8    A    
Cu1   O7    S    
H2    N2    S    
C9    O4    A    
C1    C7    S    
Cu1   N2    S    
Cu2   O8    S    
C11   O7    A    
C8    C10   S    
Cu2   N1    S    
C15   C16   A    
C4    C5    A    
