data_str_m3_o10_o15_f0_pcu.sym.87
_audit_creation_date              2012-12-10T16:51:00-0500
_audit_creation_method            fapswitch 2.2
_symmetry_space_group_name_H-M    P1
_symmetry_Int_Tables_number       1
_space_group_crystal_system       triclinic
_cell_length_a                    7.922311
_cell_length_b                    8.548714
_cell_length_c                    10.582965
_cell_angle_alpha                 91.993927
_cell_angle_beta                  84.145398
_cell_angle_gamma                 93.809053
_cell_volume                      711.140319984

loop_
_atom_site_label
_atom_site_type_symbol
_atom_type_description
_atom_site_fract_x
_atom_site_fract_y
_atom_site_fract_z
_atom_type_partial_charge
C1    C     C_R   0.545344 0.794108 0.496593 0.963724
C2    C     C_R   0.936462 0.362254 0.021732 0.410675
C3    C     C_R   0.032090 0.483231 0.083878 -0.255095
C4    C     C_R   0.960351 0.476493 0.925720 -0.256721
C5    C     C_R   0.176434 0.437567 0.134837 -0.175551
C6    C     C_R   0.818166 0.522056 0.872059 -0.170054
C7    C     C_R   0.338628 0.470183 0.073077 0.039521
C8    C     C_R   0.654158 0.491644 0.931150 0.044097
C9    C     C_R   0.355013 0.543520 0.956776 -0.021065
C10   C     C_R   0.636230 0.419941 0.048102 -0.037806
C11   C     C_R   0.485319 0.434814 0.126539 -0.183411
C12   C     C_R   0.454665 0.205878 0.503256 0.957086
C13   C     C_R   0.508497 0.535261 0.878585 -0.165697
C14   C     C_2   0.568809 0.958084 0.494454 -0.375465
C15   C     C_2   0.431233 0.041891 0.505023 -0.363744
C16   C     C_R   0.503258 0.517607 0.740699 0.882097
C17   C     C_R   0.495023 0.473152 0.261632 0.893573
C18   C     C_R   0.220211 0.630844 0.927703 0.141885
C19   C     C_R   0.769042 0.333030 0.081572 0.157800
C20   C     C_R   0.053842 0.598404 0.988290 0.402889
H1    H     H_    0.033671 0.432662 0.839926 0.159755
H2    H     H_    0.841084 0.155647 0.187381 0.222906
H3    H     H_    0.861498 0.715842 0.066459 0.341809
H4    H     H_    0.126800 0.241225 0.944890 0.338208
H5    H     H_    0.929632 0.255637 0.374915 0.174321
H6    H     H_    0.958760 0.244747 0.528265 0.192117
H7    H     H_    0.899444 0.704229 0.611416 0.198235
H8    H     H_    0.999208 0.744932 0.462716 0.204208
H9    H     H_    0.960509 0.526237 0.170643 0.167806
H10   H     H_    0.158918 0.360471 0.214832 0.187395
H11   H     H_    0.840289 0.605754 0.797576 0.173746
H12   H     H_    0.698759 0.009198 0.484210 0.170190
H13   H     H_    0.301281 0.990760 0.515207 0.182412
H14   H     H_    0.235733 0.864757 0.897821 0.235772
H15   H     H_    0.166761 0.751848 0.776930 0.215825
H16   H     H_    0.650431 0.124978 0.132506 0.192020
N1    N     N_2   0.950330 0.457950 0.466250 -0.038430
N2    N     N_2   0.049670 0.542050 0.533750 -0.010938
N3    N     N_3   0.254563 0.761010 0.844536 -0.437099
N4    N     N_3   0.731284 0.210520 0.172214 -0.444439
N5    N     N_3   0.999571 0.305973 0.445697 -0.343165
N6    N     N_3   0.010892 0.697908 0.551168 -0.375763
O1    O     O_R   0.389250 0.738570 0.508280 -0.593196
O2    O     O_3   0.012865 0.221587 0.992345 -0.766320
O3    O     O_R   0.610750 0.261430 0.491720 -0.620012
O4    O     O_R   0.678390 0.711630 0.486650 -0.658273
O5    O     O_R   0.321610 0.288370 0.513350 -0.616270
O6    O     O_R   0.355430 0.513480 0.694040 -0.612613
O7    O     O_R   0.644570 0.486520 0.305960 -0.615015
O8    O     O_R   0.644570 0.486540 0.672410 -0.631674
O9    O     O_R   0.355430 0.513460 0.327590 -0.607278
O10   O     O_3   0.974321 0.737473 0.017871 -0.765343
Zn1   Zn    Zn3+2 0.306940 0.517990 0.514440 0.965131
Zn2   Zn    Zn3+2 0.693060 0.482010 0.485560 0.925231

loop_
_geom_bond_atom_site_label_1
_geom_bond_atom_site_label_2
_ccdc_geom_bond_type
C2    C4    A    
C18   N3    S    
C8    C13   A    
C5    C7    A    
H15   N3    S    
O4    Zn2   S    
C12   C15   S    
C10   C19   A    
O5    Zn1   S    
H2    N4    S    
C17   O9    A    
O1    Zn1   S    
C6    H11   S    
C3    C20   A    
C20   O10   S    
C7    C11   A    
C4    H1    S    
H7    N6    S    
C16   O6    A    
H3    O10   S    
O8    Zn2   S    
N2    Zn1   S    
C12   O5    A    
N1    Zn2   S    
C4    C6    A    
N1    N2    D    
C16   O8    A    
O3    Zn2   S    
N2    N6    S    
C2    C3    A    
N1    N5    S    
O6    Zn1   S    
H4    O2    S    
C1    O4    A    
C10   C11   A    
C17   O7    A    
H14   N3    S    
C4    C20   A    
C9    C18   A    
H16   N4    S    
C3    H9    S    
C14   H12   S    
C2    O2    S    
C18   C20   A    
C8    C10   A    
C5    H10   S    
C19   N4    S    
C13   C16   S    
H5    N5    S    
C7    C9    A    
C9    C13   A    
C14   C15   D    
C11   C17   S    
C6    C8    A    
C1    C14   S    
H8    N6    S    
C3    C5    A    
C2    C19   A    
C1    O1    A    
O7    Zn2   S    
H6    N5    S    
C15   H13   S    
C12   O3    A    
O9    Zn1   S    
