data_str_m3_o14_o16_f0_pcu.sym.101
_audit_creation_date              2012-12-10T17:42:35-0500
_audit_creation_method            fapswitch 2.2
_symmetry_space_group_name_H-M    P1
_symmetry_Int_Tables_number       1
_space_group_crystal_system       triclinic
_cell_length_a                    9.964779
_cell_length_b                    10.778836
_cell_length_c                    13.332437
_cell_angle_alpha                 94.611719
_cell_angle_beta                  71.686798
_cell_angle_gamma                 90.260826
_cell_volume                      1354.76657576

loop_
_atom_site_label
_atom_site_type_symbol
_atom_type_description
_atom_site_fract_x
_atom_site_fract_y
_atom_site_fract_z
_atom_type_partial_charge
C1    C     C_R   0.503347 0.738755 0.490979 0.845991
C2    C     C_R   0.369536 0.516361 0.818006 -0.089086
C3    C     C_R   0.275677 0.882272 0.442660 -0.153512
C4    C     C_R   0.421186 0.498343 0.702599 0.848426
C5    C     C_R   0.145400 0.942967 0.464531 -0.122817
C6    C     C_R   0.118049 0.054106 0.528438 -0.204359
C7    C     C_R   0.228185 0.114665 0.554441 -0.161255
C8    C     C_R   0.366509 0.061612 0.518300 0.110488
C9    C     C_R   0.382878 0.936470 0.479613 0.101966
C10   C     C_R   0.505413 0.871358 0.480700 -0.134808
C11   C     C_R   0.623018 0.936423 0.490233 -0.238672
C12   C     C_R   0.452076 0.544685 0.971604 0.091110
C13   C     C_R   0.617122 0.064136 0.503790 -0.219223
C14   C     C_R   0.490050 0.127985 0.516639 -0.134903
C15   C     C_R   0.826809 0.706706 0.613626 0.239443
C16   C     C_R   0.495908 0.260958 0.508054 0.869732
C17   C     C_R   0.896589 0.809754 0.643673 -0.273593
C18   C     C_R   0.025828 0.793070 0.657840 -0.200513
C19   C     C_R   0.097957 0.681648 0.621498 -0.132371
C20   C     C_R   0.050622 0.592156 0.558950 0.053855
C21   C     C_R   0.907082 0.597149 0.557317 0.119227
C22   C     C_R   0.950269 0.409700 0.445095 -0.209533
C23   C     C_R   0.452632 0.474911 0.877004 0.016700
C24   C     C_R   0.094238 0.410315 0.442727 0.242345
C25   C     C_R   0.577044 0.503741 0.297857 0.875428
C26   C     C_R   0.752071 0.381102 0.022759 -0.191607
C27   C     C_R   0.620720 0.499327 0.183149 -0.121904
C28   C     C_R   0.264038 0.608177 0.863075 -0.185918
C29   C     C_R   0.264949 0.679340 0.953904 -0.192640
C30   C     C_R   0.367056 0.655217 0.001113 -0.172767
C31   C     C_3   0.649760 0.700714 0.781385 -0.765616
C32   C     C_3   0.753200 0.173613 0.740176 -0.833319
C33   C     C_3   0.232824 0.305329 0.273671 -0.781877
C34   C     C_R   0.544294 0.506248 0.026693 0.001735
C35   C     C_3   0.279101 0.615498 0.228135 -0.774264
C36   C     C_R   0.652092 0.413652 0.974425 0.033438
C37   C     C_R   0.655057 0.349693 0.877302 0.207477
C38   C     C_R   0.547563 0.374263 0.835130 -0.238201
C39   C     C_R   0.530006 0.549769 0.133505 0.163323
C40   C     C_R   0.736307 0.423582 0.126081 -0.232152
H1    H     H_    0.291050 0.793967 0.396377 0.163258
H2    H     H_    0.806883 0.386929 0.164533 0.164820
H3    H     H_    0.013896 0.097284 0.552022 0.131953
H4    H     H_    0.203753 0.202430 0.602307 0.161187
H5    H     H_    0.630630 0.786473 0.657388 0.219684
H6    H     H_    0.535022 0.712558 0.819180 0.244560
H7    H     H_    0.697642 0.778103 0.817669 0.220056
H8    H     H_    0.689496 0.610865 0.797409 0.260114
H9    H     H_    0.837796 0.895013 0.678280 0.151980
H10   H     H_    0.192202 0.668913 0.641345 0.205030
H11   H     H_    0.866996 0.298028 0.808210 0.218687
H12   H     H_    0.063120 0.899998 0.437486 0.138406
H13   H     H_    0.652361 0.123159 0.767255 0.251588
H14   H     H_    0.759483 0.221926 0.668342 0.244245
H15   H     H_    0.841321 0.104458 0.719729 0.231381
H16   H     H_    0.134400 0.225809 0.408946 0.219383
H17   H     H_    0.275801 0.210926 0.239148 0.230119
H18   H     H_    0.320391 0.369887 0.247157 0.283071
H19   H     H_    0.145388 0.327832 0.242512 0.214842
H20   H     H_    0.460520 0.704072 0.244650 0.208868
H21   H     H_    0.244380 0.594113 0.311929 0.268511
H22   H     H_    0.254125 0.537149 0.178238 0.252402
H23   H     H_    0.712579 0.112517 0.503997 0.165092
H24   H     H_    0.216354 0.698498 0.223705 0.221281
H25   H     H_    0.383711 0.729441 0.054407 0.181594
H26   H     H_    0.542745 0.320171 0.764531 0.162275
H27   H     H_    0.913661 0.335173 0.401516 0.150668
H28   H     H_    0.068947 0.865747 0.698843 0.164629
H29   H     H_    0.837068 0.314297 0.984703 0.153306
H30   H     H_    0.196186 0.638363 0.819869 0.144863
H31   H     H_    0.196752 0.761289 0.980937 0.147169
H32   H     H_    0.720053 0.888970 0.487031 0.164753
N1    N     N_R   0.856860 0.501200 0.500990 -0.119023
N2    N     N_R   0.142450 0.501280 0.501020 -0.142001
N3    N     N_2   0.680378 0.707359 0.668452 -0.230672
N4    N     N_2   0.767188 0.261830 0.823726 -0.300398
N5    N     N_2   0.183879 0.307807 0.388122 -0.246823
N6    N     N_2   0.428664 0.644215 0.192620 -0.325064
O1    O     O_R   0.385310 0.683220 0.500000 -0.648479
O2    O     O_R   0.614640 0.683250 0.500010 -0.615618
O3    O     O_R   0.328400 0.499950 0.653610 -0.651591
O4    O     O_R   0.557730 0.499970 0.653620 -0.569021
O5    O     O_R   0.385360 0.316750 0.499990 -0.594981
O6    O     O_R   0.614690 0.316780 0.500000 -0.629478
O7    O     O_R   0.442270 0.500030 0.346380 -0.595182
O8    O     O_R   0.671600 0.500050 0.346390 -0.615287
Zn1   Zn    Zn3+2 0.346880 0.499980 0.499990 0.935004
Zn2   Zn    Zn3+2 0.653120 0.500020 0.500010 0.953069

loop_
_geom_bond_atom_site_label_1
_geom_bond_atom_site_label_2
_ccdc_geom_bond_type
C15   N3    S    
C33   H18   S    
O5    Zn1   S    
C19   C20   A    
C26   C40   A    
O1    Zn1   S    
C7    C8    A    
C12   C23   A    
H20   N6    S    
C37   C38   A    
C22   C24   A    
C36   C37   A    
C5    C6    A    
O8    Zn2   S    
C18   H28   S    
C21   N1    A    
C16   O6    A    
C18   C19   A    
C33   N5    S    
C3    H1    S    
C4    O3    A    
C38   H26   S    
C27   C39   A    
C8    C9    A    
C31   H6    S    
C8    C14   A    
C5    H12   S    
C35   H24   S    
N2    Zn1   S    
C9    C10   A    
C32   H15   S    
C40   H2    S    
C33   H19   S    
C31   H7    S    
C13   C14   A    
C32   H14   S    
O7    Zn1   S    
C34   C39   A    
C39   N6    S    
H11   N4    S    
C17   H9    S    
C11   H32   S    
C16   O5    A    
H16   N5    S    
C2    C4    S    
N1    Zn2   S    
C29   C30   A    
C3    C9    A    
C31   N3    S    
C13   H23   S    
C27   C40   A    
C25   O7    A    
C17   C18   A    
C20   N2    A    
C35   H21   S    
C7    H4    S    
O3    Zn1   S    
C26   C36   A    
C37   N4    S    
C31   H8    S    
C1    O1    A    
C14   C16   S    
C12   C34   A    
C32   H13   S    
C15   C17   A    
C28   C29   A    
C33   H17   S    
C12   C30   A    
C28   H30   S    
C1    C10   S    
O6    Zn2   S    
C3    C5    A    
C32   N4    S    
C6    C7    A    
C25   C27   S    
C23   C38   A    
C35   N6    S    
H5    N3    S    
O2    Zn2   S    
C11   C13   A    
C19   H10   S    
C24   N2    A    
O4    Zn2   S    
C25   O8    A    
C35   H22   S    
C34   C36   A    
C22   H27   S    
C30   H25   S    
C10   C11   A    
C24   N5    S    
C15   C21   A    
C4    O4    A    
C20   C21   A    
C2    C23   A    
C26   H29   S    
C6    H3    S    
C1    O2    A    
C2    C28   A    
C22   N1    A    
C29   H31   S    
