data_str_m2_o10_o17_f0_pcu.sym.188
_audit_creation_date              2012-12-10T16:44:43-0500
_audit_creation_method            fapswitch 2.2
_symmetry_space_group_name_H-M    P1
_symmetry_Int_Tables_number       1
_space_group_crystal_system       triclinic
_cell_length_a                    15.00144
_cell_length_b                    8.676518
_cell_length_c                    7.45226
_cell_angle_alpha                 102.873899
_cell_angle_beta                  94.257452
_cell_angle_gamma                 92.471432
_cell_volume                      941.218526069

loop_
_atom_site_label
_atom_site_type_symbol
_atom_type_description
_atom_site_fract_x
_atom_site_fract_y
_atom_site_fract_z
_atom_type_partial_charge
C1    C     C_R   0.497254 0.199766 0.453318 0.875695
C2    C     C_R   0.502746 0.800234 0.546682 0.875695
C3    C     C_R   0.029828 0.235356 0.295133 -0.222337
C4    C     C_R   0.970172 0.764644 0.704867 -0.222337
C5    C     C_2   0.495880 0.031866 0.427029 -0.371951
C6    C     C_2   0.504120 0.968133 0.572971 -0.371951
C7    C     C_R   0.329078 0.495939 0.501666 0.802113
C8    C     C_R   0.670922 0.504061 0.498334 0.802113
C9    C     C_R   0.821152 0.639285 0.600309 0.099180
C10   C     C_R   0.178848 0.360715 0.399691 0.099180
C11   C     C_R   0.767283 0.508918 0.494863 -0.110076
C12   C     C_R   0.232716 0.491082 0.505137 -0.110076
C13   C     C_R   0.805126 0.378838 0.389574 -0.247926
C14   C     C_R   0.194874 0.621161 0.610426 -0.247926
C15   C     C_R   0.897997 0.372269 0.391768 0.108635
C16   C     C_R   0.102002 0.627731 0.608232 0.108635
C17   C     C_R   0.953156 0.502126 0.498253 -0.026026
C18   C     C_R   0.046844 0.497874 0.501746 -0.026026
C19   C     C_R   0.914628 0.636300 0.601404 0.101449
C20   C     C_R   0.085372 0.363700 0.398595 0.101449
C21   C     C_R   0.936597 0.238050 0.290946 0.141421
C22   C     C_R   0.063403 0.761950 0.709053 0.141421
Cu1   Cu    Cu3+1 0.510010 0.517380 0.684380 0.951402
Cu2   Cu    Cu3+1 0.489990 0.482620 0.315620 0.951402
H1    H     H_    0.761205 0.281102 0.309837 0.175113
H2    H     H_    0.238795 0.718898 0.690163 0.175113
H3    H     H_    0.058668 0.131637 0.217281 0.175152
H4    H     H_    0.941332 0.868363 0.782718 0.175152
H5    H     H_    0.488090 0.960360 0.286357 0.182522
H6    H     H_    0.511910 0.039639 0.713643 0.182522
H7    H     H_    0.430021 0.377614 0.948543 0.224657
H8    H     H_    0.569979 0.622386 0.051457 0.224657
N1    N     N_2   0.474890 0.456420 0.038520 -0.214128
N2    N     N_2   0.525110 0.543580 0.961480 -0.214128
O1    O     O_R   0.506510 0.286130 0.619770 -0.581582
O2    O     O_R   0.493490 0.713870 0.380230 -0.581582
O3    O     O_R   0.489600 0.256770 0.308360 -0.588808
O4    O     O_R   0.510400 0.743230 0.691640 -0.588808
O5    O     O_R   0.378710 0.514640 0.655720 -0.585267
O6    O     O_R   0.621290 0.485360 0.344280 -0.585267
O7    O     O_R   0.361800 0.485290 0.344300 -0.581183
O8    O     O_R   0.638200 0.514710 0.655700 -0.581183
N3    N     N_3   0.781657 0.775975 0.703115 -0.606068
H9    H     H_    0.747186 0.743204 0.806902 0.243156
H10   H     H_    0.736286 0.817204 0.613846 0.210749
N4    N     N_3   0.218342 0.224024 0.296885 -0.606069
H11   H     H_    0.252814 0.256795 0.193098 0.243157
H12   H     H_    0.263713 0.182794 0.386154 0.210750
N5    N     N_3   0.881029 0.104504 0.185133 -0.590020
H13   H     H_    0.852768 0.047373 0.278853 0.217923
H14   H     H_    0.919657 0.022280 0.105780 0.216205
N6    N     N_3   0.118971 0.895496 0.814867 -0.590019
H15   H     H_    0.147232 0.952627 0.721147 0.217922
H16   H     H_    0.080343 0.977721 0.894219 0.216204

loop_
_geom_bond_atom_site_label_1
_geom_bond_atom_site_label_2
_ccdc_geom_bond_type
C10   N4    S    
C15   C21   A    
N3    H9    S    
H7    N1    S    
C10   C20   A    
Cu1   O4    S    
C4    C22   A    
C2    O4    A    
C5    H5    S    
Cu2   N1    S    
C1    C5    S    
C13   C15   A    
C1    O3    A    
Cu1   Cu2   S    
Cu1   N2    S    
N6    H16   S    
C3    H3    S    
Cu2   O3    S    
C3    C20   A    
C16   C18   A    
C2    C6    S    
C14   H2    S    
Cu2   O7    S    
N3    H10   S    
C13   H1    S    
Cu2   O2    S    
Cu1   O8    S    
C10   C12   A    
C8    C11   S    
Cu1   O5    S    
C21   N5    S    
C17   C19   A    
C12   C14   A    
C17   C18   A    
C18   C20   A    
C9    C11   A    
C5    C6    D    
Cu1   O1    S    
C14   C16   A    
C7    C12   S    
C9    N3    S    
C3    C21   A    
N4    H12   S    
C11   C13   A    
N1    N2    D    
N6    H15   S    
C1    O1    A    
C22   N6    S    
N5    H13   S    
C2    O2    A    
C15   C17   A    
C7    O5    A    
N4    H11   S    
Cu2   O6    S    
C7    O7    A    
C16   C22   A    
C8    O6    A    
C4    H4    S    
C4    C19   A    
C6    H6    S    
C9    C19   A    
C8    O8    A    
N5    H14   S    
H8    N2    S    
