data_str_m9_o2_o13_f0_sra.sym.21
_audit_creation_date              2012-12-11T16:23:19-0500
_audit_creation_method            fapswitch 2.2
_symmetry_space_group_name_H-M    P1
_symmetry_Int_Tables_number       1
_space_group_crystal_system       triclinic
_cell_length_a                    20.395981
_cell_length_b                    7.223065
_cell_length_c                    19.616189
_cell_angle_alpha                 89.812229
_cell_angle_beta                  98.700297
_cell_angle_gamma                 90.473557
_cell_volume                      2856.52911682

loop_
_atom_site_label
_atom_site_type_symbol
_atom_type_description
_atom_site_fract_x
_atom_site_fract_y
_atom_site_fract_z
_atom_type_partial_charge
O1    O     O_R   0.188410 0.619490 0.310050 -0.529768
O2    O     O_R   0.811590 0.380510 0.689950 -0.539529
O3    O     O_R   0.311590 0.119490 0.189950 -0.521533
O4    O     O_R   0.688410 0.880510 0.810050 -0.552144
O5    O     O_R   0.327280 0.288800 0.321740 -0.520285
O6    O     O_R   0.672720 0.711200 0.678260 -0.562050
O7    O     O_R   0.172720 0.788800 0.178260 -0.529383
O8    O     O_R   0.827280 0.211200 0.821740 -0.553527
C1    C     C_R   0.350103 0.458779 0.339686 0.774473
C2    C     C_R   0.649027 0.542072 0.661362 0.710562
C3    C     C_R   0.149557 0.958489 0.160685 0.778317
C4    C     C_R   0.850322 0.042538 0.839463 0.701755
O9    O     O_R   0.189900 0.289710 0.318190 -0.556656
O10   O     O_R   0.810100 0.710290 0.681810 -0.517996
O11   O     O_R   0.310100 0.789710 0.181810 -0.555133
O12   O     O_R   0.689900 0.210290 0.818190 -0.525258
O13   O     O_R   0.173230 0.120350 0.186370 -0.543126
O14   O     O_R   0.826770 0.879650 0.813630 -0.520727
O15   O     O_R   0.326770 0.620350 0.313630 -0.548670
O16   O     O_R   0.673230 0.379650 0.686370 -0.506936
C5    C     C_R   0.168258 0.455656 0.332593 0.686849
C6    C     C_R   0.831090 0.543467 0.666595 0.699544
C7    C     C_R   0.331975 0.956848 0.167352 0.698580
C8    C     C_R   0.667762 0.041543 0.831762 0.720390
O17   O     O_3   0.244690 0.453290 0.206760 -0.379827
O18   O     O_3   0.755310 0.546710 0.793240 -0.385732
O19   O     O_3   0.255310 0.953290 0.293240 -0.383806
O20   O     O_3   0.744690 0.046710 0.706760 -0.368029
V1    V     V_3+5 0.250980 0.178070 0.258020 1.468436
V2    V     V_3+5 0.749020 0.821930 0.741980 1.464994
V3    V     V_3+5 0.249020 0.678070 0.241980 1.455032
V4    V     V_3+5 0.750980 0.321930 0.758020 1.470213
C9    C     C_R   0.461604 0.144128 0.063121 -0.123544
C10   C     C_R   0.568328 0.856934 0.966256 -0.162019
C11   C     C_R   0.031598 0.635227 0.425662 -0.109082
C12   C     C_R   0.940875 0.347558 0.544929 -0.141148
H1    H     H_    0.484790 0.277347 0.057095 0.122410
H2    H     H_    0.569032 0.732822 0.997413 0.097757
H3    H     H_    0.004523 0.763427 0.424327 0.116864
H4    H     H_    0.948963 0.209847 0.526831 0.098643
C13   C     C_R   0.415340 0.129158 0.108859 -0.083647
C14   C     C_R   0.612295 0.869412 0.918244 -0.166544
C15   C     C_R   0.080042 0.621284 0.382790 -0.125480
C16   C     C_R   0.898645 0.365028 0.594230 -0.162079
H5    H     H_    0.404072 0.251184 0.135869 0.188446
H6    H     H_    0.645226 0.754327 0.914283 0.125731
H7    H     H_    0.089248 0.740658 0.352340 0.183493
H8    H     H_    0.876571 0.243514 0.612285 0.179642
C17   C     C_R   0.384105 0.960219 0.120270 -0.149109
C18   C     C_R   0.616086 0.030164 0.878273 -0.049144
C19   C     C_R   0.115551 0.457022 0.378305 -0.137267
C20   C     C_R   0.880652 0.537407 0.617182 -0.106903
C21   C     C_R   0.403186 0.800696 0.085034 -0.003150
C22   C     C_R   0.570973 0.175981 0.884919 -0.027345
C23   C     C_R   0.099428 0.301423 0.418191 0.015384
C24   C     C_R   0.908103 0.696326 0.589080 0.013245
C25   C     C_R   0.448070 0.819349 0.037529 -0.159178
C26   C     C_R   0.528098 0.163336 0.934612 -0.215697
C27   C     C_R   0.053651 0.322474 0.464400 -0.157380
C28   C     C_R   0.952901 0.678650 0.541914 -0.197941
H9    H     H_    0.459822 0.698485 0.009263 0.138505
H10   H     H_    0.493589 0.274684 0.938626 0.113910
H11   H     H_    0.045925 0.207170 0.497545 0.151697
H12   H     H_    0.974970 0.803582 0.524576 0.108432
C29   C     C_R   0.478017 0.989605 0.026140 0.040776
C30   C     C_R   0.526057 0.004416 0.975712 0.106527
C31   C     C_R   0.018717 0.487459 0.468751 0.044935
C32   C     C_R   0.970083 0.504554 0.518752 0.090813
C33   C     C_R   0.087333 0.972335 0.109498 -0.120267
C34   C     C_R   0.912437 0.038325 0.891048 -0.177786
C35   C     C_R   0.411660 0.469731 0.391839 -0.121232
C36   C     C_R   0.586862 0.537625 0.609946 -0.161548
C37   C     C_R   0.033603 0.017864 0.914833 -0.034221
C38   C     C_R   0.970510 0.061703 0.084385 -0.072929
C39   C     C_R   0.466443 0.578447 0.582840 -0.038032
C40   C     C_R   0.532684 0.485489 0.417765 -0.066652
C41   C     C_R   0.974175 0.044112 0.867696 -0.101741
C42   C     C_R   0.028491 0.028881 0.132396 -0.044857
C43   C     C_R   0.526778 0.596386 0.629629 -0.052999
C44   C     C_R   0.473946 0.470258 0.369405 -0.038721
C45   C     C_R   0.909857 0.035543 0.962643 -0.052887
C46   C     C_R   0.089497 0.959942 0.037831 -0.091056
C47   C     C_R   0.588098 0.481492 0.541249 -0.068423
C48   C     C_R   0.407777 0.496703 0.462658 -0.085132
C49   C     C_R   0.969927 0.031757 0.011906 0.046712
C50   C     C_R   0.031759 0.000092 0.987790 0.024764
C51   C     C_R   0.529841 0.495278 0.490293 0.041261
C52   C     C_R   0.466981 0.522133 0.512437 0.021944
C53   C     C_2   0.378897 0.610913 0.095867 0.322021
H13   H     H_    0.375621 0.560140 0.147187 0.107431
O21   O     O_2   0.364625 0.505868 0.047140 -0.563982
C54   C     C_2   0.562449 0.336972 0.837859 0.388300
H14   H     H_    0.548075 0.469713 0.856531 0.064327
O22   O     O_2   0.566969 0.320014 0.776886 -0.521660
C55   C     C_2   0.128265 0.114017 0.414963 0.315014
H15   H     H_    0.138556 0.055470 0.367190 0.127775
O23   O     O_2   0.137653 0.016646 0.466400 -0.570107
C56   C     C_2   0.890057 0.884668 0.604431 0.416092
H16   H     H_    0.868591 0.972560 0.562244 -0.028257
O24   O     O_2   0.901316 0.943802 0.663148 -0.515785
C57   C     C_R   0.152696 0.897779 0.017483 0.079483
C58   C     C_R   0.204837 0.024624 0.014812 -0.141401
C59   C     C_R   0.261959 0.968928 0.989499 -0.126185
C60   C     C_R   0.268451 0.785126 0.969708 -0.053212
C61   C     C_R   0.218919 0.655160 0.977485 -0.107068
C62   C     C_R   0.160936 0.711188 0.001164 -0.141146
H17   H     H_    0.199769 0.167954 0.029100 0.114678
H18   H     H_    0.300840 0.068650 0.984449 0.146250
H19   H     H_    0.312185 0.743181 0.948860 0.145121
H20   H     H_    0.224921 0.511947 0.963939 0.124731
H21   H     H_    0.121869 0.610922 0.004985 0.105361
C63   C     C_R   0.843331 0.024018 0.984322 0.091636
C64   C     C_R   0.802449 0.180627 0.980347 -0.111271
C65   C     C_R   0.742685 0.173861 0.006953 -0.110053
C66   C     C_R   0.722866 0.010115 0.036316 -0.079147
C67   C     C_R   0.761229 0.850574 0.036357 -0.150622
C68   C     C_R   0.821373 0.857157 0.010328 -0.130474
H22   H     H_    0.818292 0.309663 0.959487 0.107859
H23   H     H_    0.712245 0.296215 0.005762 0.099197
H24   H     H_    0.677319 0.006317 0.058286 0.116138
H25   H     H_    0.744899 0.722852 0.057663 0.105204
H26   H     H_    0.851668 0.734318 0.012077 0.103368
C69   C     C_R   0.341104 0.481023 0.483211 0.070125
C70   C     C_R   0.298737 0.634263 0.478170 -0.124861
C71   C     C_R   0.238044 0.621334 0.502691 -0.119223
C72   C     C_R   0.218386 0.454601 0.529938 -0.087187
C73   C     C_R   0.258293 0.298287 0.530473 -0.124103
C74   C     C_R   0.319569 0.310936 0.507037 -0.153375
H27   H     H_    0.314029 0.765086 0.458199 0.116908
H28   H     H_    0.206727 0.741014 0.501696 0.181556
H29   H     H_    0.171944 0.446214 0.550110 0.138689
H30   H     H_    0.242134 0.168346 0.550097 0.150825
H31   H     H_    0.350924 0.190211 0.509090 0.109301
C75   C     C_R   0.649029 0.391425 0.525241 0.111380
C76   C     C_R   0.705562 0.497302 0.517928 -0.129946
C77   C     C_R   0.759868 0.413762 0.495298 -0.101462
C78   C     C_R   0.760107 0.222558 0.484731 -0.101269
C79   C     C_R   0.705506 0.114858 0.495879 -0.137888
C80   C     C_R   0.649673 0.199024 0.515247 -0.100395
H32   H     H_    0.706067 0.645343 0.526242 0.087857
H33   H     H_    0.801523 0.497756 0.485302 0.116846
H34   H     H_    0.802440 0.158183 0.467563 0.097295
H35   H     H_    0.705938 0.966880 0.488119 0.099799
H36   H     H_    0.606737 0.115109 0.521588 0.102067
C81   C     C_2   0.027740 0.060624 0.207525 0.306949
H37   H     H_    0.000653 0.175809 0.224726 0.072556
O25   O     O_2   0.055912 0.955196 0.250815 -0.567538
C82   C     C_2   0.975201 0.090098 0.793442 0.454900
H38   H     H_    0.939153 0.185814 0.767090 0.065656
O26   O     O_2   0.014504 0.019600 0.760408 -0.505276
C83   C     C_2   0.478262 0.460015 0.294292 0.286018
H39   H     H_    0.513785 0.545216 0.272200 0.070115
O27   O     O_2   0.443860 0.351202 0.256966 -0.556933
C84   C     C_2   0.528304 0.679878 0.699824 0.427319
H40   H     H_    0.569209 0.768209 0.721599 0.055487
O28   O     O_2   0.484922 0.648459 0.734923 -0.523754
C85   C     C_R   0.096671 0.038411 0.886308 0.141796
C86   C     C_R   0.122777 0.887522 0.854391 -0.003407
C87   C     C_R   0.178034 0.912058 0.820855 -0.090415
C88   C     C_R   0.207080 0.087384 0.818170 -0.087374
C89   C     C_R   0.180744 0.238662 0.848787 -0.107838
C90   C     C_R   0.125551 0.214774 0.882560 -0.138268
H41   H     H_    0.099725 0.751960 0.854825 0.097167
H42   H     H_    0.198161 0.795124 0.796828 0.093546
H43   H     H_    0.249765 0.106226 0.792046 0.103366
H44   H     H_    0.202763 0.374711 0.845769 0.101946
H45   H     H_    0.104796 0.333482 0.905014 0.093196
C91   C     C_R   0.914539 0.152136 0.111550 0.094280
C92   C     C_R   0.876286 0.052777 0.153401 -0.102369
C93   C     C_R   0.827589 0.142575 0.183789 -0.107198
C94   C     C_R   0.817554 0.332440 0.173684 -0.097038
C95   C     C_R   0.856412 0.432895 0.133460 -0.124692
C96   C     C_R   0.904870 0.343522 0.102534 -0.139018
H46   H     H_    0.884566 0.906381 0.162635 0.104502
H47   H     H_    0.797905 0.065183 0.215481 0.097850
H48   H     H_    0.780016 0.401989 0.197426 0.095366
H49   H     H_    0.849351 0.580290 0.126807 0.103782
H50   H     H_    0.935270 0.423294 0.072222 0.108294
C97   C     C_R   0.405653 0.644792 0.607677 0.141499
C98   C     C_R   0.369243 0.525223 0.644849 -0.000689
C99   C     C_R   0.316854 0.593372 0.675658 -0.094397
C100  C     C_R   0.301492 0.781621 0.670923 -0.083965
C101  C     C_R   0.338673 0.902045 0.635702 -0.104173
C102  C     C_R   0.390469 0.834214 0.603932 -0.132562
H51   H     H_    0.382189 0.380326 0.650671 0.100920
H52   H     H_    0.288637 0.500617 0.703779 0.097618
H53   H     H_    0.261304 0.834651 0.695201 0.103338
H54   H     H_    0.328115 0.048446 0.634129 0.099157
H55   H     H_    0.419824 0.929351 0.577974 0.097859
C103  C     C_R   0.595588 0.517447 0.389686 0.093155
C104  C     C_R   0.625054 0.373259 0.357349 -0.098005
C105  C     C_R   0.681522 0.407933 0.326657 -0.109314
C106  C     C_R   0.708441 0.586684 0.327336 -0.100867
C107  C     C_R   0.678768 0.731274 0.358412 -0.132949
C108  C     C_R   0.622331 0.697238 0.389257 -0.146923
H56   H     H_    0.604183 0.234691 0.355968 0.110074
H57   H     H_    0.704362 0.296293 0.302297 0.097849
H58   H     H_    0.752149 0.613313 0.303568 0.097696
H59   H     H_    0.699338 0.869893 0.358326 0.106163
H60   H     H_    0.599242 0.810643 0.412456 0.107205

loop_
_geom_bond_atom_site_label_1
_geom_bond_atom_site_label_2
_ccdc_geom_bond_type
C95   H49   S    
C26   H10   S    
C44   C83   S    
C47   C51   A    
C61   H20   S    
O1    C5    A    
C103  C104  A    
C23   C27   A    
O19   V1    S    
O13   V1    S    
C92   C93   A    
C61   C62   A    
O3    C7    A    
C55   H15   S    
C10   C14   A    
C24   C56   S    
C51   C52   A    
O15   V3    S    
C10   C30   A    
C38   C91   S    
C65   C66   A    
C9    C29   A    
C76   C77   A    
C49   C50   A    
C73   H30   S    
C48   C69   S    
O7    C3    A    
C57   C58   A    
C96   H50   S    
O9    V1    S    
C82   O26   D    
C64   C65   A    
C36   C43   A    
C79   H35   S    
C22   C26   A    
C63   C68   A    
O4    C8    A    
C7    C17   S    
C93   C94   A    
C66   C67   A    
C56   H16   S    
C37   C85   S    
O1    V3    S    
C67   C68   A    
O2    V4    S    
C14   H6    S    
O3    V1    S    
C34   C45   A    
C100  C101  A    
C35   C44   A    
C47   C75   S    
C33   C46   A    
C42   C81   S    
C27   C31   A    
C104  H56   S    
C71   H28   S    
C26   C30   A    
C85   C86   A    
C87   C88   A    
C2    O16   A    
O2    C6    A    
C92   H46   S    
C59   H18   S    
O14   V2    S    
C105  C106  A    
C53   O21   D    
C11   C15   A    
C84   O28   D    
C65   H23   S    
C78   C79   A    
C93   H47   S    
C16   C20   A    
O11   C7    A    
C107  C108  A    
C83   H39   S    
O12   C8    A    
C34   C41   A    
C33   C42   A    
C76   H32   S    
C104  C105  A    
O10   V2    S    
C13   C17   A    
C63   C64   A    
C81   O25   D    
C1    O15   A    
C81   H37   S    
O5    V1    S    
C62   H21   S    
C8    C18   S    
C91   C96   A    
C78   H34   S    
O7    V3    S    
C67   H25   S    
C20   C24   A    
C31   C32   S    
O8    V4    S    
C40   C44   A    
C69   C70   A    
C16   H8    S    
C82   H38   S    
C23   C55   S    
C98   H51   S    
C75   C80   A    
C21   C25   A    
O18   V4    S    
C99   C100  A    
C9    H1    S    
C90   H45   S    
C35   C48   A    
C11   H3    S    
C68   H26   S    
C101  C102  A    
O5    C1    A    
C77   H33   S    
C80   H36   S    
C107  H59   S    
C41   C82   S    
C45   C63   S    
C11   C31   A    
C87   H42   S    
O8    C4    A    
C54   O22   D    
O9    C5    A    
C58   H17   S    
C18   C22   A    
C88   H43   S    
O11   V3    S    
C94   C95   A    
C84   H40   S    
C103  C108  A    
C14   C18   A    
C86   H41   S    
C91   C92   A    
O6    V2    S    
C29   C30   S    
C56   O24   D    
C21   C53   S    
C86   C87   A    
C12   C16   A    
C73   C74   A    
C5    C19   S    
C12   H4    S    
C39   C97   S    
C95   C96   A    
C6    C20   S    
C97   C102  A    
O16   V4    S    
C57   C62   A    
C4    C34   S    
C55   O23   D    
C3    O13   A    
C13   H5    S    
C1    C35   S    
C10   H2    S    
O17   V3    S    
C48   C52   A    
C25   C29   A    
C77   C78   A    
C60   C61   A    
O6    C2    A    
C40   C51   A    
C99   H52   S    
C12   C32   A    
C25   H9    S    
C75   C76   A    
C97   C98   A    
O12   V4    S    
C94   H48   S    
C27   H11   S    
C28   H12   S    
C9    C13   A    
C88   C89   A    
O10   C6    A    
O20   V2    S    
C3    C33   S    
C89   C90   A    
C101  H54   S    
C105  H57   S    
C43   C84   S    
C46   C50   A    
C15   C19   A    
C69   C74   A    
C71   C72   A    
C15   H7    S    
C72   H29   S    
C72   C73   A    
C17   C21   A    
C54   H14   S    
C46   C57   S    
C70   H27   S    
C19   C23   A    
C100  H53   S    
C83   O27   D    
C38   C49   A    
C66   H24   S    
C58   C59   A    
C108  H60   S    
C45   C49   A    
C37   C50   A    
C36   C47   A    
C40   C103  S    
C79   C80   A    
C89   H44   S    
C64   H22   S    
C24   C28   A    
C39   C52   A    
C28   C32   A    
C106  C107  A    
C38   C42   A    
C4    O14   A    
C59   C60   A    
C37   C41   A    
C60   H19   S    
C53   H13   S    
C74   H31   S    
C39   C43   A    
C85   C90   A    
C102  H55   S    
C22   C54   S    
O4    V2    S    
C98   C99   A    
C106  H58   S    
C70   C71   A    
C2    C36   S    
