data_str_m3_o40_o41_f0_fof.sym.10
_audit_creation_date              2012-12-10T16:37:46-0500
_audit_creation_method            fapswitch 2.2
_symmetry_space_group_name_H-M    P1
_symmetry_Int_Tables_number       1
_space_group_crystal_system       triclinic
_cell_length_a                    28.231368
_cell_length_b                    18.492493
_cell_length_c                    16.907797
_cell_angle_alpha                 90.187993
_cell_angle_beta                  60.89456
_cell_angle_gamma                 90.163338
_cell_volume                      7712.3531286

loop_
_atom_site_label
_atom_site_type_symbol
_atom_type_description
_atom_site_fract_x
_atom_site_fract_y
_atom_site_fract_z
_atom_type_partial_charge
C1    C     C_R   0.700157 0.264494 0.677245 0.892856
C2    C     C_R   0.083936 0.499885 0.545879 0.066450
C3    C     C_R   0.184865 0.227645 0.914668 0.070782
C4    C     C_R   0.663314 0.400112 0.989064 -0.193198
C5    C     C_R   0.340064 0.610025 0.005663 -0.199531
C6    C     C_R   0.340701 0.395019 0.004016 -0.202254
C7    C     C_R   0.616453 0.670668 0.050649 -0.199665
C8    C     C_R   0.163292 0.899962 0.989082 -0.193185
C9    C     C_R   0.840192 0.110251 0.005419 -0.200967
C10   C     C_R   0.840551 0.895462 0.004111 -0.203238
C11   C     C_R   0.117251 0.169521 0.050142 -0.200537
C12   C     C_R   0.693552 0.385159 0.031962 -0.218273
C13   C     C_R   0.420324 0.000904 0.435522 0.069623
C14   C     C_R   0.309436 0.625190 0.964184 -0.221381
C15   C     C_R   0.311285 0.379781 0.960365 -0.224447
C16   C     C_R   0.647459 0.682087 0.093126 -0.230028
C17   C     C_R   0.193512 0.884958 0.031991 -0.218273
C18   C     C_R   0.809650 0.125529 0.963829 -0.221892
C19   C     C_R   0.810973 0.880452 0.960666 -0.224695
C20   C     C_R   0.148498 0.180505 0.092252 -0.229611
C21   C     C_R   0.738425 0.191669 0.798726 -0.195240
C22   C     C_R   0.263760 0.814595 0.201054 -0.194182
C23   C     C_R   0.261433 0.190403 0.199855 -0.187521
C24   C     C_R   0.599052 0.000669 0.498506 0.065573
C25   C     C_R   0.742789 0.807408 0.793560 -0.196531
C26   C     C_R   0.238178 0.691379 0.798917 -0.194834
C27   C     C_R   0.763824 0.314692 0.201045 -0.194266
C28   C     C_R   0.760669 0.691287 0.200470 -0.196170
C29   C     C_R   0.243070 0.307007 0.793386 -0.197269
C30   C     C_R   0.771025 0.177673 0.838189 0.196220
C31   C     C_R   0.232576 0.831536 0.159342 0.196783
C32   C     C_R   0.232839 0.171663 0.153775 0.201272
C33   C     C_R   0.774656 0.821041 0.834372 0.187453
C34   C     C_R   0.270682 0.677175 0.838523 0.194897
C35   C     C_R   0.078010 0.369328 0.556201 -0.239436
C36   C     C_R   0.732679 0.331722 0.159286 0.196422
C37   C     C_R   0.731745 0.672935 0.154842 0.196985
C38   C     C_R   0.275075 0.320433 0.833987 0.187843
C39   C     C_R   0.072520 0.102189 0.936088 0.914261
C40   C     C_R   0.921254 0.906917 0.070517 0.921884
C41   C     C_R   0.921679 0.094287 0.070207 0.898935
C42   C     C_R   0.079293 0.908064 0.928763 0.938027
C43   C     C_R   0.572420 0.602297 0.936170 0.913970
C44   C     C_R   0.421291 0.406865 0.070500 0.921266
C45   C     C_R   0.421676 0.594279 0.070213 0.899061
C46   C     C_R   0.921914 0.630676 0.444128 -0.239569
C47   C     C_R   0.579302 0.408085 0.928757 0.937685
C48   C     C_R   0.541574 0.129071 0.515862 0.107939
C49   C     C_R   0.478665 0.872502 0.412965 0.113452
C50   C     C_R   0.462802 0.131858 0.460367 0.106831
C51   C     C_R   0.572977 0.875280 0.431110 0.104741
C52   C     C_R   0.038132 0.631124 0.531760 0.108027
C53   C     C_R   0.961754 0.368877 0.468645 0.108942
C54   C     C_R   0.961171 0.631301 0.471697 0.107044
C55   C     C_R   0.038702 0.368702 0.528740 0.107324
C56   C     C_R   0.516755 0.194533 0.515224 -0.200705
C57   C     C_R   0.922389 0.369661 0.441335 -0.240107
C58   C     C_R   0.510855 0.810324 0.394406 -0.206391
C59   C     C_R   0.479228 0.196373 0.483905 -0.199341
C60   C     C_R   0.558316 0.812162 0.401465 -0.202194
C61   C     C_R   0.018012 0.696721 0.518737 -0.199227
C62   C     C_R   0.981825 0.303280 0.481780 -0.203249
C63   C     C_R   0.980939 0.696825 0.486387 -0.200992
C64   C     C_R   0.018885 0.303179 0.514157 -0.201252
C65   C     C_R   0.485936 0.066096 0.464002 0.031568
C66   C     C_R   0.541266 0.937557 0.449315 0.033042
C67   C     C_R   0.527829 0.065352 0.486254 0.030301
C68   C     C_R   0.077550 0.630339 0.558956 -0.238368
C69   C     C_R   0.495508 0.936907 0.436363 0.031903
C70   C     C_R   0.979861 0.565603 0.487296 0.031794
C71   C     C_R   0.020023 0.434398 0.513108 0.031484
C72   C     C_R   0.019719 0.565525 0.514655 0.031286
C73   C     C_R   0.980168 0.434476 0.485740 0.031441
C74   C     C_R   0.959419 0.500078 0.473974 -0.051830
C75   C     C_R   0.040483 0.499923 0.526383 -0.051696
C76   C     C_R   0.467561 0.001264 0.444366 -0.052363
C77   C     C_R   0.555768 0.001010 0.478869 -0.050899
C78   C     C_R   0.893878 0.434003 0.445717 0.058313
C79   C     C_R   0.618736 0.877085 0.442826 -0.240733
C80   C     C_R   0.106080 0.565998 0.554492 0.057830
C81   C     C_R   0.106303 0.433774 0.553303 0.058065
C82   C     C_R   0.893649 0.566227 0.446923 0.058400
C83   C     C_R   0.397619 0.934617 0.428325 0.059593
C84   C     C_R   0.612911 0.064447 0.529233 0.063972
C85   C     C_R   0.629508 0.937191 0.484762 0.051325
C86   C     C_R   0.395179 0.066961 0.436771 0.054846
C87   C     C_R   0.843273 0.434912 0.445288 -0.113996
C88   C     C_R   0.156722 0.565089 0.554788 -0.114694
C89   C     C_R   0.156837 0.434910 0.554184 -0.114374
C90   C     C_R   0.422693 0.131859 0.435245 -0.241179
C91   C     C_R   0.843155 0.565087 0.445900 -0.113983
C92   C     C_R   0.343906 0.934966 0.439833 -0.117553
C93   C     C_R   0.660136 0.064010 0.540146 -0.114712
C94   C     C_R   0.669584 0.936878 0.513424 -0.100631
C95   C     C_R   0.342949 0.065354 0.442938 -0.114322
C96   C     C_R   0.820465 0.499939 0.441265 -0.307479
C97   C     C_R   0.179553 0.500061 0.558738 -0.306300
C98   C     C_R   0.319238 0.000033 0.441867 -0.302661
C99   C     C_R   0.684101 0.999660 0.540203 -0.310542
C100  C     C_3   0.822078 0.135235 0.778940 -0.945502
C101  C     C_R   0.429776 0.871381 0.409697 -0.247594
C102  C     C_3   0.182362 0.875896 0.216975 -0.945655
C103  C     C_3   0.207364 0.097345 0.172780 -0.966908
C104  C     C_3   0.829525 0.854630 0.773505 -0.942784
C105  C     C_3   0.321544 0.634311 0.779491 -0.941997
C106  C     C_3   0.682505 0.376161 0.216882 -0.944307
C107  C     C_3   0.705792 0.598903 0.174358 -0.966235
C108  C     C_3   0.329877 0.354175 0.773092 -0.943287
C109  C     C_R   0.300213 0.736602 0.322798 0.888084
C110  C     C_R   0.580521 0.126722 0.544013 -0.236745
C111  C     C_R   0.724276 0.272847 0.949470 -0.025205
C112  C     C_R   0.279355 0.737121 0.047242 -0.025144
C113  C     C_R   0.274249 0.273497 0.052298 -0.026616
C114  C     C_R   0.714124 0.745180 0.961266 -0.024088
C115  C     C_R   0.224121 0.772563 0.949614 -0.025146
C116  C     C_R   0.779489 0.237364 0.047112 -0.025317
C117  C     C_R   0.773527 0.774478 0.053015 -0.026002
C118  C     C_R   0.214835 0.244130 0.960594 -0.024050
C119  C     C_R   0.760224 0.213140 0.920853 0.017827
C120  C     C_R   0.299590 0.264748 0.322841 0.892670
C121  C     C_R   0.243579 0.797181 0.075841 0.018132
C122  C     C_R   0.235062 0.217798 0.084391 0.020642
C123  C     C_R   0.758208 0.794032 0.922852 0.021881
C124  C     C_R   0.259979 0.712743 0.921107 0.017882
C125  C     C_R   0.743698 0.297418 0.075748 0.018068
C126  C     C_R   0.734084 0.719080 0.085389 0.020213
C127  C     C_R   0.258809 0.293141 0.922270 0.021723
C128  C     C_R   0.784721 0.193022 0.974252 0.075362
C129  C     C_R   0.218903 0.817486 0.022170 0.071551
C130  C     C_R   0.200223 0.211502 0.045379 0.072968
C131  C     C_R   0.700635 0.734440 0.677362 0.915054
C132  C     C_R   0.782201 0.815599 0.976368 0.076483
C133  C     C_R   0.284513 0.692680 0.974496 0.075476
C134  C     C_R   0.719012 0.317732 0.022082 0.071571
C135  C     C_R   0.699272 0.712879 0.046309 0.073314
C136  C     C_R   0.282787 0.314722 0.975789 0.076256
C137  C     C_R   0.660016 0.350070 0.929178 0.080163
C138  C     C_R   0.343139 0.658135 0.067062 0.087489
C139  C     C_R   0.340981 0.348046 0.068915 0.086334
C140  C     C_R   0.637358 0.685232 0.957376 0.084352
C141  C     C_R   0.159958 0.849930 0.929226 0.080139
C142  C     C_R   0.200141 0.764464 0.677249 0.891939
C143  C     C_R   0.843209 0.158264 0.066959 0.087368
C144  C     C_R   0.840706 0.848501 0.069125 0.085883
C145  C     C_R   0.137875 0.184490 0.957017 0.084075
C146  C     C_R   0.625402 0.359840 0.890403 -0.140063
C147  C     C_R   0.376781 0.645344 0.107191 -0.130165
C148  C     C_R   0.375025 0.358662 0.108617 -0.136266
C149  C     C_R   0.612690 0.660123 0.905410 -0.136649
C150  C     C_R   0.125366 0.859773 0.890422 -0.140191
C151  C     C_R   0.876797 0.145373 0.107167 -0.131004
C152  C     C_R   0.874873 0.858873 0.108677 -0.137626
C153  C     C_R   0.800213 0.236604 0.322804 0.890580
C154  C     C_R   0.112927 0.159826 0.905280 -0.135914
C155  C     C_R   0.634311 0.322006 0.814336 -0.296324
C156  C     C_R   0.367250 0.681693 0.184538 -0.300342
C157  C     C_R   0.364932 0.322504 0.186073 -0.298050
C158  C     C_R   0.631603 0.683137 0.817678 -0.301618
C159  C     C_R   0.134275 0.821967 0.814337 -0.295954
C160  C     C_R   0.867229 0.181653 0.184571 -0.300333
C161  C     C_R   0.864775 0.822654 0.186086 -0.299814
C162  C     C_R   0.131668 0.183096 0.817696 -0.305192
C163  C     C_R   0.676753 0.274381 0.775370 -0.117217
C164  C     C_R   0.799526 0.764866 0.322857 0.876166
C165  C     C_R   0.324645 0.729311 0.224126 -0.116695
C166  C     C_R   0.322046 0.275343 0.225414 -0.115237
C167  C     C_R   0.676158 0.727819 0.776435 -0.116317
C168  C     C_R   0.176689 0.774296 0.775397 -0.116766
C169  C     C_R   0.824649 0.229310 0.224137 -0.117024
C170  C     C_R   0.821796 0.775661 0.225530 -0.109021
C171  C     C_R   0.176275 0.227667 0.776392 -0.112113
C172  C     C_R   0.702668 0.250415 0.825801 0.031354
C173  C     C_R   0.299595 0.755740 0.173140 0.030153
C174  C     C_R   0.295267 0.251652 0.175985 0.027120
C175  C     C_R   0.200658 0.234394 0.677359 0.895795
C176  C     C_R   0.701045 0.755356 0.827415 0.027647
C177  C     C_R   0.202533 0.750233 0.825899 0.031412
C178  C     C_R   0.799639 0.255814 0.173124 0.029699
C179  C     C_R   0.794761 0.752296 0.176377 0.024084
C180  C     C_R   0.201347 0.254920 0.827210 0.028651
C181  C     C_R   0.691754 0.128971 0.532246 0.895741
C182  C     C_R   0.309009 0.870474 0.463813 0.891651
C183  C     C_R   0.308397 0.129271 0.465704 0.901510
C184  C     C_R   0.696593 0.871947 0.517193 0.912935
C185  C     C_R   0.191383 0.629261 0.534295 0.898525
C186  C     C_R   0.915999 0.500116 0.454392 0.066075
C187  C     C_R   0.808613 0.370743 0.465730 0.896131
C188  C     C_R   0.808550 0.629154 0.465969 0.899997
C189  C     C_R   0.191445 0.370841 0.534058 0.902170
C190  C     C_R   0.695204 0.290336 0.902293 0.075649
C191  C     C_R   0.308004 0.718075 0.094868 0.073810
C192  C     C_R   0.303900 0.290289 0.098457 0.072779
C193  C     C_R   0.684341 0.728417 0.915098 0.071310
C194  C     C_R   0.195085 0.790129 0.902394 0.075654
C195  C     C_R   0.808086 0.218223 0.094790 0.073750
C196  C     C_R   0.803375 0.791008 0.098927 0.071967
H1    H     H_    0.033219 0.251931 0.525248 0.136673
H2    H     H_    0.218240 0.500155 0.557760 0.193151
H3    H     H_    0.278744 0.999795 0.449857 0.196137
H4    H     H_    0.716954 0.999247 0.556197 0.191058
H5    H     H_    0.085232 0.318712 0.579906 0.177467
H6    H     H_    0.914731 0.681297 0.420385 0.177546
H7    H     H_    0.915115 0.319270 0.416769 0.174747
H8    H     H_    0.084862 0.680728 0.583476 0.175770
H9    H     H_    0.645623 0.831345 0.416699 0.184066
H10   H     H_    0.414009 0.183394 0.415741 0.179090
H11   H     H_    0.418309 0.821460 0.390117 0.168630
H12   H     H_    0.966569 0.748075 0.475374 0.136462
H13   H     H_    0.584273 0.173984 0.578217 0.172646
H14   H     H_    0.610865 0.334339 0.780832 0.189293
H15   H     H_    0.389835 0.667456 0.218952 0.187021
H16   H     H_    0.388313 0.335216 0.219701 0.189809
H17   H     H_    0.613338 0.662026 0.778821 0.193012
H18   H     H_    0.110859 0.834362 0.780796 0.189118
H19   H     H_    0.889774 0.167343 0.219029 0.187655
H20   H     H_    0.888269 0.835150 0.219577 0.190401
H21   H     H_    0.113224 0.162273 0.778978 0.191345
H22   H     H_    0.645036 0.453076 0.000002 0.174005
H23   H     H_    0.967675 0.252106 0.469589 0.135220
H24   H     H_    0.358572 0.558102 0.992392 0.158405
H25   H     H_    0.361579 0.445412 0.987337 0.161989
H26   H     H_    0.575555 0.652230 0.093755 0.174861
H27   H     H_    0.145063 0.952957 0.999978 0.174009
H28   H     H_    0.858687 0.058323 0.992077 0.158677
H29   H     H_    0.861694 0.945654 0.987108 0.162269
H30   H     H_    0.076371 0.151177 0.093528 0.175978
H31   H     H_    0.698101 0.428609 0.070253 0.169003
H32   H     H_    0.304469 0.581887 0.926107 0.163773
H33   H     H_    0.310142 0.420843 0.916165 0.161839
H34   H     H_    0.032139 0.747894 0.530976 0.136928
H35   H     H_    0.629358 0.669481 0.164340 0.162757
H36   H     H_    0.198097 0.928395 0.070266 0.169106
H37   H     H_    0.804763 0.082323 0.925539 0.163983
H38   H     H_    0.809965 0.921506 0.916345 0.161786
H39   H     H_    0.130590 0.167539 0.163340 0.165740
H40   H     H_    0.743258 0.156910 0.743772 0.175889
H41   H     H_    0.258088 0.847420 0.258035 0.174028
H42   H     H_    0.259695 0.153630 0.250879 0.170703
H43   H     H_    0.752292 0.838960 0.734226 0.186418
H44   H     H_    0.242969 0.656674 0.743940 0.175553
H45   H     H_    0.582590 0.763577 0.386545 0.138601
H46   H     H_    0.758145 0.347478 0.258059 0.174013
H47   H     H_    0.758956 0.654349 0.251318 0.174190
H48   H     H_    0.252423 0.338778 0.734272 0.184936
H49   H     H_    0.855556 0.149085 0.792893 0.254748
H50   H     H_    0.813401 0.076300 0.786131 0.227442
H51   H     H_    0.837724 0.149303 0.706545 0.243356
H52   H     H_    0.192012 0.934435 0.207070 0.236883
H53   H     H_    0.148605 0.861845 0.203815 0.254938
H54   H     H_    0.166584 0.864071 0.289985 0.241126
H55   H     H_    0.168016 0.098135 0.236574 0.237706
H56   H     H_    0.461267 0.247613 0.482049 0.137110
H57   H     H_    0.201926 0.076672 0.116066 0.253823
H58   H     H_    0.234400 0.057891 0.180614 0.240061
H59   H     H_    0.825753 0.914229 0.771161 0.227294
H60   H     H_    0.859958 0.839872 0.794200 0.257033
H61   H     H_    0.846125 0.833633 0.703298 0.244216
H62   H     H_    0.355138 0.648153 0.793149 0.255498
H63   H     H_    0.312644 0.575438 0.787209 0.226940
H64   H     H_    0.337154 0.647966 0.706990 0.244227
H65   H     H_    0.692194 0.434687 0.206845 0.236312
H66   H     H_    0.648718 0.362083 0.203809 0.255065
H67   H     H_    0.499336 0.760353 0.374611 0.135787
H68   H     H_    0.666748 0.364442 0.289912 0.241408
H69   H     H_    0.666334 0.600273 0.237927 0.235170
H70   H     H_    0.700472 0.578081 0.117585 0.254645
H71   H     H_    0.732429 0.559215 0.182900 0.240274
H72   H     H_    0.325997 0.413759 0.770788 0.227563
H73   H     H_    0.360360 0.339572 0.793738 0.256783
H74   H     H_    0.346475 0.333169 0.702890 0.243929
H75   H     H_    0.527522 0.244464 0.536341 0.137904
H76   H     H_    0.781810 0.499843 0.442130 0.193263
O1    O     O_R   0.746490 0.236330 0.638080 -0.632012
O2    O     O_R   0.325830 0.813840 0.483730 -0.629006
O3    O     O_R   0.325830 0.186160 0.483730 -0.639242
O4    O     O_R   0.674170 0.813840 0.516270 -0.641845
O5    O     O_R   0.174170 0.686160 0.516270 -0.636099
O6    O     O_R   0.825830 0.313840 0.483730 -0.636866
O7    O     O_R   0.825830 0.686160 0.483730 -0.638493
O8    O     O_R   0.174170 0.313840 0.516270 -0.637514
O9    O     O_R   0.739960 0.127620 0.525000 -0.626313
O10   O     O_R   0.260040 0.872380 0.475000 -0.629984
O11   O     O_R   0.260040 0.127620 0.475000 -0.631092
O12   O     O_R   0.253510 0.763670 0.361920 -0.630904
O13   O     O_R   0.739960 0.872380 0.525000 -0.634137
O14   O     O_R   0.239960 0.627620 0.525000 -0.628271
O15   O     O_R   0.760040 0.372380 0.475000 -0.629177
O16   O     O_R   0.760040 0.627620 0.475000 -0.627859
O17   O     O_R   0.239960 0.372380 0.525000 -0.628025
O18   O     O_R   0.680700 0.294870 0.629350 -0.622501
O19   O     O_R   0.319300 0.705130 0.370650 -0.625742
O20   O     O_R   0.319300 0.294870 0.370650 -0.625047
O21   O     O_R   0.680700 0.705130 0.629350 -0.614626
O22   O     O_R   0.180700 0.794870 0.629350 -0.623657
O23   O     O_R   0.253510 0.236330 0.361920 -0.630747
O24   O     O_R   0.819300 0.205130 0.370650 -0.625004
O25   O     O_R   0.819300 0.794870 0.370650 -0.628825
O26   O     O_R   0.180700 0.205130 0.629350 -0.625692
O27   O     O_R   0.062020 0.072840 0.007170 -0.645973
O28   O     O_R   0.937980 0.927160 0.992830 -0.634935
O29   O     O_R   0.937980 0.072840 0.992830 -0.637957
O30   O     O_R   0.062020 0.927160 0.007170 -0.624371
O31   O     O_R   0.562020 0.572840 0.007170 -0.646069
O32   O     O_R   0.437980 0.427160 0.992830 -0.635240
O33   O     O_R   0.437980 0.572840 0.992830 -0.637203
O34   O     O_R   0.746490 0.763670 0.638080 -0.637290
O35   O     O_R   0.562020 0.427160 0.007170 -0.624422
O36   O     O_R   0.947860 0.073950 0.109290 -0.626553
O37   O     O_R   0.052140 0.926050 0.890710 -0.613518
O38   O     O_R   0.052140 0.073950 0.890710 -0.615778
O39   O     O_R   0.947860 0.926050 0.109290 -0.615523
O40   O     O_R   0.447860 0.573950 0.109290 -0.626965
O41   O     O_R   0.552140 0.426050 0.890710 -0.613457
O42   O     O_R   0.552140 0.573950 0.890710 -0.614659
O43   O     O_R   0.447860 0.426050 0.109290 -0.615347
O44   O     O_R   0.246490 0.736330 0.638080 -0.631314
O45   O     O_R   0.753510 0.263670 0.361920 -0.631083
O46   O     O_R   0.753510 0.736330 0.361920 -0.648822
O47   O     O_R   0.246490 0.263670 0.638080 -0.638619
O48   O     O_R   0.674170 0.186160 0.516270 -0.635712
Zn1   Zn    Zn3+2 0.792340 0.208750 0.507670 0.934164
Zn2   Zn    Zn3+2 0.494040 0.500000 0.919480 0.936877
Zn3   Zn    Zn3+2 0.005960 0.000000 0.080520 0.925431
Zn4   Zn    Zn3+2 0.994040 0.000000 0.919480 0.933796
Zn5   Zn    Zn3+2 0.207660 0.791250 0.492330 0.935564
Zn6   Zn    Zn3+2 0.207660 0.208750 0.492330 0.938428
Zn7   Zn    Zn3+2 0.792340 0.791250 0.507670 0.930411
Zn8   Zn    Zn3+2 0.292340 0.708750 0.507670 0.939345
Zn9   Zn    Zn3+2 0.707660 0.291250 0.492330 0.938374
Zn10  Zn    Zn3+2 0.707660 0.708750 0.492330 0.937200
Zn11  Zn    Zn3+2 0.292340 0.291250 0.507670 0.931663
Zn12  Zn    Zn3+2 0.505960 0.500000 0.080520 0.925502

loop_
_geom_bond_atom_site_label_1
_geom_bond_atom_site_label_2
_ccdc_geom_bond_type
C91   C188  S    
O40   Zn12  S    
C58   H67   S    
C47   O41   A    
C45   O33   A    
C9    C143  A    
C120  C166  S    
C158  H17   S    
C60   H45   S    
C124  C133  A    
C50   C59   A    
C108  H73   S    
C52   C61   A    
O15   Zn9   S    
C54   C63   A    
C58   C60   A    
C131  O21   A    
C61   C63   A    
C117  C132  A    
C62   C64   A    
C100  H49   S    
C101  H11   S    
C91   C96   A    
C116  C195  A    
C93   C181  S    
C50   C90   A    
C113  C122  A    
C70   C74   A    
C78   C186  A    
C4    C12   A    
C24   C85   A    
C88   C97   A    
C119  C128  A    
C143  C151  A    
C162  H21   S    
C159  H18   S    
C49   C69   A    
C158  C167  A    
O2    Zn8   S    
C11   C20   A    
C166  C174  A    
C150  C159  A    
C39   C154  S    
C36   C106  S    
C137  C146  A    
C40   O28   A    
C127  C136  A    
C31   C121  A    
C139  C192  A    
C86   C90   A    
C71   C73   A    
C35   H5    S    
C12   H31   S    
O45   Zn9   S    
C160  H19   S    
C35   C55   A    
C173  C191  A    
C82   C91   A    
C51   C66   A    
O34   Zn7   S    
C52   C72   A    
C3    C118  A    
C54   C70   A    
C106  H68   S    
C61   H34   S    
C163  C172  A    
C65   C76   A    
C8    H27   S    
C131  O34   A    
O19   Zn8   S    
C63   H12   S    
C110  H13   S    
C27   H46   S    
C79   C85   A    
C109  O12   A    
C66   C77   A    
C34   C124  A    
C57   C78   A    
C185  O5    A    
C182  O10   A    
O39   Zn3   S    
C41   C151  S    
C142  O22   A    
C21   C172  A    
C8    C17   A    
C56   C59   A    
C103  H55   S    
C62   H23   S    
O30   Zn3   S    
C80   C88   A    
C100  H51   S    
C92   C182  S    
C112  C191  A    
O16   Zn10  S    
C95   C183  S    
C11   H30   S    
O23   Zn6   S    
C84   C93   A    
C48   C67   A    
C86   C95   A    
C142  C168  S    
C24   C77   A    
C103  H58   S    
C2    C81   A    
C47   O35   A    
C55   C71   A    
C2    C75   A    
C78   C87   A    
C48   C110  A    
C105  H62   S    
C123  C132  A    
C68   H8    S    
C33   C104  S    
C164  C170  S    
C138  C191  A    
C67   C77   A    
C27   C178  A    
C185  O14   A    
C23   C174  A    
C183  O11   A    
C98   H3    S    
O31   Zn12  S    
C21   H40   S    
C25   H43   S    
C30   C100  S    
C106  H66   S    
C40   C152  S    
C69   C76   A    
C111  C119  A    
C85   C94   A    
C6    C139  A    
C108  H72   S    
C18   C128  A    
C4    C137  A    
C46   C82   A    
O42   Zn2   S    
C29   C38   A    
C8    C141  A    
C176  C193  A    
C149  C158  A    
C152  C161  A    
C22   H41   S    
O22   Zn5   S    
C131  C167  S    
C12   C134  A    
C55   C64   A    
C156  H15   S    
C72   C75   A    
C17   H36   S    
C141  C150  A    
C139  C148  A    
C162  C171  A    
O9    Zn1   S    
C23   H42   S    
C87   C187  S    
C15   C136  A    
C155  C163  A    
C79   H9    S    
C140  C193  A    
C3    C180  A    
C107  H69   S    
O48   Zn9   S    
C10   C144  A    
C164  O25   A    
O11   Zn6   S    
C189  O17   A    
C145  C154  A    
C88   C185  S    
C115  C194  A    
C3    C145  A    
C105  H64   S    
C4    H22   S    
C116  C125  A    
O28   Zn4   S    
C118  C127  A    
C114  C123  A    
C19   H38   S    
C22   C173  A    
C37   C126  A    
C117  C126  A    
C26   C177  A    
C19   C132  A    
C113  C192  A    
C83   C101  A    
C43   O42   A    
C45   C147  S    
C154  C162  A    
C45   O40   A    
C111  C134  A    
C144  C196  A    
C14   C133  A    
C41   O36   A    
O1    Zn1   S    
C182  O2    A    
C170  C179  A    
O24   Zn1   S    
O3    Zn11  S    
C112  C121  A    
C144  C152  A    
C9    H28   S    
C28   C37   A    
C148  C157  A    
C50   C65   A    
C51   C79   A    
C47   C146  S    
C100  H50   S    
C137  C190  A    
C26   H44   S    
C9    C18   A    
C39   O27   A    
C51   C60   A    
C140  C149  A    
C174  C192  A    
O13   Zn7   S    
C125  C134  A    
C184  O4    A    
C102  H53   S    
C142  O44   A    
C73   C74   A    
O12   Zn5   S    
O41   Zn2   S    
C184  O13   A    
C104  H59   S    
C82   C186  A    
C37   C107  S    
C49   C101  A    
C7    C140  A    
O38   Zn4   S    
O44   Zn8   S    
C168  C177  A    
O37   Zn4   S    
C90   H10   S    
C146  C155  A    
C188  O16   A    
C65   C67   A    
C10   H29   S    
C160  C169  A    
C93   C99   A    
O25   Zn7   S    
C81   C89   A    
C64   H1    S    
C15   H33   S    
C94   C184  S    
C179  C196  A    
C153  O24   A    
C175  O47   A    
C189  O8    A    
C18   H37   S    
O33   Zn2   S    
C92   C98   A    
C31   C102  S    
C32   C122  A    
C177  C194  A    
C53   C57   A    
C43   O31   A    
C44   O32   A    
O5    Zn5   S    
C42   O30   A    
O6    Zn1   S    
C118  C130  A    
C10   C19   A    
C20   H39   S    
C143  C195  A    
C57   H7    S    
O29   Zn4   S    
C32   C103  S    
C147  C156  A    
C5    C14   A    
C109  C165  S    
C7    C16   A    
C161  H20   S    
C126  C135  A    
C42   O37   A    
C103  H57   S    
C120  O20   A    
C44   O43   A    
C109  O19   A    
C115  C124  A    
C16   H35   S    
C34   C105  S    
C155  H14   S    
C121  C129  A    
O14   Zn8   S    
C27   C36   A    
C21   C30   A    
C13   C83   A    
C172  C190  A    
C23   C32   A    
C153  O45   A    
O47   Zn11  S    
C156  C165  A    
C108  H74   S    
C29   H48   S    
C1    O18   A    
C38   C108  S    
C28   C179  A    
O18   Zn9   S    
C5    H24   S    
C46   H6    S    
C1    C163  S    
C111  C190  A    
C153  C169  S    
O10   Zn5   S    
C89   C189  S    
O32   Zn2   S    
C56   H75   S    
C74   C186  A    
C188  O7    A    
C68   C80   A    
O21   Zn10  S    
C114  C193  A    
C36   C125  A    
C112  C133  A    
C40   O39   A    
C38   C127  A    
C35   C81   A    
C95   C98   A    
O8    Zn6   S    
C5    C138  A    
C83   C92   A    
C66   C69   A    
C30   C119  A    
C165  C173  A    
O26   Zn6   S    
C175  O26   A    
C159  C168  A    
C6    C15   A    
C187  O15   A    
O17   Zn11  S    
C113  C136  A    
C13   C86   A    
C114  C135  A    
C28   H47   S    
C1    O1    A    
C52   C68   A    
C104  H61   S    
C6    H25   S    
C105  H63   S    
C46   C54   A    
C107  H70   S    
C26   C34   A    
C181  O48   A    
C22   C31   A    
C17   C129  A    
O7    Zn7   S    
C102  H52   S    
O35   Zn12  S    
C7    H26   S    
C41   O29   A    
C11   C145  A    
C171  C175  S    
C29   C180  A    
C106  H65   S    
C84   C110  A    
C49   C58   A    
C89   C97   A    
C99   H4    S    
C181  O9    A    
O20   Zn11  S    
C53   C62   A    
C183  O3    A    
C13   C76   A    
C138  C147  A    
C87   C96   A    
O4    Zn10  S    
O36   Zn3   S    
C164  O46   A    
C161  C170  A    
C107  H71   S    
C171  C180  A    
C39   O38   A    
C169  C178  A    
C115  C129  A    
C187  O6    A    
C48   C56   A    
C102  H54   S    
C97   H2    S    
C53   C73   A    
C120  O23   A    
C20   C130  A    
C43   C149  S    
C157  C166  A    
C96   H76   S    
C178  C195  A    
C104  H60   S    
C151  C160  A    
C24   C84   A    
C117  C196  A    
C71   C75   A    
C25   C176  A    
C14   H32   S    
C94   C99   A    
C44   C148  S    
C141  C194  A    
C42   C150  S    
C2    C80   A    
C157  H16   S    
O27   Zn3   S    
C116  C128  A    
C25   C33   A    
C59   H56   S    
C33   C123  A    
O46   Zn10  S    
C70   C72   A    
C16   C135  A    
O43   Zn12  S    
C122  C130  A    
C167  C176  A    
