data_str_m4_o4_o24_f0_acs.sym.1
_audit_creation_date              2012-12-11T15:50:33-0500
_audit_creation_method            fapswitch 2.2
_symmetry_space_group_name_H-M    P1
_symmetry_Int_Tables_number       1
_space_group_crystal_system       triclinic
_cell_length_a                    18.922084
_cell_length_b                    10.898474
_cell_length_c                    18.801928
_cell_angle_alpha                 89.957923
_cell_angle_beta                  91.242519
_cell_angle_gamma                 90.023815
_cell_volume                      3876.45514429

loop_
_atom_site_label
_atom_site_type_symbol
_atom_type_description
_atom_site_fract_x
_atom_site_fract_y
_atom_site_fract_z
_atom_type_partial_charge
C1    C     C_R   0.273942 0.039305 0.855011 0.541828
C2    C     C_R   0.759945 0.573449 0.928154 0.017694
C3    C     C_R   0.226999 0.541139 0.356209 0.547920
C4    C     C_R   0.471098 0.823400 0.647592 0.553595
C5    C     C_R   0.533450 0.823455 0.355168 0.554211
C6    C     C_R   0.971099 0.323400 0.647592 0.553596
C7    C     C_R   0.033450 0.323455 0.355168 0.554209
C8    C     C_R   0.258627 0.633970 0.645096 0.548686
C9    C     C_R   0.738607 0.641563 0.358451 0.547602
C10   C     C_R   0.758627 0.133971 0.645096 0.548687
C11   C     C_R   0.238607 0.141562 0.358450 0.547603
C12   C     C_3   0.477901 0.926979 0.033924 -0.115496
C13   C     C_R   0.740062 0.073535 0.071847 0.017344
C14   C     C_3   0.522400 0.926456 0.965782 -0.115289
C15   C     C_3   0.977910 0.426994 0.033919 -0.115498
C16   C     C_3   0.022409 0.426441 0.965778 -0.115285
C17   C     C_3   0.428967 0.826404 0.001849 -0.135617
C18   C     C_3   0.570883 0.825518 0.998161 -0.135508
C19   C     C_3   0.928963 0.326431 0.001850 -0.135623
C20   C     C_3   0.070880 0.325491 0.998162 -0.135501
C21   C     C_3   0.474052 0.825535 0.935179 0.056552
C22   C     C_3   0.525804 0.825693 0.064839 0.056359
C23   C     C_3   0.974049 0.325534 0.935180 0.056552
C24   C     C_R   0.259945 0.073449 0.928154 0.017696
C25   C     C_3   0.025801 0.325694 0.064839 0.056359
C26   C     C_R   0.304672 0.551544 0.039493 0.002038
C27   C     C_R   0.695316 0.551533 0.960518 0.002378
C28   C     C_R   0.804671 0.051544 0.039493 0.002034
C29   C     C_R   0.195316 0.051535 0.960518 0.002382
C30   C     C_R   0.310842 0.562379 0.966139 0.020136
C31   C     C_R   0.689134 0.562431 0.033864 0.019786
C32   C     C_R   0.810842 0.062379 0.966139 0.020140
C33   C     C_R   0.726060 0.039349 0.144997 0.542342
C34   C     C_R   0.189134 0.062432 0.033864 0.019783
C35   C     C_R   0.186917 0.612383 0.955432 -0.176394
C36   C     C_R   0.813079 0.612419 0.044559 -0.176599
C37   C     C_R   0.686916 0.112379 0.955431 -0.176394
C38   C     C_R   0.313080 0.112419 0.044560 -0.176599
C39   C     C_R   0.181812 0.608742 0.028636 -0.171970
C40   C     C_R   0.818203 0.608676 0.971353 -0.171909
C41   C     C_R   0.681811 0.108738 0.028635 -0.171973
C42   C     C_R   0.318204 0.108675 0.971353 -0.171906
C43   C     C_3   0.350052 0.439966 0.042880 -0.269827
C44   C     C_R   0.773942 0.539305 0.855011 0.541827
C45   C     C_3   0.649856 0.440001 0.957226 -0.269731
C46   C     C_3   0.850054 0.939968 0.042881 -0.269830
C47   C     C_3   0.149854 0.940004 0.957226 -0.269729
C48   C     C_3   0.357461 0.451910 0.963126 -0.277635
C49   C     C_3   0.642440 0.451989 0.036970 -0.277693
C50   C     C_3   0.857461 0.951911 0.963126 -0.277634
C51   C     C_3   0.142439 0.951991 0.036970 -0.277693
C52   C     C_R   0.251430 0.588727 0.922968 0.017552
C53   C     C_R   0.748546 0.588816 0.077036 0.017089
C54   C     C_R   0.751429 0.088725 0.922967 0.017552
C55   C     C_R   0.226060 0.539349 0.144997 0.542343
C56   C     C_R   0.248546 0.088816 0.077036 0.017089
C57   C     C_R   0.518939 0.830366 0.430662 0.014427
C58   C     C_R   0.505938 0.829359 0.579286 0.014993
C59   C     C_R   0.018939 0.330364 0.430662 0.014426
C60   C     C_R   0.005939 0.329359 0.579287 0.014993
C61   C     C_R   0.443470 0.817778 0.863145 0.557962
C62   C     C_R   0.556462 0.817878 0.136846 0.557665
C63   C     C_R   0.943469 0.317778 0.863145 0.557963
C64   C     C_R   0.056461 0.317879 0.136846 0.557664
C65   C     C_R   0.522121 0.721379 0.469137 0.040937
C66   C     C_3   0.522162 0.724946 0.966552 -0.108543
C67   C     C_R   0.516100 0.720189 0.541562 0.029962
C68   C     C_R   0.022126 0.221380 0.469139 0.040941
C69   C     C_R   0.016106 0.220190 0.541564 0.029964
C70   C     C_R   0.515964 0.941062 0.543331 -0.165482
C71   C     C_R   0.521755 0.941614 0.468857 -0.160073
C72   C     C_R   0.015962 0.441063 0.543331 -0.165482
C73   C     C_R   0.021752 0.441613 0.468857 -0.160074
C74   C     C_3   0.480741 0.606250 0.458638 -0.280998
C75   C     C_3   0.473546 0.604071 0.538485 -0.270637
C76   C     C_3   0.980754 0.106242 0.458641 -0.280996
C77   C     C_3   0.477240 0.725471 0.033780 -0.108620
C78   C     C_3   0.973563 0.104062 0.538489 -0.270638
C79   C     C_R   0.237407 0.559727 0.431216 0.017706
C80   C     C_R   0.748667 0.604443 0.580966 0.018343
C81   C     C_R   0.737408 0.059730 0.431216 0.017708
C82   C     C_R   0.248668 0.104443 0.580966 0.018346
C83   C     C_R   0.180347 0.606476 0.467700 0.043215
C84   C     C_R   0.797621 0.676033 0.544449 0.029342
C85   C     C_R   0.680347 0.106482 0.467698 0.043212
C86   C     C_R   0.297622 0.176034 0.544448 0.029344
C87   C     C_R   0.181697 0.613505 0.539986 0.031160
C88   C     C_3   0.022146 0.224931 0.966558 -0.108540
C89   C     C_R   0.794363 0.681370 0.472091 0.044172
C90   C     C_R   0.681698 0.113513 0.539984 0.031155
C91   C     C_R   0.294365 0.181367 0.472090 0.044173
C92   C     C_R   0.292715 0.504066 0.544125 -0.166526
C93   C     C_R   0.684948 0.568812 0.470249 -0.161471
C94   C     C_R   0.792715 0.004071 0.544124 -0.166522
C95   C     C_R   0.184951 0.068808 0.470248 -0.161469
C96   C     C_R   0.291208 0.498508 0.469924 -0.160915
C97   C     C_R   0.687662 0.563218 0.544477 -0.165278
C98   C     C_R   0.791208 0.998512 0.469923 -0.160915
C99   C     C_3   0.977224 0.225485 0.033787 -0.108625
C100  C     C_R   0.187665 0.063215 0.544476 -0.165273
C101  C     C_3   0.142568 0.725149 0.457215 -0.281452
C102  C     C_3   0.877190 0.672985 0.543715 -0.270104
C103  C     C_3   0.642579 0.225164 0.457213 -0.281456
C104  C     C_3   0.377191 0.172998 0.543716 -0.270103
C105  C     C_3   0.143659 0.734901 0.537188 -0.269326
C106  C     C_3   0.872416 0.679062 0.463705 -0.280674
C107  C     C_3   0.643672 0.234920 0.537184 -0.269323
C108  C     C_3   0.372418 0.179067 0.463706 -0.280672
C109  C     C_R   0.260808 0.635201 0.851359 0.537332
C110  C     C_R   0.240062 0.573537 0.071847 0.017345
C111  C     C_R   0.739180 0.635242 0.148633 0.538219
C112  C     C_R   0.760808 0.135201 0.851359 0.537332
C113  C     C_R   0.239180 0.135242 0.148633 0.538218
C114  C     C_R   0.241834 0.574685 0.578575 0.018713
C115  C     C_R   0.742354 0.618668 0.433599 0.018622
C116  C     C_R   0.741835 0.074689 0.578574 0.018715
C117  C     C_R   0.242357 0.118664 0.433598 0.018623
C118  C     C_R   0.270710 0.048716 0.647207 0.549678
C119  C     C_R   0.726999 0.041140 0.356209 0.547920
C120  C     C_R   0.770710 0.548716 0.647207 0.549676
Cr1   Cr    Cr6+3 0.229640 0.835880 0.747370 1.000953
Cr2   Cr    Cr6+3 0.614230 0.677220 0.250660 1.008725
Cr3   Cr    Cr6+3 0.885770 0.177220 0.749340 1.005454
Cr4   Cr    Cr6+3 0.114230 0.177220 0.250660 1.008725
Cr5   Cr    Cr6+3 0.770360 0.835880 0.252630 1.004416
Cr6   Cr    Cr6+3 0.729640 0.335880 0.747370 1.000952
Cr7   Cr    Cr6+3 0.270360 0.335880 0.252630 1.004417
Cr8   Cr    Cr6+3 0.387390 0.989720 0.750850 1.004924
Cr9   Cr    Cr6+3 0.612610 0.989720 0.249150 1.008706
Cr10  Cr    Cr6+3 0.887390 0.489720 0.750850 1.004923
Cr11  Cr    Cr6+3 0.112610 0.489720 0.249150 1.008707
Cr12  Cr    Cr6+3 0.385770 0.677220 0.749340 1.005455
H1    H     H_    0.370272 0.826900 0.001873 0.115347
H2    H     H_    0.918394 0.118931 0.554891 0.168231
H3    H     H_    0.513219 0.529552 0.438322 0.133665
H4    H     H_    0.418378 0.618959 0.554885 0.168233
H5    H     H_    0.429832 0.621815 0.429359 0.137335
H6    H     H_    0.501409 0.525626 0.564469 0.127151
H7    H     H_    0.929843 0.121795 0.429364 0.137334
H8    H     H_    0.001433 0.025624 0.564472 0.127147
H9    H     H_    0.337044 0.464688 0.573431 0.122865
H10   H     H_    0.639842 0.530436 0.441824 0.132649
H11   H     H_    0.837044 0.964692 0.573430 0.122864
H12   H     H_    0.629578 0.825366 0.998127 0.115210
H13   H     H_    0.139845 0.030431 0.441823 0.132642
H14   H     H_    0.332906 0.450734 0.443050 0.132620
H15   H     H_    0.646076 0.516014 0.572151 0.122887
H16   H     H_    0.832906 0.950739 0.443049 0.132618
H17   H     H_    0.146078 0.016011 0.572150 0.122881
H18   H     H_    0.088564 0.713743 0.433892 0.135187
H19   H     H_    0.899272 0.584344 0.562327 0.171424
H20   H     H_    0.588573 0.213772 0.433891 0.135186
H21   H     H_    0.399278 0.084363 0.562331 0.171424
H22   H     H_    0.175651 0.795530 0.430922 0.135542
H23   H     H_    0.870268 0.326948 0.001874 0.115348
H24   H     H_    0.901576 0.755967 0.568322 0.124388
H25   H     H_    0.675668 0.295534 0.430918 0.135545
H26   H     H_    0.401572 0.255986 0.568321 0.124382
H27   H     H_    0.176980 0.812398 0.556005 0.171337
H28   H     H_    0.893666 0.765767 0.441726 0.134611
H29   H     H_    0.677001 0.312407 0.556000 0.171340
H30   H     H_    0.393665 0.265773 0.441724 0.134609
H31   H     H_    0.090174 0.729969 0.560370 0.125286
H32   H     H_    0.890870 0.594048 0.437219 0.136950
H33   H     H_    0.590186 0.230006 0.560368 0.125290
H34   H     H_    0.129575 0.325318 0.998127 0.115206
H35   H     H_    0.390876 0.094053 0.437222 0.136950
H36   H     H_    0.461290 0.009830 0.063337 0.114746
H37   H     H_    0.539364 0.008856 0.936077 0.115052
H38   H     H_    0.961309 0.509856 0.063327 0.114742
H39   H     H_    0.039384 0.508828 0.936066 0.115058
H40   H     H_    0.539782 0.642034 0.937926 0.128782
H41   H     H_    0.459223 0.643034 0.062697 0.129079
H42   H     H_    0.039756 0.142007 0.937938 0.128774
H43   H     H_    0.959196 0.143063 0.062709 0.129087
H44   H     H_    0.140590 0.639005 0.924306 0.130365
H45   H     H_    0.514161 0.027303 0.571652 0.119947
H46   H     H_    0.859420 0.639010 0.075673 0.130385
H47   H     H_    0.640589 0.138999 0.924305 0.130368
H48   H     H_    0.359419 0.139011 0.075673 0.130383
H49   H     H_    0.130321 0.626220 0.050599 0.143352
H50   H     H_    0.869711 0.626107 0.949383 0.143546
H51   H     H_    0.630320 0.126215 0.050598 0.143354
H52   H     H_    0.369711 0.126105 0.949384 0.143545
H53   H     H_    0.819880 0.857614 0.058677 0.173245
H54   H     H_    0.179970 0.857620 0.941507 0.173196
H55   H     H_    0.319878 0.357613 0.058676 0.173244
H56   H     H_    0.526034 0.028188 0.441251 0.130265
H57   H     H_    0.679973 0.357618 0.941509 0.173197
H58   H     H_    0.400261 0.454938 0.073265 0.124921
H59   H     H_    0.599672 0.455023 0.926808 0.125061
H60   H     H_    0.900262 0.954942 0.073265 0.124920
H61   H     H_    0.099671 0.955029 0.926808 0.125061
H62   H     H_    0.412012 0.475965 0.947247 0.137541
H63   H     H_    0.587900 0.476084 0.052814 0.137535
H64   H     H_    0.912013 0.975968 0.947247 0.137539
H65   H     H_    0.087899 0.976088 0.052813 0.137537
H66   H     H_    0.332828 0.374968 0.932683 0.144274
H67   H     H_    0.014156 0.527304 0.571651 0.119946
H68   H     H_    0.667013 0.375041 0.067493 0.144245
H69   H     H_    0.832830 0.874968 0.932683 0.144273
H70   H     H_    0.167011 0.875043 0.067492 0.144245
H71   H     H_    0.026026 0.528187 0.441249 0.130260
H72   H     H_    0.013237 0.029550 0.438325 0.133665
O1    O     O_R   0.214300 0.709080 0.827500 -0.532415
O2    O     O_R   0.543340 0.717710 0.330180 -0.515351
O3    O     O_R   0.956660 0.217710 0.669820 -0.519218
O4    O     O_R   0.043340 0.217710 0.330180 -0.515351
O5    O     O_R   0.320590 0.625770 0.672930 -0.512103
O6    O     O_R   0.679410 0.625770 0.327070 -0.510188
O7    O     O_R   0.820590 0.125770 0.672930 -0.512102
O8    O     O_R   0.179410 0.125770 0.327070 -0.510187
O9    O     O_3   0.334270 0.834280 0.749190 -0.259488
O10   O     O_3   0.665730 0.834280 0.250810 -0.264131
O11   O     O_3   0.834270 0.334280 0.749190 -0.259489
O12   O     O_R   0.785700 0.709080 0.172500 -0.532273
O13   O     O_3   0.165730 0.334280 0.250810 -0.264129
O14   O     O_R   0.236190 0.958390 0.823150 -0.502713
O15   O     O_R   0.763810 0.958390 0.176850 -0.502438
O16   O     O_R   0.736190 0.458390 0.823150 -0.502713
O17   O     O_R   0.263810 0.458390 0.176850 -0.502437
O18   O     O_R   0.332090 0.075280 0.831290 -0.535244
O19   O     O_R   0.667910 0.075280 0.168710 -0.535038
O20   O     O_R   0.832090 0.575280 0.831290 -0.535243
O21   O     O_R   0.167910 0.575280 0.168710 -0.535038
O22   O     O_R   0.446280 0.918040 0.826620 -0.504656
O23   O     O_R   0.714300 0.209080 0.827500 -0.532414
O24   O     O_R   0.553720 0.918040 0.173380 -0.504399
O25   O     O_R   0.946280 0.418040 0.826620 -0.504657
O26   O     O_R   0.053720 0.418040 0.173380 -0.504398
O27   O     O_R   0.457080 0.716270 0.831760 -0.522354
O28   O     O_R   0.542920 0.716270 0.168240 -0.522409
O29   O     O_R   0.957080 0.216270 0.831760 -0.522354
O30   O     O_R   0.042920 0.216270 0.168240 -0.522410
O31   O     O_R   0.320980 0.624440 0.823040 -0.510314
O32   O     O_R   0.679020 0.624440 0.176960 -0.509847
O33   O     O_R   0.820980 0.124440 0.823040 -0.510315
O34   O     O_R   0.285700 0.209080 0.172500 -0.532274
O35   O     O_R   0.179020 0.124440 0.176960 -0.509846
O36   O     O_R   0.213880 0.710510 0.665560 -0.523427
O37   O     O_R   0.786120 0.710510 0.334440 -0.517598
O38   O     O_R   0.713880 0.210510 0.665560 -0.523428
O39   O     O_R   0.286120 0.210510 0.334440 -0.517598
O40   O     O_R   0.235800 0.959720 0.673040 -0.508501
O41   O     O_R   0.764200 0.959720 0.326960 -0.506705
O42   O     O_R   0.735800 0.459720 0.673040 -0.508503
O43   O     O_R   0.264200 0.459720 0.326960 -0.506705
O44   O     O_R   0.331670 0.076720 0.669350 -0.525101
O45   O     O_R   0.445900 0.919370 0.676500 -0.505660
O46   O     O_R   0.668330 0.076720 0.330650 -0.518516
O47   O     O_R   0.831670 0.576720 0.669350 -0.525100
O48   O     O_R   0.168330 0.576720 0.330650 -0.518516
O49   O     O_R   0.554100 0.919370 0.323500 -0.503111
O50   O     O_R   0.945900 0.419370 0.676500 -0.505661
O51   O     O_R   0.054100 0.419370 0.323500 -0.503111
O52   O     O_R   0.456660 0.717710 0.669820 -0.519217

loop_
_geom_bond_atom_site_label_1
_geom_bond_atom_site_label_2
_ccdc_geom_bond_type
C38   C56   A    
Cr1   O40   S    
Cr2   O32   S    
C80   C120  S    
C34   C56   A    
Cr3   O11   S    
C21   C66   S    
Cr6   O42   S    
C19   H23   S    
Cr1   O14   S    
Cr2   O2    S    
Cr5   O41   S    
Cr6   O23   S    
C95   H13   S    
C120  O47   A    
Cr1   O1    S    
C71   H56   S    
Cr9   O19   S    
C86   C104  S    
C107  H33   S    
Cr10  O47   S    
C95   C117  A    
C15   C19   S    
C89   C115  A    
C73   H71   S    
C111  O12   A    
C28   C46   S    
C34   C51   S    
C55   O21   A    
C3    O43   A    
C29   C47   S    
C94   H11   S    
C52   C109  S    
C14   C21   S    
C30   C48   S    
C7    O51   A    
C76   C78   S    
C90   C107  S    
C38   C42   A    
C86   C91   A    
C80   C97   A    
Cr5   O12   S    
C118  O44   A    
C31   C53   A    
C82   C118  S    
C63   O29   A    
C81   C98   A    
C94   C98   A    
C15   C16   S    
C12   H36   S    
C12   C22   S    
C101  H18   S    
C92   C96   A    
C88   H42   S    
C6    O50   A    
C93   C115  A    
C5    O49   A    
Cr9   O10   S    
C14   C18   S    
C24   C29   A    
C87   C114  A    
C36   C53   A    
C51   H65   S    
C61   O27   A    
C5    O2    A    
Cr3   O29   S    
C63   O25   A    
C50   H64   S    
C45   H59   S    
C39   C110  A    
C107  H29   S    
C43   H58   S    
C2    C44   S    
C68   C69   A    
C79   C83   A    
Cr3   O7    S    
C12   C17   S    
Cr6   O38   S    
C56   C113  S    
C91   C117  A    
C13   C28   A    
Cr5   O37   S    
C2    C27   A    
C44   O20   A    
C106  H32   S    
C104  H21   S    
C83   C101  S    
C43   C48   S    
C59   C73   A    
C21   C61   S    
C85   C103  S    
C51   H70   S    
C8    C114  S    
C84   C102  S    
C55   O17   A    
Cr4   O30   S    
C53   C111  S    
C46   C50   S    
C23   C63   S    
C9    O37   A    
C112  O23   A    
C18   C22   S    
Cr4   O4    S    
C37   C41   A    
C54   C112  S    
C97   H15   S    
C69   C78   S    
C120  O42   A    
C31   C49   S    
C14   H37   S    
C88   C99   S    
C7    C59   S    
Cr6   O16   S    
C26   C43   S    
C40   H50   S    
C104  H26   S    
C33   O15   A    
C101  C105  S    
C37   H47   S    
C74   H5    S    
C38   H48   S    
C74   C75   S    
C27   C31   A    
C80   C84   A    
C9    C115  S    
C6    C60   S    
C28   C32   A    
C26   C110  A    
C36   H46   S    
C3    O48   A    
C4    O52   A    
C119  O46   A    
Cr8   O18   S    
Cr4   O35   S    
C94   C116  A    
C75   H4    S    
C103  H25   S    
C47   C51   S    
C49   H63   S    
Cr10  O25   S    
C65   C67   A    
C82   C86   A    
C113  O35   A    
C108  H30   S    
C29   C34   A    
C17   C21   S    
C65   C74   S    
Cr2   O10   S    
C15   H38   S    
C48   H66   S    
C1    O18   A    
C25   C64   S    
Cr1   O9    S    
C89   C106  S    
C35   C39   A    
C64   O30   A    
C92   H9    S    
C11   O8    A    
C22   C62   S    
Cr5   O10   S    
Cr11  O21   S    
C93   C97   A    
C87   C105  S    
C45   C49   S    
C9    O6    A    
C16   C20   S    
C46   H60   S    
C74   H3    S    
C105  H31   S    
C111  O32   A    
C6    O3    A    
Cr7   O39   S    
Cr10  O11   S    
C39   H49   S    
C57   C71   A    
C47   H54   S    
C109  O1    A    
C24   C42   A    
C78   H2    S    
C32   C50   S    
C3    C79   S    
C1    O14   A    
C8    O36   A    
C103  H20   S    
C1    C24   S    
Cr2   O6    S    
C43   H55   S    
C37   C54   A    
C109  O31   A    
Cr11  O26   S    
C45   H57   S    
C113  O34   A    
C108  H35   S    
Cr9   O49   S    
C26   C30   A    
C16   C23   S    
C90   C116  A    
C23   C88   S    
C55   C110  S    
C17   H1    S    
Cr8   O9    S    
C67   C75   S    
C84   C89   A    
C35   H44   S    
Cr12  O52   S    
C8    O5    A    
C11   C117  S    
Cr12  O27   S    
C102  H24   S    
C104  C108  S    
C36   C40   A    
C10   C116  S    
Cr11  O48   S    
Cr7   O13   S    
C50   H69   S    
C66   H40   S    
C66   C77   S    
C30   C52   A    
Cr9   O46   S    
C77   H41   S    
Cr8   O44   S    
Cr5   O15   S    
C48   H62   S    
C95   C100  A    
C82   C100  A    
C91   C108  S    
C47   H61   S    
C10   O7    A    
C58   C70   A    
Cr12  O5    S    
Cr8   O45   S    
C22   C77   S    
C57   C65   A    
C7    O4    A    
Cr10  O50   S    
C75   H6    S    
C78   H8    S    
C83   C87   A    
C4    O45   A    
C85   C90   A    
C76   H72   S    
C70   H45   S    
C13   C41   A    
C100  H17   S    
C68   C76   S    
Cr1   O36   S    
Cr4   O8    S    
C96   H14   S    
C102  H19   S    
C62   O28   A    
C61   O22   A    
C32   C54   A    
C5    C57   S    
C11   O39   A    
C19   C99   S    
C20   H34   S    
C42   H52   S    
C33   O19   A    
C25   C99   S    
C12   C14   S    
C79   C96   A    
C106  H28   S    
C81   C119  S    
C72   H67   S    
C64   O26   A    
C17   C77   S    
C16   H39   S    
C27   C45   S    
C105  H27   S    
C99   H43   S    
C98   H16   S    
C101  H22   S    
C72   C73   A    
C62   O24   A    
C20   C88   S    
Cr9   O24   S    
C18   H12   S    
C118  O40   A    
C102  C106  S    
Cr11  O51   S    
Cr10  O20   S    
C46   H53   S    
C119  O41   A    
C18   C66   S    
Cr12  O31   S    
C44   O16   A    
C70   C71   A    
C15   C25   S    
Cr6   O11   S    
Cr7   O17   S    
C19   C23   S    
C10   O38   A    
C2    C40   A    
C58   C67   A    
Cr3   O3    S    
Cr7   O43   S    
C60   C69   A    
C76   H7    S    
Cr7   O34   S    
Cr8   O22   S    
C112  O33   A    
C20   C25   S    
C4    C58   S    
C35   C52   A    
C60   C72   A    
C41   H51   S    
C59   C68   A    
C103  C107  S    
Cr12  O9    S    
C13   C33   S    
Cr11  O13   S    
C92   C114  A    
Cr2   O28   S    
C81   C85   A    
C93   H10   S    
Cr3   O33   S    
C49   H68   S    
Cr4   O13   S    
