data_str_m3_o4_o18_f0_pcu.sym.204
_audit_creation_date              2012-12-10T20:31:55-0500
_audit_creation_method            fapswitch 2.2
_symmetry_space_group_name_H-M    P1
_symmetry_Int_Tables_number       1
_space_group_crystal_system       triclinic
_cell_length_a                    9.88042
_cell_length_b                    10.7239
_cell_length_c                    15.42052
_cell_angle_alpha                 90.879587
_cell_angle_beta                  68.524093
_cell_angle_gamma                 88.675561
_cell_volume                      1519.56266135

loop_
_atom_site_label
_atom_site_type_symbol
_atom_type_description
_atom_site_fract_x
_atom_site_fract_y
_atom_site_fract_z
_atom_type_partial_charge
C1    C     C_R   0.501984 0.740040 0.495223 0.947503
C2    C     C_R   0.431067 0.411177 0.904791 0.101755
C3    C     C_R   0.288631 0.372642 0.955170 0.169445
C4    C     C_R   0.538032 0.405220 0.945033 0.043735
C5    C     C_R   0.494384 0.391326 0.042402 0.080245
C6    C     C_R   0.350532 0.353720 0.092540 -0.156227
C7    C     C_R   0.250947 0.340126 0.048251 -0.156202
C8    C     C_R   0.687299 0.413854 0.890716 -0.157061
C9    C     C_R   0.787304 0.432084 0.932814 -0.119479
C10   C     C_R   0.740289 0.448367 0.028910 0.065083
C11   C     C_R   0.595149 0.422215 0.085186 0.109746
C12   C     C_R   0.409910 0.494403 0.675872 0.910341
C13   C     C_R   0.835143 0.497390 0.068290 -0.273708
C14   C     C_R   0.788062 0.524622 0.163655 0.451000
C15   C     C_R   0.553352 0.438121 0.181587 -0.274850
C16   C     C_R   0.411839 0.939486 0.454789 0.057776
C17   C     C_R   0.514389 0.871103 0.478349 -0.095527
C18   C     C_R   0.635822 0.932570 0.483467 -0.126554
C19   C     C_R   0.635367 0.061582 0.486445 -0.160022
C20   C     C_R   0.512688 0.128626 0.485409 -0.042319
C21   C     C_R   0.406755 0.066407 0.463823 -0.045756
C22   C     C_3   0.243949 0.076688 0.497309 0.209289
C23   C     C_R   0.502161 0.260095 0.498555 0.896565
C24   C     C_3   0.250588 0.934975 0.485051 0.178259
C25   C     C_R   0.884016 0.546794 0.575195 0.109017
C26   C     C_R   0.968167 0.437216 0.432694 -0.029391
C27   C     C_R   0.112268 0.437936 0.432243 -0.030155
C28   C     C_R   0.027120 0.549030 0.574645 0.196049
C29   C     C_3   0.002339 0.682858 0.606863 0.257105
C30   C     C_3   0.845773 0.675272 0.614309 -0.514150
C31   C     C_R   0.590771 0.501071 0.323722 0.937191
C32   C     C_R   0.359317 0.461986 0.774366 -0.063198
C33   C     C_R   0.647028 0.489257 0.221650 -0.190214
C34   C     C_R   0.186307 0.369352 0.911598 -0.220964
C35   C     C_R   0.222372 0.412185 0.820814 -0.130547
C36   C     C_R   0.460964 0.462763 0.817490 -0.232055
H1    H     H_    0.142171 0.310123 0.088143 0.166164
H2    H     H_    0.725452 0.107456 0.496280 0.190778
H3    H     H_    0.204070 0.128403 0.448968 0.135795
H4    H     H_    0.204056 0.885377 0.551079 0.164601
H5    H     H_    0.946295 0.386840 0.378262 0.169234
H6    H     H_    0.445183 0.415708 0.226869 0.173806
H7    H     H_    0.063404 0.744035 0.550859 0.137494
H8    H     H_    0.818778 0.738945 0.566703 0.210785
H9    H     H_    0.145150 0.404212 0.786391 0.206532
H10   H     H_    0.312842 0.331647 0.165392 0.150712
H11   H     H_    0.728529 0.406795 0.815413 0.172385
N1    N     N_R   0.856900 0.500860 0.500610 -0.104273
N2    N     N_R   0.142540 0.500820 0.500610 -0.111177
O1    O     O_R   0.385310 0.683210 0.499990 -0.579465
O2    O     O_R   0.614650 0.683240 0.500000 -0.624935
O3    O     O_R   0.319830 0.499970 0.632240 -0.548962
O4    O     O_R   0.549170 0.500000 0.632250 -0.627809
O5    O     O_R   0.385350 0.316760 0.500000 -0.590341
O6    O     O_R   0.614690 0.316790 0.500010 -0.641473
O7    O     O_R   0.450830 0.500000 0.367750 -0.618186
O8    O     O_R   0.680170 0.500030 0.367760 -0.565842
Zn1   Zn    Zn3+2 0.346870 0.499980 0.499990 1.063277
Zn2   Zn    Zn3+2 0.653130 0.500020 0.500010 0.998385
H12   H     H_    0.943376 0.522651 0.023453 0.196990
H13   H     H_    0.726058 0.882529 0.492010 0.190163
S1    S     S_3+6 0.153954 0.124177 0.617861 0.021580
O9    O     O_2   0.122306 0.262445 0.625740 -0.313175
O10   O     O_2   0.012470 0.058415 0.657480 -0.242781
O11   O     O_3   0.259107 0.086764 0.678779 -0.552488
H14   H     H_    0.207368 0.124010 0.741841 0.385273
S2    S     S_3+6 0.196627 0.883780 0.391521 -0.000055
O12   O     O_2   0.236095 0.747626 0.369937 -0.276372
O13   O     O_2   0.034897 0.903487 0.420079 -0.349210
O14   O     O_3   0.281866 0.966213 0.295914 -0.552706
H15   H     H_    0.243931 0.935106 0.248655 0.402184
H16   H     H_    0.199216 0.389549 0.376596 0.129672
S3    S     S_3+6 0.022145 0.714325 0.715689 0.047140
O15   O     O_2   0.924921 0.823858 0.764301 -0.215735
O16   O     O_2   0.980435 0.602465 0.775730 -0.357514
O17   O     O_3   0.195712 0.747947 0.697006 -0.554040
H17   H     H_    0.200338 0.755642 0.759943 0.385340
H18   H     H_    0.764211 0.675670 0.686681 0.231004
S4    S     S_3+6 0.905099 0.611821 0.203648 0.043946
O18   O     O_2   0.992727 0.523315 0.238288 -0.344323
O19   O     O_2   0.007562 0.683832 0.124903 -0.260534
O20   O     O_3   0.808775 0.713157 0.289704 -0.537399
H19   H     H_    0.877930 0.740397 0.318721 0.403801
H20   H     H_    0.900484 0.440534 0.890018 0.185325
H21   H     H_    0.079499 0.332731 0.947400 0.142948
H22   H     H_    0.563866 0.505956 0.782415 0.161753

loop_
_geom_bond_atom_site_label_1
_geom_bond_atom_site_label_2
_ccdc_geom_bond_type
C16   C21   A    
O6    Zn2   S    
S3    O15   D    
C19   C20   A    
C4    C8    A    
C14   C33   A    
O4    Zn2   S    
C13   H12   S    
C25   C28   A    
C26   C27   A    
S1    O9    D    
N1    Zn2   S    
C32   C36   A    
C28   C29   S    
C5    C11   A    
C3    C7    A    
O5    Zn1   S    
C5    C6    A    
C34   C35   A    
O8    Zn2   S    
C29   S3    S    
C18   C19   A    
S1    O10   D    
C24   S2    S    
C11   C15   A    
C16   C17   A    
C31   C33   S    
O14   H15   S    
C31   O7    A    
C1    O1    A    
C12   O4    A    
C26   N1    A    
C16   C24   S    
C21   C22   S    
C29   H7    S    
S3    O16   D    
C30   H8    S    
C12   O3    A    
S2    O12   D    
O1    Zn1   S    
C32   C35   A    
O17   H17   S    
S4    O19   D    
C8    C9    A    
C3    C34   A    
C36   H22   S    
N2    Zn1   S    
S2    O13   D    
C34   H21   S    
C2    C4    A    
C29   C30   S    
C19   H2    S    
C22   S1    S    
C28   N2    A    
C20   C23   S    
C17   C18   A    
C7    H1    S    
C14   S4    S    
C1    O2    A    
C25   N1    A    
O3    Zn1   S    
O20   H19   S    
S3    O17   S    
C22   C24   S    
O2    Zn2   S    
C35   H9    S    
C23   O5    A    
C9    C10   A    
C2    C36   A    
C25   C30   S    
C6    H10   S    
S1    O11   S    
C15   H6    S    
C4    C5    A    
C10   C13   A    
S4    O20   S    
C18   H13   S    
C23   O6    A    
C6    C7    A    
C1    C17   S    
S2    O14   S    
C31   O8    A    
C2    C3    A    
C8    H11   S    
C22   H3    S    
C24   H4    S    
O7    Zn1   S    
C10   C11   A    
C9    H20   S    
S4    O18   D    
C30   H18   S    
C20   C21   A    
O11   H14   S    
C13   C14   A    
C15   C33   A    
C12   C32   S    
C27   H16   S    
C27   N2    A    
C26   H5    S    
