data_str_m9_o3_o18_f0_sra.sym.100
_audit_creation_date              2012-12-11T16:44:09-0500
_audit_creation_method            fapswitch 2.2
_symmetry_space_group_name_H-M    P1
_symmetry_Int_Tables_number       1
_space_group_crystal_system       triclinic
_cell_length_a                    27.167587
_cell_length_b                    7.201141
_cell_length_c                    22.847983
_cell_angle_alpha                 90.001725
_cell_angle_beta                  101.39391
_cell_angle_gamma                 90.001995
_cell_volume                      4381.83262784

loop_
_atom_site_label
_atom_site_type_symbol
_atom_type_description
_atom_site_fract_x
_atom_site_fract_y
_atom_site_fract_z
_atom_type_partial_charge
O1    O     O_R   0.707300 0.594030 0.176840 -0.532815
O2    O     O_R   0.292700 0.405970 0.823160 -0.532565
O3    O     O_R   0.792700 0.094030 0.323160 -0.532810
O4    O     O_R   0.207300 0.905970 0.676840 -0.532560
O5    O     O_R   0.697330 0.262360 0.295660 -0.541417
O6    O     O_R   0.302670 0.737640 0.704340 -0.540935
O7    O     O_R   0.802670 0.762360 0.204340 -0.541416
O8    O     O_R   0.197330 0.237640 0.795660 -0.540936
C1    C     C_R   0.684786 0.432555 0.311806 0.696833
C2    C     C_R   0.315095 0.567434 0.688044 0.697447
C3    C     C_R   0.815214 0.932556 0.188194 0.696822
C4    C     C_R   0.184905 0.067433 0.811956 0.697434
O9    O     O_R   0.701410 0.264250 0.175600 -0.535315
O10   O     O_R   0.298590 0.735750 0.824400 -0.535341
O11   O     O_R   0.798590 0.764250 0.324400 -0.535313
O12   O     O_R   0.201410 0.235750 0.675600 -0.535339
O13   O     O_R   0.796800 0.094950 0.202240 -0.538417
O14   O     O_R   0.203200 0.905050 0.797760 -0.539328
O15   O     O_R   0.703200 0.594950 0.297760 -0.538418
O16   O     O_R   0.296800 0.405050 0.702240 -0.539329
C5    C     C_R   0.689782 0.432559 0.153519 0.684485
C6    C     C_R   0.310107 0.567444 0.846560 0.684489
C7    C     C_R   0.810217 0.932570 0.346480 0.684490
C8    C     C_R   0.189893 0.067433 0.653440 0.684493
O17   O     O_3   0.781290 0.427390 0.258880 -0.372887
O18   O     O_3   0.218710 0.572610 0.741120 -0.372961
O19   O     O_3   0.718710 0.927390 0.241120 -0.372894
O20   O     O_3   0.281290 0.072610 0.758880 -0.372968
V1    V     V_3+5 0.744190 0.152150 0.248350 1.407174
V2    V     V_3+5 0.255810 0.847850 0.751650 1.406951
V3    V     V_3+5 0.755810 0.652150 0.251650 1.407167
V4    V     V_3+5 0.244190 0.347850 0.748350 1.406945
C9    C     C_R   0.155017 0.061517 0.595185 -0.035025
C10   C     C_R   0.845201 0.938268 0.404670 -0.034480
C11   C     C_R   0.344985 0.561584 0.904817 -0.035067
C12   C     C_R   0.654797 0.438199 0.095328 -0.034526
C13   C     C_R   0.140101 0.111042 0.488539 -0.162724
C14   C     C_R   0.860316 0.886639 0.511213 -0.162793
C15   C     C_R   0.359934 0.611746 0.011435 -0.162752
C16   C     C_R   0.639646 0.385923 0.988815 -0.162809
C17   C     C_R   0.172806 0.106229 0.543691 -0.167500
C18   C     C_R   0.827546 0.892035 0.456124 -0.167636
C19   C     C_R   0.327220 0.606734 0.956292 -0.167461
C20   C     C_R   0.672427 0.391521 0.043894 -0.167611
C21   C     C_R   0.103763 0.021779 0.591214 -0.212120
C22   C     C_R   0.896441 0.978493 0.408602 -0.213020
C23   C     C_R   0.396225 0.521602 0.908799 -0.212139
C24   C     C_R   0.603570 0.478670 0.091385 -0.213037
C25   C     C_R   0.069251 0.028410 0.535408 0.085385
C26   C     C_R   0.931040 0.970910 0.464344 0.085177
C27   C     C_R   0.430750 0.528451 0.964594 0.085379
C28   C     C_R   0.568958 0.470863 0.035654 0.085168
C29   C     C_R   0.088737 0.073874 0.483959 0.139152
C30   C     C_R   0.911628 0.924508 0.515770 0.139668
C31   C     C_R   0.411287 0.574365 0.016023 0.139147
C32   C     C_R   0.588346 0.424007 0.984249 0.139668
C33   C     C_R   0.016298 0.993658 0.528810 0.057855
C34   C     C_R   0.984006 0.005530 0.470921 0.057805
C35   C     C_R   0.483694 0.493515 0.971198 0.057857
C36   C     C_R   0.516001 0.505666 0.029072 0.057805
C37   C     C_R   0.005798 0.050855 0.421584 -0.185907
C38   C     C_R   0.994543 0.947737 0.578125 -0.186062
C39   C     C_R   0.494231 0.551439 0.078388 -0.185915
C40   C     C_R   0.505426 0.447143 0.921904 -0.186071
C41   C     C_R   0.056944 0.083796 0.428127 -0.200610
C42   C     C_R   0.943438 0.914233 0.571572 -0.200721
C43   C     C_R   0.443093 0.584546 0.071841 -0.200610
C44   C     C_R   0.556522 0.413470 0.928462 -0.200721
H1    H     H_    0.071793 0.118493 0.388800 0.123350
H2    H     H_    0.928635 0.878823 0.610874 0.123496
H3    H     H_    0.428262 0.619594 0.111152 0.123355
H4    H     H_    0.571308 0.377706 0.889176 0.123502
H5    H     H_    0.907963 0.011398 0.367330 0.095478
H6    H     H_    0.092167 0.990093 0.632528 0.095146
H7    H     H_    0.592064 0.511894 0.132643 0.095513
H8    H     H_    0.407807 0.489602 0.867498 0.095180
H9    H     H_    0.788242 0.859243 0.453552 0.100179
H10   H     H_    0.212140 0.138328 0.546287 0.105664
H11   H     H_    0.711718 0.358518 0.046476 0.100207
H12   H     H_    0.287898 0.639044 0.953687 0.105669
H13   H     H_    0.154979 0.146084 0.449276 0.114538
H14   H     H_    0.845536 0.850544 0.550455 0.111994
H15   H     H_    0.345075 0.647137 0.050682 0.114552
H16   H     H_    0.654408 0.349474 0.949590 0.112000
H17   H     H_    0.984292 0.062361 0.376823 0.124749
H18   H     H_    0.016059 0.935705 0.622863 0.124760
H19   H     H_    0.515750 0.563183 0.123137 0.124750
H20   H     H_    0.483897 0.434870 0.877179 0.124762
C45   C     C_R   0.865231 0.116968 0.126744 -0.247136
C46   C     C_R   0.135642 0.881755 0.873753 -0.225914
C47   C     C_R   0.634771 0.616971 0.373256 -0.247133
C48   C     C_R   0.364358 0.381756 0.626247 -0.225903
H21   H     H_    0.845947 0.242008 0.135960 0.136351
H22   H     H_    0.153871 0.756409 0.862721 0.138651
H23   H     H_    0.654054 0.742012 0.364039 0.136350
H24   H     H_    0.346129 0.256407 0.637278 0.138646
C49   C     C_R   0.901019 0.131545 0.090176 0.432729
C50   C     C_R   0.101883 0.866629 0.912626 0.431115
C51   C     C_R   0.598982 0.631548 0.409825 0.432721
C52   C     C_R   0.398119 0.366631 0.587375 0.431106
C53   C     C_R   0.928032 0.973022 0.078479 0.003804
C54   C     C_R   0.075986 0.025534 0.926764 -0.016210
C55   C     C_R   0.571970 0.473023 0.421523 0.003808
C56   C     C_R   0.424017 0.525539 0.573239 -0.016207
C57   C     C_R   0.916946 0.801039 0.102017 -0.224097
C58   C     C_R   0.086892 0.198507 0.903644 -0.203781
C59   C     C_R   0.583055 0.301036 0.397986 -0.224091
C60   C     C_R   0.413111 0.698514 0.596359 -0.203791
H25   H     H_    0.937196 0.677518 0.093622 0.170512
H26   H     H_    0.067701 0.322458 0.913924 0.172349
H27   H     H_    0.562805 0.177512 0.406382 0.170511
H28   H     H_    0.432303 0.822467 0.586080 0.172349
C61   C     C_R   0.880285 0.786632 0.137198 -0.169094
C62   C     C_R   0.122016 0.213324 0.866397 -0.171004
C63   C     C_R   0.619716 0.286628 0.362804 -0.169096
C64   C     C_R   0.377985 0.713329 0.633605 -0.171009
H29   H     H_    0.872895 0.651662 0.154501 0.146731
H30   H     H_    0.129474 0.348972 0.849632 0.147423
H31   H     H_    0.627105 0.151656 0.345502 0.146728
H32   H     H_    0.370528 0.848979 0.650370 0.147427
C65   C     C_R   0.854048 0.944715 0.150324 -0.104327
C66   C     C_R   0.146832 0.054885 0.850819 -0.113245
C67   C     C_R   0.645952 0.444714 0.349677 -0.104325
C68   C     C_R   0.353169 0.554888 0.649182 -0.113242
C69   C     C_R   0.965408 0.860426 0.992763 -0.210234
C70   C     C_R   0.039327 0.136050 0.013447 -0.202943
C71   C     C_R   0.534594 0.360440 0.507240 -0.210237
C72   C     C_R   0.460677 0.636047 0.486557 -0.202945
H33   H     H_    0.936546 0.754813 0.983480 0.124772
H34   H     H_    0.068095 0.242009 0.022648 0.115350
H35   H     H_    0.563455 0.254835 0.516523 0.124771
H36   H     H_    0.431909 0.741999 0.477356 0.115354
C73   C     C_R   0.000522 0.874525 0.955620 -0.105499
C74   C     C_R   0.004183 0.122007 0.050580 -0.100500
C75   C     C_R   0.499480 0.374541 0.544384 -0.105504
C76   C     C_R   0.495821 0.622002 0.449423 -0.100501
H37   H     H_    0.997999 0.778988 0.918551 0.141818
H38   H     H_    0.006564 0.217879 0.087540 0.139776
H39   H     H_    0.502003 0.279012 0.581453 0.141817
H40   H     H_    0.493439 0.717865 0.412463 0.139776
C77   C     C_R   0.037998 0.012196 0.965627 0.096608
C78   C     C_R   0.966640 0.984649 0.040457 0.103254
C79   C     C_R   0.462006 0.512202 0.534377 0.096610
C80   C     C_R   0.533362 0.484652 0.459546 0.103257
O21   O     O_3   0.911315 0.303520 0.068410 -0.589907
C81   C     C_3   0.872501 0.356696 0.020363 0.034847
H41   H     H_    0.864130 0.505584 0.026440 0.148279
H42   H     H_    0.836360 0.280293 0.018093 0.102977
C82   C     C_3   0.890431 0.333859 0.961346 -0.289389
H43   H     H_    0.927549 0.402378 0.964598 0.206676
H44   H     H_    0.894804 0.183807 0.952339 0.196975
C83   C     C_3   0.853264 0.418786 0.909444 -0.850662
H45   H     H_    0.815951 0.351178 0.905007 0.232241
H46   H     H_    0.867106 0.397949 0.867323 0.234905
H47   H     H_    0.849346 0.570242 0.916613 0.229090
O22   O     O_3   0.093276 0.693265 0.934697 -0.592861
C84   C     C_3   0.122410 0.671485 0.992932 0.063842
H48   H     H_    0.102210 0.572391 0.017051 0.143097
H49   H     H_    0.126581 0.802547 0.019573 0.115085
C85   C     C_3   0.174158 0.590317 0.990472 -0.331010
H50   H     H_    0.169564 0.462867 0.962569 0.208704
H51   H     H_    0.196228 0.692804 0.970039 0.180469
C86   C     C_3   0.203380 0.541894 0.052678 -0.834231
H52   H     H_    0.208897 0.667828 0.081304 0.230877
H53   H     H_    0.240779 0.485582 0.049318 0.231698
H54   H     H_    0.182908 0.435199 0.073633 0.229867
O23   O     O_3   0.588688 0.803526 0.431590 -0.589908
C87   C     C_3   0.627503 0.856724 0.479636 0.034861
H55   H     H_    0.635880 0.005607 0.473551 0.148265
H56   H     H_    0.663641 0.780302 0.481912 0.102970
C88   C     C_3   0.609568 0.833941 0.538654 -0.289357
H57   H     H_    0.572453 0.902479 0.535397 0.206658
H58   H     H_    0.605188 0.683894 0.547668 0.196974
C89   C     C_3   0.646738 0.918890 0.590553 -0.850640
H59   H     H_    0.684048 0.851263 0.594995 0.232234
H60   H     H_    0.632893 0.898092 0.632675 0.234899
H61   H     H_    0.650662 0.070341 0.583376 0.229083
O24   O     O_3   0.406725 0.193265 0.565303 -0.592861
C90   C     C_3   0.377594 0.171476 0.507066 0.063865
H62   H     H_    0.397800 0.072410 0.482944 0.143082
H63   H     H_    0.373418 0.302544 0.480430 0.115087
C91   C     C_3   0.325850 0.090248 0.509521 -0.330989
H64   H     H_    0.330450 0.962760 0.537405 0.208693
H65   H     H_    0.303779 0.192684 0.529973 0.180476
C92   C     C_3   0.296625 0.041881 0.447310 -0.834244
H66   H     H_    0.291093 0.167859 0.418707 0.230882
H67   H     H_    0.259234 0.985484 0.450667 0.231671
H68   H     H_    0.317103 0.935266 0.426330 0.229866

loop_
_geom_bond_atom_site_label_1
_geom_bond_atom_site_label_2
_ccdc_geom_bond_type
O17   V3    S    
C51   C55   A    
C88   H57   S    
O1    C5    A    
C84   H48   S    
O19   V1    S    
C9    C21   A    
C16   H16   S    
O3    C7    A    
C86   H52   S    
C10   C18   A    
C52   C56   A    
C73   H37   S    
C76   H40   S    
C11   C23   A    
C55   C80   S    
O21   C81   S    
C92   H66   S    
C25   C33   A    
C33   C38   A    
C5    C12   S    
C75   H39   S    
C6    C11   S    
C38   H18   S    
C35   C40   A    
C26   C30   A    
C58   C62   A    
C36   C39   A    
C40   C44   A    
C57   C61   A    
O22   C84   S    
C86   H53   S    
C71   C75   A    
C23   H8    S    
C14   C18   A    
C2    C68   S    
C72   C76   A    
C58   H26   S    
O4    C8    A    
C25   C29   A    
C87   H56   S    
C92   H67   S    
C43   H3    S    
C70   H34   S    
O1    V3    S    
O13   V1    S    
O2    V4    S    
O3    V1    S    
C89   H59   S    
C28   C36   A    
C91   H64   S    
C1    O15   A    
C87   C88   S    
C15   C31   A    
C2    O16   A    
C16   C32   A    
O2    C6    A    
C54   C58   A    
C10   C22   A    
C54   C77   S    
C11   C19   A    
C64   H32   S    
C16   C20   A    
C51   O23   S    
C44   H4    S    
C90   C91   S    
C13   C29   A    
C34   C37   A    
O11   C7    A    
O15   V3    S    
C35   C36   A    
O12   C8    A    
C47   C67   A    
C14   H14   S    
C45   H21   S    
C46   C66   A    
C24   H7    S    
C13   H13   S    
C3    C65   S    
C49   O21   S    
O10   V2    S    
C72   H36   S    
O23   C87   S    
C46   H22   S    
C81   H42   S    
C48   H24   S    
C53   C57   A    
C88   C89   S    
C50   O22   S    
O7    V3    S    
C38   C42   A    
C26   C34   A    
C85   C86   S    
O24   C90   S    
C86   H54   S    
C63   C67   A    
C4    C66   S    
C82   C83   S    
C17   H10   S    
O18   V4    S    
C92   H68   S    
C23   C27   A    
C19   H12   S    
C50   C54   A    
C60   H28   S    
C45   C49   A    
C21   H6    S    
C91   C92   S    
O8    V4    S    
O7    C3    A    
C39   C43   A    
O5    C1    A    
C69   H33   S    
C74   C78   A    
C81   C82   S    
C88   H58   S    
C53   C78   S    
C31   C43   A    
C14   C30   A    
C83   H47   S    
C21   C25   A    
C69   C78   A    
O8    C4    A    
C7    C10   S    
C49   C53   A    
C56   C79   S    
O9    C5    A    
C89   H61   S    
C59   C63   A    
C62   H30   S    
C37   H17   S    
C61   H29   S    
C87   H55   S    
O6    V2    S    
C83   H46   S    
C52   O24   S    
C84   C85   S    
C63   H31   S    
O14   V2    S    
C82   H44   S    
C12   C20   A    
C27   C35   A    
O9    V1    S    
O5    V1    S    
C56   C60   A    
C29   C41   A    
C48   C52   A    
C81   H41   S    
O16   V4    S    
C69   C73   A    
C57   H25   S    
C3    O13   A    
C64   C68   A    
C39   H19   S    
C59   H27   S    
C20   H11   S    
C74   H38   S    
C15   C19   A    
O11   V3    S    
C30   C42   A    
O12   V4    S    
C22   C26   A    
C70   C77   A    
C73   C77   A    
C8    C9    S    
C9    C17   A    
C85   H50   S    
O10   C6    A    
C71   H35   S    
C48   C68   A    
C15   H15   S    
C76   C80   A    
C32   C44   A    
C82   H43   S    
C60   C64   A    
C33   C34   A    
C42   H2    S    
C45   C65   A    
C41   H1    S    
O20   V2    S    
C75   C79   A    
C1    C67   S    
C89   H60   S    
C46   C50   A    
C12   C24   A    
C27   C31   A    
C71   C80   A    
C13   C17   A    
C72   C79   A    
C91   H65   S    
O6    C2    A    
C47   H23   S    
C90   H62   S    
C62   C66   A    
C37   C41   A    
C24   C28   A    
C61   C65   A    
C83   H45   S    
C70   C74   A    
C18   H9    S    
C84   H49   S    
C4    O14   A    
C55   C59   A    
C47   C51   A    
C40   H20   S    
C22   H5    S    
O4    V2    S    
C28   C32   A    
C85   H51   S    
C90   H63   S    
