data_str_m2_o14_o14_f0_pcu.sym.173
_audit_creation_date              2012-12-10T17:17:53-0500
_audit_creation_method            fapswitch 2.2
_symmetry_space_group_name_H-M    P1
_symmetry_Int_Tables_number       1
_space_group_crystal_system       triclinic
_cell_length_a                    14.642146
_cell_length_b                    15.911026
_cell_length_c                    9.635962
_cell_angle_alpha                 89.691704
_cell_angle_beta                  89.408128
_cell_angle_gamma                 89.914168
_cell_volume                      2244.75054491

loop_
_atom_site_label
_atom_site_type_symbol
_atom_type_description
_atom_site_fract_x
_atom_site_fract_y
_atom_site_fract_z
_atom_type_partial_charge
C1    C     C_R   0.380968 0.881753 0.500247 0.829677
C2    C     C_R   0.378392 0.116053 0.500605 0.812010
C3    C     C_R   0.878088 0.383589 0.502158 0.810640
C4    C     C_R   0.877679 0.615405 0.500115 0.801814
C5    C     C_R   0.316870 0.247993 0.412114 0.614057
C6    C     C_R   0.339101 0.733086 0.498047 0.622831
C7    C     C_R   0.812216 0.744174 0.403658 0.641043
C8    C     C_R   0.796852 0.268473 0.391025 0.588451
C9    C     C_R   0.748763 0.808193 0.404799 -0.192464
C10   C     C_R   0.731282 0.206926 0.388215 -0.251247
C11   C     C_R   0.252628 0.311374 0.411977 -0.271035
C12   C     C_R   0.274753 0.669392 0.496997 -0.270742
C13   C     C_R   0.676679 0.807296 0.500338 -0.154416
C14   C     C_R   0.670474 0.196803 0.498841 -0.143151
C15   C     C_R   0.176893 0.307426 0.500471 -0.145290
C16   C     C_R   0.181822 0.688696 0.498562 -0.129835
C17   C     C_R   0.664520 0.011414 0.149872 -0.150685
C18   C     C_R   0.164420 0.486780 0.149722 -0.136240
C19   C     C_R   0.746395 0.030639 0.087686 -0.221793
C20   C     C_R   0.245590 0.464660 0.087916 -0.208601
C21   C     C_R   0.751682 0.035054 0.946853 -0.186023
C22   C     C_R   0.250278 0.458423 0.947233 -0.183730
C23   C     C_R   0.676119 0.016382 0.864632 0.171691
C24   C     C_R   0.175295 0.479539 0.864923 0.186314
C25   C     C_R   0.584378 0.007363 0.925651 0.207013
C26   C     C_R   0.084031 0.490573 0.925859 0.202440
C27   C     C_R   0.582068 0.006366 0.075750 0.192529
C28   C     C_R   0.081878 0.492113 0.075834 0.177713
C29   C     C_R   0.421930 0.994172 0.074721 0.002142
C30   C     C_R   0.922236 0.508706 0.074686 0.024422
C31   C     C_R   0.612944 0.122758 0.499380 0.836029
C32   C     C_R   0.615586 0.878964 0.500027 0.849229
C33   C     C_R   0.117805 0.619295 0.499393 0.814522
C34   C     C_R   0.115322 0.378772 0.499997 0.812396
C35   C     C_R   0.421957 0.993843 0.927342 -0.033057
C36   C     C_R   0.922408 0.509811 0.927398 -0.059918
C37   C     C_R   0.214568 0.102393 0.679894 -0.214448
C38   C     C_R   0.187856 0.922434 0.479153 -0.214968
C39   C     C_R   0.712325 0.600439 0.675057 -0.208430
C40   C     C_R   0.750931 0.354104 0.752415 -0.205085
C41   C     C_R   0.137025 0.096315 0.765197 0.109251
C42   C     C_R   0.094853 0.941960 0.473768 0.109362
C43   C     C_R   0.636043 0.596138 0.763088 0.078237
C44   C     C_R   0.689424 0.340943 0.862446 0.119860
C45   C     C_R   0.573506 0.662233 0.766118 0.622280
C46   C     C_R   0.611698 0.292506 0.840579 0.613899
C47   C     C_R   0.070727 0.159767 0.759960 0.605773
C48   C     C_R   0.030100 0.877711 0.485803 0.634822
C49   C     C_R   0.586571 0.731919 0.680809 -0.154595
C50   C     C_R   0.601376 0.251188 0.715358 -0.241262
C51   C     C_R   0.082889 0.228598 0.671778 -0.244046
C52   C     C_R   0.058254 0.794163 0.497137 -0.192500
C53   C     C_R   0.663874 0.738288 0.591998 0.006049
C54   C     C_R   0.671309 0.252396 0.612622 0.001613
C55   C     C_R   0.162743 0.237217 0.589064 0.016321
C56   C     C_R   0.151840 0.773160 0.496788 -0.002462
C57   C     C_R   0.229182 0.172620 0.591519 -0.004994
C58   C     C_R   0.217493 0.838299 0.492745 -0.040832
C59   C     C_R   0.728456 0.672001 0.590385 -0.024205
C60   C     C_R   0.743902 0.310260 0.624326 -0.007946
C61   C     C_R   0.306768 0.179265 0.502176 -0.200497
C62   C     C_R   0.311173 0.817180 0.499274 -0.165965
C63   C     C_R   0.805017 0.677784 0.499323 -0.210211
C64   C     C_R   0.805590 0.320204 0.507949 -0.204012
Cu1   Cu    Cu3+1 0.499990 0.000000 0.640660 0.965373
Cu2   Cu    Cu3+1 0.999990 0.500000 0.640660 0.958469
Cu3   Cu    Cu3+1 0.500010 0.000000 0.359340 0.997975
Cu4   Cu    Cu3+1 0.000010 0.500000 0.359340 1.006324
H1    H     H_    0.818489 0.044638 0.899758 0.199506
H2    H     H_    0.316784 0.447320 0.900157 0.179153
H3    H     H_    0.357762 0.988662 0.873626 0.129192
H4    H     H_    0.858678 0.519165 0.874080 0.138021
H5    H     H_    0.261276 0.049978 0.682161 0.171445
H6    H     H_    0.236497 0.973261 0.469203 0.146096
H7    H     H_    0.756572 0.546124 0.671081 0.168615
H8    H     H_    0.803322 0.398039 0.775324 0.197676
H9    H     H_    0.533309 0.778722 0.682923 0.208573
H10   H     H_    0.537920 0.217998 0.700689 0.195671
H11   H     H_    0.027884 0.273769 0.667564 0.189571
H12   H     H_    0.006473 0.746128 0.505155 0.172301
H13   H     H_    0.757521 0.860220 0.332784 0.177915
H14   H     H_    0.730275 0.164991 0.300126 0.189040
H15   H     H_    0.263477 0.365288 0.344962 0.163101
H16   H     H_    0.297479 0.604529 0.494976 0.153170
H17   H     H_    0.357590 0.989452 0.130411 0.131712
H18   H     H_    0.858128 0.515770 0.130246 0.145130
H19   H     H_    0.670509 0.000960 0.257625 0.200279
H20   H     H_    0.170805 0.499644 0.256661 0.197181
H21   H     H_    0.807413 0.037870 0.149170 0.188114
H22   H     H_    0.306835 0.457367 0.148961 0.185744
N1    N     N_R   0.501200 0.000000 0.147910 -0.194378
N2    N     N_R   0.001200 0.500000 0.147910 -0.194730
N3    N     N_R   0.501270 0.000000 0.852040 -0.192038
N4    N     N_R   0.001270 0.500000 0.852040 -0.191244
O1    O     O_R   0.409820 0.909830 0.618810 -0.592704
O2    O     O_R   0.409820 0.090170 0.618810 -0.604070
O3    O     O_R   0.909820 0.409830 0.618810 -0.620214
O4    O     O_R   0.909820 0.590170 0.618810 -0.595940
O5    O     O_R   0.409840 0.909830 0.381240 -0.575254
O6    O     O_R   0.409840 0.090170 0.381240 -0.525286
O7    O     O_R   0.909840 0.409830 0.381240 -0.512280
O8    O     O_R   0.909840 0.590170 0.381240 -0.536471
O9    O     O_R   0.590170 0.090170 0.618760 -0.570905
O10   O     O_R   0.590170 0.909830 0.618760 -0.569021
O11   O     O_R   0.090170 0.590170 0.618760 -0.544444
O12   O     O_R   0.090170 0.409830 0.618760 -0.566623
O13   O     O_R   0.590190 0.090180 0.381190 -0.585469
O14   O     O_R   0.590190 0.909820 0.381190 -0.599584
O15   O     O_R   0.090190 0.590180 0.381190 -0.588599
O16   O     O_R   0.090190 0.409820 0.381190 -0.585939
F1    F     F_    0.391349 0.255570 0.327666 -0.632126
F2    F     F_    0.429022 0.712627 0.493625 -0.682733
F3    F     F_    0.882624 0.748656 0.310968 -0.645390
F4    F     F_    0.855689 0.273395 0.281274 -0.647965
N5    N     N_3   0.701801 0.996690 0.725966 -0.498841
H23   H     H_    0.743244 0.942986 0.728318 0.223189
H24   H     H_    0.742299 0.045264 0.684996 0.215198
N6    N     N_3   0.201668 0.502400 0.727622 -0.508941
H25   H     H_    0.242497 0.454814 0.684827 0.197879
H26   H     H_    0.243093 0.555803 0.733698 0.220423
N7    N     N_3   0.125732 0.023357 0.852068 -0.572830
H27   H     H_    0.176857 0.024925 0.926963 0.212152
H28   H     H_    0.063374 0.025352 0.905652 0.276666
N8    N     N_3   0.066933 0.027376 0.454133 -0.566340
H29   H     H_    0.022558 0.043393 0.535463 0.254658
H30   H     H_    0.029951 0.030861 0.362043 0.253510
N9    N     N_3   0.621736 0.523308 0.847607 -0.558621
H31   H     H_    0.617962 0.542427 0.951162 0.264824
H32   H     H_    0.558725 0.497149 0.821740 0.259946
N10   N     N_3   0.706068 0.380301 0.993714 -0.581385
H33   H     H_    0.766022 0.354309 0.033565 0.257134
H34   H     H_    0.654105 0.366213 0.065204 0.285999
F5    F     F_    0.498232 0.657984 0.849267 -0.662855
F6    F     F_    0.545926 0.284653 0.940112 -0.651285
F7    F     F_    0.993157 0.154556 0.837909 -0.677584
F8    F     F_    0.939650 0.896258 0.484781 -0.684581

loop_
_geom_bond_atom_site_label_1
_geom_bond_atom_site_label_2
_ccdc_geom_bond_type
C58   C62   A    
Cu2   Cu4   S    
C26   N4    A    
C40   C60   A    
C4    O4    A    
N5    H24   S    
C13   C32   S    
C14   C31   S    
C1    C62   S    
C1    O5    A    
C16   C56   A    
C53   C59   A    
C42   N8    S    
C54   C60   A    
C3    C64   S    
C25   N3    A    
C4    C63   S    
C50   C54   A    
Cu2   O3    S    
C19   C21   A    
C24   C26   A    
C5    C11   A    
C6    C12   A    
Cu3   O14   S    
C44   N10   S    
N5    H23   S    
C12   H16   S    
C18   C20   A    
C41   N7    S    
C9    C13   A    
N6    H25   S    
C17   C19   A    
C38   C58   A    
C11   C15   A    
Cu1   O2    S    
C12   C16   A    
C56   C58   A    
Cu1   Cu3   S    
C4    O8    A    
C32   O10   A    
C27   N1    A    
C39   H7    S    
C30   H18   S    
C17   C27   A    
C29   H17   S    
C2    C61   S    
Cu3   O5    S    
Cu2   N4    S    
C3    O7    A    
Cu1   N3    S    
C2    O6    A    
C6    F2    S    
Cu2   O12   S    
C50   H10   S    
C26   C28   A    
C44   C46   A    
C46   C50   A    
C13   C53   A    
C35   N3    A    
Cu1   O1    S    
C34   O12   A    
C18   C28   A    
Cu4   O7    S    
C30   N2    A    
C10   C14   A    
C43   N9    S    
C39   C43   A    
C5    F1    S    
C11   H15   S    
C20   H22   S    
C10   H14   S    
C18   H20   S    
C40   H8    S    
C21   H1    S    
C15   C55   A    
C42   C48   A    
N10   H34   S    
N9    H32   S    
C19   H21   S    
C16   C33   S    
C46   F6    S    
C3    O3    A    
C45   C49   A    
C1    O1    A    
C39   C59   A    
Cu3   N1    S    
C41   C47   A    
C5    C61   A    
C28   N2    A    
Cu4   O16   S    
C43   C45   A    
C51   H11   S    
C7    C63   A    
N7    H27   S    
Cu3   O6    S    
C8    C64   A    
C14   C54   A    
C20   C22   A    
C55   C57   A    
C34   O16   A    
C22   C24   A    
C33   O15   A    
Cu1   O9    S    
Cu2   O11   S    
C40   C44   A    
N9    H31   S    
C29   N1    A    
N8    H30   S    
C38   H6    S    
C7    C9    A    
C37   H5    S    
C7    F3    S    
C15   C34   S    
C47   F7    S    
C17   H19   S    
C31   O13   A    
C48   F8    S    
Cu4   O8    S    
C47   C51   A    
C57   C61   A    
C8    F4    S    
C45   F5    S    
C25   C27   A    
C29   C35   A    
C59   C63   A    
C33   O11   A    
C30   C36   A    
C6    C62   A    
C60   C64   A    
Cu2   O4    S    
C21   C23   A    
N10   H33   S    
C35   H3    S    
Cu3   O13   S    
C52   C56   A    
C49   C53   A    
C2    O2    A    
C24   N6    S    
Cu4   N2    S    
C49   H9    S    
C51   C55   A    
Cu4   O15   S    
C23   C25   A    
C37   C41   A    
N6    H26   S    
N7    H28   S    
C23   N5    S    
C38   C42   A    
C36   N4    A    
C48   C52   A    
C8    C10   A    
C32   O14   A    
C9    H13   S    
Cu1   O10   S    
C52   H12   S    
C22   H2    S    
C37   C57   A    
C36   H4    S    
C31   O9    A    
N8    H29   S    
