data_str_m9_o18_o23_f0_sra.sym.30
_audit_creation_date              2012-12-11T15:30:34-0500
_audit_creation_method            fapswitch 2.2
_symmetry_space_group_name_H-M    P1
_symmetry_Int_Tables_number       1
_space_group_crystal_system       triclinic
_cell_length_a                    6.95177
_cell_length_b                    20.461622
_cell_length_c                    24.479197
_cell_angle_alpha                 89.590169
_cell_angle_beta                  90.400127
_cell_angle_gamma                 89.25892
_cell_volume                      3481.56337963

loop_
_atom_site_label
_atom_site_type_symbol
_atom_type_description
_atom_site_fract_x
_atom_site_fract_y
_atom_site_fract_z
_atom_type_partial_charge
O1    O     O_R   0.507310 0.423620 0.460450 -0.540876
O2    O     O_R   0.170760 0.556060 0.437190 -0.539238
O3    O     O_R   0.004040 0.576380 0.539550 -0.541400
C1    C     C_R   0.338655 0.576135 0.421253 0.737382
O4    O     O_R   0.177350 0.422870 0.454070 -0.541345
O5    O     O_R   0.010680 0.442240 0.556560 -0.537397
C2    C     C_R   0.347015 0.399498 0.443007 0.708063
O6    O     O_R   0.500670 0.557760 0.443440 -0.528131
O7    O     O_3   0.340380 0.506510 0.533610 -0.366994
V1    V     V_3+5 0.064130 0.498790 0.493770 1.422162
O8    O     O_R   0.681170 0.443940 0.562810 -0.537620
C3    C     C_R   0.850994 0.423921 0.578703 0.718571
O9    O     O_R   0.674570 0.577130 0.545930 -0.526798
C4    C     C_R   0.842529 0.600827 0.556963 0.738059
V2    V     V_3+5 0.564560 0.501210 0.506230 1.444978
O10   O     O_3   0.838170 0.493490 0.466390 -0.370547
C5    C     C_R   0.977287 0.838274 0.910834 -0.078353
C6    C     C_R   0.846638 0.662156 0.588698 -0.062580
C7    C     C_R   0.040885 0.721363 0.906640 0.214721
C8    C     C_R   0.031871 0.779705 0.936167 -0.194253
C9    C     C_R   0.931819 0.839036 0.854797 -0.222350
C10   C     C_R   0.942886 0.781052 0.822820 0.044095
C11   C     C_R   0.998432 0.721910 0.849907 0.120487
C12   C     C_R   0.903298 0.779843 0.764937 0.071667
C13   C     C_R   0.920275 0.719709 0.735183 0.072604
C14   C     C_R   0.976113 0.662849 0.764238 -0.203655
C15   C     C_R   0.013763 0.664024 0.819952 -0.177006
C16   C     C_R   0.847873 0.836816 0.735718 -0.184423
C17   C     C_R   0.810609 0.835500 0.679954 -0.193722
C18   C     C_R   0.825640 0.777526 0.650588 0.106176
C19   C     C_R   0.880747 0.718484 0.677340 0.091061
C20   C     C_R   0.783631 0.778618 0.594419 -0.198210
C21   C     C_R   0.792710 0.721449 0.563342 0.203669
C22   C     C_R   0.891398 0.660830 0.644950 -0.271465
H1    H     H_    0.057071 0.618454 0.839470 0.159125
H2    H     H_    0.929477 0.613794 0.662163 0.108450
H3    H     H_    0.768235 0.880695 0.659543 0.119189
H4    H     H_    0.067743 0.779570 0.979339 0.108721
H5    H     H_    0.892920 0.885910 0.837456 0.100972
H6    H     H_    0.993188 0.616007 0.745024 0.127876
H7    H     H_    0.831208 0.883781 0.754718 0.119082
H8    H     H_    0.741666 0.824286 0.574702 0.107440
C23   C     C_3   0.725442 0.241263 0.791855 -0.372506
C24   C     C_3   0.080348 0.262407 0.796469 -0.342285
C25   C     C_3   0.063593 0.311216 0.747574 -0.334534
H9    H     H_    0.702221 0.266116 0.831609 0.150925
H10   H     H_    0.227295 0.240145 0.797415 0.140560
H11   H     H_    0.061114 0.289344 0.835423 0.145093
H12   H     H_    0.046296 0.361899 0.762964 0.150723
H13   H     H_    0.200153 0.310032 0.724107 0.141460
C26   C     C_1   0.863654 0.378671 0.624565 -0.184158
C27   C     C_3   0.927496 0.208066 0.791818 0.271440
C28   C     C_3   0.703258 0.290663 0.742997 0.084721
C29   C     C_3   0.893223 0.293247 0.709301 0.285770
C30   C     C_3   0.934346 0.223194 0.687889 -0.405085
C31   C     C_3   0.954601 0.173495 0.736125 -0.335000
C32   C     C_1   0.876222 0.340426 0.662702 -0.045126
C33   C     C_1   0.946793 0.160421 0.837936 -0.082872
C34   C     C_1   0.960359 0.121797 0.875778 -0.191961
H14   H     H_    0.845783 0.134487 0.731387 0.140387
H15   H     H_    0.099067 0.149498 0.734807 0.144661
H16   H     H_    0.815883 0.207844 0.660186 0.137531
H17   H     H_    0.612619 0.203364 0.788456 0.121886
H18   H     H_    0.587359 0.272632 0.715464 0.109712
H19   H     H_    0.068948 0.222615 0.663523 0.150887
C35   C     C_3   0.522255 0.675300 0.244702 -0.012085
C36   C     C_3   0.198879 0.725368 0.264023 -0.419848
C37   C     C_3   0.225250 0.774849 0.216105 -0.419271
H20   H     H_    0.441412 0.633177 0.227953 0.139230
H21   H     H_    0.102675 0.747315 0.295255 0.154106
H22   H     H_    0.127574 0.680883 0.248306 0.155221
H23   H     H_    0.162523 0.754840 0.177954 0.168912
H24   H     H_    0.141919 0.820334 0.224859 0.158464
C38   C     C_1   0.476605 0.878269 0.124583 -0.182041
C39   C     C_3   0.395055 0.706229 0.290688 0.249388
C40   C     C_3   0.556623 0.726639 0.197533 0.062974
C41   C     C_3   0.441270 0.791511 0.208346 0.247538
C42   C     C_3   0.511119 0.821033 0.263700 0.018324
C43   C     C_3   0.488301 0.770306 0.311386 -0.366602
C44   C     C_1   0.462953 0.839570 0.162376 0.026586
C45   C     C_1   0.365543 0.659505 0.337177 -0.052969
C46   C     C_1   0.348511 0.621428 0.375271 -0.190335
H25   H     H_    0.628260 0.759349 0.331832 0.153150
H26   H     H_    0.395396 0.792346 0.343400 0.130089
H27   H     H_    0.711801 0.739098 0.196063 0.149653
H28   H     H_    0.416468 0.863997 0.272686 0.130631
C47   C     C_R   0.467342 0.161761 0.088763 -0.130754
C48   C     C_R   0.357652 0.340353 0.409057 -0.043600
C49   C     C_R   0.484606 0.280385 0.091031 0.209022
C50   C     C_R   0.509574 0.221498 0.062827 0.101892
C51   C     C_R   0.409827 0.160940 0.144273 0.061268
C52   C     C_R   0.425232 0.219361 0.175925 0.023879
C53   C     C_R   0.438791 0.279515 0.147032 0.052724
C54   C     C_R   0.423882 0.221332 0.234692 0.087056
C55   C     C_R   0.399690 0.282397 0.262255 0.065043
C56   C     C_R   0.365797 0.338534 0.230030 -0.224094
C57   C     C_R   0.399017 0.338088 0.174237 -0.149552
C58   C     C_R   0.457017 0.164976 0.266878 -0.199342
C59   C     C_R   0.424614 0.165435 0.322733 -0.203309
C60   C     C_R   0.387032 0.224011 0.349657 0.113188
C61   C     C_R   0.398422 0.284384 0.321007 0.075732
C62   C     C_R   0.345425 0.222587 0.405510 -0.169012
C63   C     C_R   0.320504 0.280390 0.434115 -0.215889
C64   C     C_R   0.410953 0.342744 0.353143 0.097943
H29   H     H_    0.387802 0.384070 0.152182 0.163519
H30   H     H_    0.283416 0.278158 0.477013 0.112655
H31   H     H_    0.434372 0.119731 0.345321 0.122513
H32   H     H_    0.315416 0.383860 0.247365 0.149393
H33   H     H_    0.505710 0.119506 0.249384 0.150024
H34   H     H_    0.330181 0.176488 0.427035 0.117033
O11   O     O_R   0.323590 0.942280 0.056590 -0.534990
O12   O     O_R   0.647030 0.077140 0.045940 -0.542945
O13   O     O_R   0.813570 0.057750 0.943430 -0.536903
C65   C     C_R   0.477472 0.100885 0.056644 0.732102
O14   O     O_R   0.653510 0.943950 0.062820 -0.533603
O15   O     O_R   0.820100 0.923600 0.960440 -0.534517
C66   C     C_R   0.485648 0.923918 0.078800 0.727478
O16   O     O_R   0.317060 0.076430 0.039590 -0.540274
O17   O     O_3   0.483830 0.993520 0.966410 -0.367147
V3    V     V_3+5 0.760140 0.001200 0.006230 1.419612
O18   O     O_R   0.149560 0.922820 0.954030 -0.536853
C67   C     C_R   0.981553 0.899179 0.942950 0.711070
O19   O     O_R   0.143080 0.056020 0.937150 -0.539159
C68   C     C_R   0.973250 0.076185 0.921372 0.720121
V4    V     V_3+5 0.259690 0.998730 0.993720 1.417137
O20   O     O_3   0.986120 0.006480 0.033580 -0.368946
N1    N     N_3   0.644280 0.355834 0.761767 -0.672997
H35   H     H_    0.505696 0.352654 0.777868 0.224784
H36   H     H_    0.734200 0.370660 0.793630 0.236668
N2    N     N_3   0.508257 0.699485 0.143844 -0.685451
H37   H     H_    0.605351 0.661376 0.135662 0.229913
H38   H     H_    0.371301 0.679050 0.144540 0.227459
N3    N     N_3   0.745117 0.723005 0.506069 -0.673501
H39   H     H_    0.871452 0.713171 0.484527 0.212906
H40   H     H_    0.698804 0.769814 0.494113 0.219294
N4    N     N_3   0.708836 0.845010 0.260257 -0.685904
H41   H     H_    0.806582 0.805904 0.262396 0.226606
H42   H     H_    0.735448 0.873867 0.294519 0.227330
C69   C     C_3   0.714075 0.646016 0.265880 -0.849438
H43   H     H_    0.802928 0.683594 0.285797 0.213811
H44   H     H_    0.688523 0.605893 0.295610 0.230311
H45   H     H_    0.796518 0.625055 0.231317 0.209316
C70   C     C_3   0.509041 0.403907 0.332636 -0.819342
H46   H     H_    0.595772 0.394895 0.295583 0.220119
H47   H     H_    0.401347 0.443621 0.325332 0.190601
H48   H     H_    0.615651 0.420913 0.363105 0.223196
N5    N     N_3   0.509960 0.341530 0.063026 -0.677566
H49   H     H_    0.413064 0.343912 0.030187 0.248977
H50   H     H_    0.649618 0.342530 0.047481 0.254518
N6    N     N_3   0.566114 0.223701 0.006535 -0.681684
H51   H     H_    0.459215 0.201938 0.982841 0.221551
H52   H     H_    0.693834 0.196754 0.002311 0.234569
C71   C     C_3   0.304064 0.101336 0.164952 -0.781659
H53   H     H_    0.406504 0.059997 0.172025 0.189110
H54   H     H_    0.219563 0.111469 0.202215 0.215491
H55   H     H_    0.194345 0.086202 0.134647 0.222435
N7    N     N_3   0.095750 0.661463 0.934055 -0.678666
H56   H     H_    0.141228 0.670573 0.974063 0.232408
H57   H     H_    0.972493 0.632950 0.937052 0.223783

loop_
_geom_bond_atom_site_label_1
_geom_bond_atom_site_label_2
_ccdc_geom_bond_type
C13   C19   A    
C70   H48   S    
C43   H25   S    
C30   C31   S    
N7    H56   S    
N3    H39   S    
C47   C51   A    
C4    C6    S    
N2    H38   S    
C55   C56   A    
C1    O6    A    
C3    C26   S    
O12   C65   A    
C45   C46   T    
C23   H17   S    
O19   C68   A    
C41   C42   S    
C14   C15   A    
O15   C67   A    
C10   C12   A    
C16   C17   A    
N5    H50   S    
C51   C71   S    
O1    C2    A    
O5    C3    A    
C43   H26   S    
C69   H45   S    
V3    O20   S    
C23   C27   S    
O19   V4    S    
C35   H20   S    
C54   C58   A    
V2    O10   S    
C30   H16   S    
C16   H7    S    
C37   C41   S    
C5    C8    A    
C49   N5    S    
C52   C53   A    
C47   C65   S    
C28   N1    S    
N5    H49   S    
C48   C64   A    
C40   N2    S    
C23   C28   S    
C35   C69   S    
C7    C8    A    
O14   C66   A    
O11   V4    S    
C26   C32   T    
O16   V4    S    
C11   C15   A    
C71   H54   S    
O7    V1    S    
C36   H22   S    
C24   H10   S    
C50   N6    S    
C57   H29   S    
C42   H28   S    
C56   H32   S    
N7    H57   S    
C58   H33   S    
C38   C44   T    
O9    C4    A    
C49   C53   A    
C62   C63   A    
O8    V2    S    
C60   C62   A    
C30   H19   S    
C19   C22   A    
C27   C31   S    
C36   C37   S    
C7    N7    S    
C12   C13   A    
N4    H42   S    
O17   V3    S    
C51   C52   A    
O12   V3    S    
C42   C43   S    
C39   C45   S    
C15   H1    S    
C13   C14   A    
C28   C29   S    
C5    C9    A    
O15   V3    S    
O2    C1    A    
N1    H36   S    
O18   V4    S    
C17   C18   A    
C21   N3    S    
O13   V3    S    
C8    H4    S    
C2    C48   S    
C9    H5    S    
C25   H12   S    
C37   H23   S    
C35   C40   S    
C56   C57   A    
C52   C54   A    
C64   C70   S    
C40   C41   S    
C71   H55   S    
C6    C22   A    
O18   C67   A    
C65   O16   A    
O3    C4    A    
C27   C33   S    
O1    V2    S    
O17   V4    S    
C25   C29   S    
O14   V3    S    
O6    V2    S    
O9    V2    S    
V4    O20   S    
N6    H52   S    
C62   H34   S    
C36   C39   S    
C6    C21   A    
N1    H35   S    
O2    V1    S    
C53   C57   A    
C48   C63   A    
C24   C25   S    
C7    C11   A    
O4    C2    A    
C41   C44   S    
C34   C68   S    
C70   H47   S    
C38   C66   S    
C29   C30   S    
C31   H15   S    
C12   C16   A    
N4    H41   S    
C24   C27   S    
O5    V1    S    
C69   H43   S    
C61   C64   A    
C59   H31   S    
C55   C61   A    
N6    H51   S    
C59   C60   A    
O11   C66   A    
C36   H21   S    
C20   C21   A    
C70   H46   S    
C37   H24   S    
O4    V1    S    
O3    V1    S    
V1    O10   S    
C18   C20   A    
C69   H44   S    
C14   H6    S    
C18   C19   A    
O13   C68   A    
C42   N4    S    
C25   H13   S    
C35   C39   S    
C60   C61   A    
C28   H18   S    
N2    H37   S    
C63   H30   S    
C22   H2    S    
O7    V2    S    
C54   C55   A    
C23   H9    S    
C33   C34   T    
C31   H14   S    
C5    C67   S    
C1    C46   S    
C58   C59   A    
C47   C50   A    
C17   H3    S    
N3    H40   S    
C20   H8    S    
C10   C11   A    
C49   C50   A    
C9    C10   A    
C39   C43   S    
C40   H27   S    
C24   H11   S    
O8    C3    A    
C71   H53   S    
C29   C32   S    
