data_str_m9_o16_o22_f0_sra.sym.5
_audit_creation_date              2012-12-11T15:11:48-0500
_audit_creation_method            fapswitch 2.2
_symmetry_space_group_name_H-M    P1
_symmetry_Int_Tables_number       1
_space_group_crystal_system       triclinic
_cell_length_a                    20.247667
_cell_length_b                    7.102278
_cell_length_c                    13.443676
_cell_angle_alpha                 89.999767
_cell_angle_beta                  103.583822
_cell_angle_gamma                 90.000449
_cell_volume                      1879.18346397

loop_
_atom_site_label
_atom_site_type_symbol
_atom_type_description
_atom_site_fract_x
_atom_site_fract_y
_atom_site_fract_z
_atom_type_partial_charge
O1    O     O_R   0.449830 0.506740 0.599960 -0.540195
O2    O     O_R   0.550170 0.006740 0.400040 -0.540192
O3    O     O_R   0.588980 0.179860 0.596720 -0.543663
O4    O     O_R   0.411020 0.679860 0.403280 -0.543667
C1    C     C_R   0.616027 0.344536 0.619940 0.715714
C2    C     C_R   0.383973 0.844535 0.380058 0.715713
O5    O     O_R   0.452740 0.177340 0.612040 -0.540805
O6    O     O_R   0.547260 0.677340 0.387960 -0.540811
O7    O     O_R   0.412960 0.002070 0.415460 -0.541760
O8    O     O_R   0.587040 0.502070 0.584540 -0.541758
C3    C     C_R   0.436869 0.345917 0.639099 0.779281
C4    C     C_R   0.563130 0.845919 0.360900 0.779281
O9    O     O_3   0.487110 0.337570 0.435490 -0.378393
O10   O     O_3   0.512890 0.837570 0.564510 -0.378391
V1    V     V_3+5 0.502390 0.064650 0.511970 1.475689
V2    V     V_3+5 0.497610 0.564650 0.488030 1.475677
C5    C     C_R   0.607864 0.854252 0.104969 -0.150872
C6    C     C_R   0.392134 0.354162 0.895026 -0.150873
H1    H     H_    0.690187 0.860169 0.978700 0.151029
H2    H     H_    0.309812 0.360049 0.021298 0.151047
H3    H     H_    0.581764 0.849163 0.024776 0.163040
H4    H     H_    0.418233 0.349026 0.975217 0.163037
C7    C     C_R   0.602212 0.854858 0.282328 -0.164359
C8    C     C_R   0.397787 0.354849 0.717671 -0.164360
C9    C     C_R   0.929949 0.852847 0.321323 -0.034988
C10   C     C_R   0.070051 0.352995 0.678680 -0.035003
C11   C     C_R   0.893149 0.869141 0.396293 -0.181440
C12   C     C_R   0.106850 0.369356 0.603713 -0.181409
C13   C     C_R   0.822791 0.879679 0.370246 -0.112504
C14   C     C_R   0.177208 0.379839 0.629759 -0.112492
C15   C     C_R   0.785923 0.872871 0.267026 0.031046
C16   C     C_R   0.214077 0.372923 0.732976 0.031039
C17   C     C_R   0.823110 0.866726 0.188831 -0.082130
C18   C     C_R   0.176890 0.366727 0.811171 -0.082123
C19   C     C_R   0.713249 0.869818 0.239329 0.077647
C20   C     C_R   0.286751 0.369827 0.760672 0.077650
C21   C     C_R   0.679119 0.863577 0.134282 -0.052963
C22   C     C_R   0.320880 0.363523 0.865717 -0.052976
C23   C     C_R   0.716134 0.864061 0.059031 -0.140830
C24   C     C_R   0.283865 0.363982 0.940968 -0.140833
C25   C     C_R   0.786684 0.864880 0.085046 0.597751
C26   C     C_R   0.213316 0.364826 0.914955 0.597776
C27   C     C_R   0.672992 0.868066 0.312379 -0.298447
C28   C     C_R   0.327007 0.368091 0.687622 -0.298448
C29   C     C_R   0.569611 0.848211 0.178588 0.611418
C30   C     C_R   0.430386 0.348144 0.821408 0.611429
C31   C     C_R   0.895606 0.859805 0.216743 -0.097002
C32   C     C_R   0.104394 0.359830 0.783258 -0.096965
H5    H     H_    0.694686 0.873716 0.393449 0.140669
H6    H     H_    0.305313 0.373769 0.606553 0.140667
H7    H     H_    0.799000 0.890303 0.433658 0.145496
H8    H     H_    0.201000 0.390523 0.566351 0.145462
H9    H     H_    0.919107 0.868496 0.476626 0.142437
H10   H     H_    0.080888 0.368806 0.523382 0.142407
C33   C     C_3   0.222442 0.664699 0.182326 -0.382485
C34   C     C_3   0.777557 0.164702 0.817675 -0.382466
H11   H     H_    0.191035 0.549779 0.203719 0.201237
H12   H     H_    0.808964 0.049778 0.796284 0.201242
H13   H     H_    0.226804 0.637623 0.102741 0.249197
H14   H     H_    0.773194 0.137632 0.897260 0.249210
C35   C     C_3   0.294130 0.659190 0.254828 -0.377935
C36   C     C_3   0.705869 0.159192 0.745173 -0.377946
H15   H     H_    0.332113 0.622298 0.210063 0.187147
H16   H     H_    0.667886 0.122303 0.789937 0.187148
H17   H     H_    0.295586 0.545226 0.312028 0.207811
H18   H     H_    0.704414 0.045226 0.687974 0.207808
H19   H     H_    0.156350 0.777097 0.325209 0.126768
H20   H     H_    0.843658 0.277104 0.674795 0.126765
H21   H     H_    0.260169 0.772650 0.427033 0.046609
H22   H     H_    0.739834 0.272640 0.572970 0.046626
C37   C     C_3   0.185247 0.893718 0.300611 0.394884
C38   C     C_3   0.814756 0.393720 0.699389 0.394793
C39   C     C_3   0.234527 0.012095 0.156235 0.525567
C40   C     C_3   0.765475 0.512100 0.843762 0.525586
C41   C     C_3   0.187932 0.858900 0.187365 -0.131870
C42   C     C_3   0.812069 0.358901 0.812635 -0.131839
H23   H     H_    0.213447 0.154279 0.164639 0.161885
H24   H     H_    0.786556 0.654284 0.835358 0.161883
C43   C     C_3   0.312819 0.851863 0.310198 -0.066416
C44   C     C_3   0.687182 0.351863 0.689800 -0.066419
C45   C     C_3   0.258183 0.892409 0.372801 -0.199012
C46   C     C_3   0.741820 0.392403 0.627198 -0.198957
C47   C     C_3   0.307862 0.002220 0.224717 -0.356525
C48   C     C_3   0.692140 0.502223 0.775280 -0.356519
H25   H     H_    0.344211 0.966142 0.177071 0.207588
H26   H     H_    0.655790 0.466147 0.822926 0.207579
H27   H     H_    0.323196 0.143322 0.257807 0.153389
H28   H     H_    0.676807 0.643325 0.742189 0.153393
O11   O     O_R   0.912980 0.203550 0.915410 -0.541524
O12   O     O_R   0.087020 0.703550 0.084590 -0.541517
O13   O     O_R   0.047270 0.535570 0.887960 -0.550716
O14   O     O_R   0.952730 0.035570 0.112040 -0.550693
C49   C     C_R   0.064272 0.368151 0.861780 0.875443
C50   C     C_R   0.935727 0.868148 0.138219 0.875597
O15   O     O_R   0.911030 0.532970 0.903270 -0.514452
O16   O     O_R   0.088970 0.032970 0.096730 -0.514441
O17   O     O_R   0.949820 0.708150 0.099970 -0.516806
O18   O     O_R   0.050180 0.208150 0.900030 -0.516798
C51   C     C_R   0.883454 0.364969 0.882681 0.800562
C52   C     C_R   0.116546 0.864970 0.117319 0.800678
O19   O     O_3   0.012900 0.375230 0.064480 -0.377530
O20   O     O_3   0.987100 0.875230 0.935520 -0.377537
V3    V     V_3+5 0.997610 0.648190 0.988040 1.657647
V4    V     V_3+5 0.002390 0.148190 0.011960 1.657684
F1    F     F_    0.500863 0.836208 0.148761 -0.699598
F2    F     F_    0.499133 0.336103 0.851231 -0.699600
F3    F     F_    0.236455 0.989492 0.054501 -0.681172
F4    F     F_    0.763546 0.489503 0.945498 -0.681172
F5    F     F_    0.150493 0.059348 0.308948 -0.670458
F6    F     F_    0.849508 0.559356 0.691053 -0.670512
C53   C     C_2   0.272890 0.066313 0.439571 0.494448
H29   H     H_    0.288118 0.050477 0.522088 0.002298
O21   O     O_2   0.268869 0.224050 0.402576 -0.541207
C54   C     C_2   0.727113 0.566302 0.560425 0.494412
H30   H     H_    0.711886 0.550461 0.477908 0.002288
O22   O     O_2   0.731131 0.724041 0.597417 -0.541203
C55   C     C_2   0.004122 0.822904 0.356308 0.339992
H31   H     H_    0.031052 0.870995 0.431601 0.074066
O23   O     O_2   0.035177 0.734715 0.304192 -0.549485
C56   C     C_2   0.995876 0.323120 0.643701 0.339983
H32   H     H_    0.968929 0.371539 0.568493 0.074138
O24   O     O_2   0.964839 0.234618 0.695715 -0.549459
F7    F     F_    0.818417 0.858818 0.006821 -0.720424
F8    F     F_    0.181582 0.358753 0.993178 -0.720406

loop_
_geom_bond_atom_site_label_1
_geom_bond_atom_site_label_2
_ccdc_geom_bond_type
C47   H27   S    
C7    C29   A    
C33   H13   S    
C11   C13   A    
C53   H29   S    
C18   C26   A    
C44   C48   S    
O2    C4    A    
C2    O7    A    
C54   H30   S    
C26   F8    S    
C23   C25   A    
C42   C51   S    
O5    C3    A    
C4    C7    S    
C40   C42   S    
O11   C51   A    
C34   C42   S    
C16   C20   A    
C36   C44   S    
C19   C21   A    
C48   H26   S    
C55   O23   D    
H2    C24   S    
O15   C51   A    
C39   F3    S    
C30   F2    S    
C3    C8    S    
C7    C27   A    
C35   H15   S    
C36   H16   S    
C45   C53   S    
C29   F1    S    
O15   V3    S    
O1    C3    A    
C15   C17   A    
C14   C16   A    
C19   C27   A    
C9    C31   A    
C38   C42   S    
C33   C41   S    
C24   C26   A    
O6    V2    S    
C39   C41   S    
C6    C30   A    
O12   C52   A    
C56   O24   D    
C5    C29   A    
C38   F6    S    
C37   C41   S    
C32   C49   S    
C36   H18   S    
C46   C54   S    
C44   C46   S    
O13   V3    S    
C43   C45   S    
C12   H10   S    
C27   H5    S    
O5    V1    S    
C50   O17   A    
C5    H3    S    
C34   H14   S    
H20   C38   S    
C16   C18   A    
O4    V2    S    
O13   C49   A    
O6    C4    A    
O14   C50   A    
C53   O21   D    
O1    V2    S    
C5    C21   A    
C1    C44   S    
O20   V4    S    
O2    V1    S    
O17   V3    S    
H1    C23   S    
O4    C2    A    
C47   H25   S    
O19   V4    S    
C33   H11   S    
O11   V4    S    
C17   C31   A    
C34   C36   S    
C20   C28   A    
C18   C32   A    
C33   C35   S    
O3    V1    S    
C56   H32   S    
C13   H7    S    
C28   H6    S    
O16   V4    S    
C14   H8    S    
C6    H4    S    
C48   H28   S    
C40   C48   S    
O3    C1    A    
C9    C55   S    
C54   O22   D    
C11   H9    S    
C39   C47   S    
C10   C32   A    
C9    C11   A    
O16   C52   A    
C10   C12   A    
O19   V3    S    
C8    C30   A    
C25   F7    S    
C20   C22   A    
C6    C22   A    
C17   C25   A    
C1    O8    A    
C21   C23   A    
O8    V2    S    
C55   H31   S    
C22   C24   A    
C2    C43   S    
C35   C43   S    
C8    C28   A    
C37   F5    S    
C15   C19   A    
C12   C14   A    
C41   C52   S    
C31   C50   S    
C34   H12   S    
H19   C37   S    
O7    V1    S    
O20   V3    S    
H22   C46   S    
O12   V3    S    
H21   C45   S    
O14   V4    S    
C40   F4    S    
C43   C47   S    
C35   H17   S    
C13   C15   A    
C40   H24   S    
O9    V2    S    
C10   C56   S    
C39   H23   S    
O10   V1    S    
C49   O18   A    
O18   V4    S    
C38   C46   S    
C37   C45   S    
