data_str_m12_o9_o24_f0_bcu.sym.145
_audit_creation_date              2013-03-05T15:58:17-0500
_audit_creation_method            fapswitch 2.2
_symmetry_space_group_name_H-M    P1
_symmetry_Int_Tables_number       1
_space_group_crystal_system       triclinic
_cell_length_a                    14.827945
_cell_length_b                    15.051211
_cell_length_c                    15.185347
_cell_angle_alpha                 111.010033
_cell_angle_beta                  109.059809
_cell_angle_gamma                 108.108582
_cell_volume                      2615.11923629

loop_
_atom_site_label
_atom_site_type_symbol
_atom_site_description
_atom_site_fract_x
_atom_site_fract_y
_atom_site_fract_z
_atom_type_partial_charge
C1    C     C_R   0.927687 0.204952 0.009926 0.056837
C2    C     C_R   0.087749 0.804800 0.007401 0.034516
N1    N     N_R   0.947560 0.293820 0.002910 -0.047939
N2    N     N_R   0.052440 0.706180 0.997090 -0.055812
C3    C     C_R   0.315071 0.756333 0.224190 -0.131537
C4    C     C_R   0.704917 0.196553 0.794105 -0.145642
H1    H     H_    0.380746 0.775501 0.205928 0.093912
H2    H     H_    0.658358 0.169112 0.829821 0.088888
N3    N     N_R   0.208960 0.706170 0.152110 -0.042181
N4    N     N_R   0.791040 0.293830 0.847890 -0.037662
C5    C     C_R   0.214613 0.408087 0.910705 -0.133715
C6    C     C_R   0.774496 0.590845 0.023307 -0.142374
H3    H     H_    0.188705 0.324236 0.855776 0.106306
H4    H     H_    0.791550 0.674523 0.057410 0.126459
N5    N     N_R   0.154330 0.443160 0.946140 -0.038957
N6    N     N_R   0.845670 0.556840 0.053860 -0.041271
C7    C     C_R   0.002022 0.591816 0.302093 -0.180140
C8    C     C_R   0.944145 0.408670 0.685720 -0.157313
H5    H     H_    0.024719 0.674853 0.356065 0.118803
H6    H     H_    0.901359 0.325066 0.620282 0.105413
N7    N     N_R   0.002190 0.556820 0.208880 -0.039000
N8    N     N_R   0.997810 0.443180 0.791120 -0.039354
C9    C     C_R   0.303491 0.590315 0.001401 -0.137960
C10   C     C_R   0.685140 0.408028 0.932994 -0.123478
H7    H     H_    0.357013 0.673356 0.027796 0.088072
H8    H     H_    0.621685 0.323959 0.884235 0.090745
N9    N     N_R   0.210550 0.556810 0.002910 -0.037685
N10   N     N_R   0.789450 0.443190 0.997090 -0.038846
C11   C     C_R   0.919187 0.409997 0.214139 -0.115448
C12   C     C_R   0.025749 0.591369 0.780463 -0.121133
H9    H     H_    0.870596 0.326852 0.189159 0.133593
H10   H     H_    0.052121 0.674817 0.802186 0.108059
N11   N     N_R   0.945970 0.443180 0.152110 -0.040000
N12   N     N_R   0.054030 0.556820 0.847890 -0.043992
C13   C     C_R   0.219022 0.742338 0.310533 -0.113226
C14   C     C_R   0.792076 0.198172 0.699599 -0.140008
H11   H     H_    0.194582 0.739751 0.369017 0.122566
H12   H     H_    0.822737 0.176683 0.645094 0.132544
N13   N     N_R   0.151530 0.706170 0.208880 -0.042425
N14   N     N_R   0.848470 0.293830 0.791120 -0.040594
C15   C     C_R   0.020112 0.208136 0.919432 -0.151864
C16   C     C_R   0.995333 0.799012 0.096255 -0.179094
H13   H     H_    0.053723 0.185737 0.867186 0.118258
H14   H     H_    0.971357 0.821766 0.156753 0.118707
N15   N     N_R   0.004980 0.293810 0.946140 -0.046964
N16   N     N_R   0.995020 0.706190 0.053860 -0.043742
C17   C     C_R   0.974366 0.150647 0.959577 0.013420
C18   C     C_R   0.050700 0.863199 0.067861 0.056483
C19   C     C_R   0.322798 0.781424 0.325079 0.043797
C20   C     C_R   0.701920 0.133886 0.699846 0.066320
C21   C     C_R   0.306988 0.498962 0.944038 0.033829
C22   C     C_R   0.674112 0.498927 0.947405 0.027471
C23   C     C_R   0.952584 0.501796 0.307821 0.045486
C24   C     C_R   0.963630 0.501503 0.678267 0.052307
H15   H     H_    0.399547 0.194663 0.896784 0.094474
H16   H     H_    0.671192 0.865114 0.196735 0.099267
C25   C     C_R   0.123532 0.029783 0.069267 -0.255939
C26   C     C_R   0.909080 0.988354 0.966370 -0.267862
C27   C     C_R   0.230773 0.093818 0.840024 -0.132085
C28   C     C_R   0.836982 0.931212 0.228680 -0.127049
H17   H     H_    0.210473 0.051852 0.756126 0.122467
H18   H     H_    0.872148 0.953746 0.312623 0.122843
Ni1   Ni    Ni4+2 0.869690 0.369690 0.000000 0.217353
Ni2   Ni    Ni4+2 0.130310 0.630310 0.000000 0.208985
Ni3   Ni    Ni4+2 0.001390 0.369680 0.869810 0.212101
Ni4   Ni    Ni4+2 0.998610 0.630320 0.130190 0.212300
C29   C     C_R   0.150871 0.065617 0.869244 -0.199006
C30   C     C_R   0.905661 0.955431 0.186712 -0.197247
H19   H     H_    0.446278 0.291338 0.090926 0.120051
H20   H     H_    0.592967 0.807695 0.001078 0.098389
H21   H     H_    0.550345 0.093671 0.989205 0.106527
H22   H     H_    0.445951 0.865458 0.938018 0.105150
C31   C     C_R   0.621251 0.265235 0.098999 -0.127139
C32   C     C_R   0.332670 0.697702 0.813475 -0.130148
H23   H     H_    0.578159 0.278860 0.036847 0.106027
H24   H     H_    0.389288 0.669607 0.840345 0.114670
C33   C     C_R   0.691768 0.352515 0.205786 0.045165
C34   C     C_R   0.228361 0.623371 0.723127 0.067502
C35   C     C_R   0.755748 0.336261 0.284801 0.070243
C36   C     C_R   0.154542 0.660869 0.689064 0.084359
C37   C     C_R   0.738008 0.230015 0.256854 -0.183598
C38   C     C_R   0.188916 0.772843 0.744406 -0.216162
H25   H     H_    0.785962 0.215468 0.315717 0.118210
H26   H     H_    0.133763 0.803013 0.719364 0.117919
C39   C     C_R   0.662960 0.142775 0.151169 -0.113175
C40   C     C_R   0.293580 0.846145 0.833578 -0.118415
H27   H     H_    0.651368 0.061757 0.130020 0.118379
H28   H     H_    0.318938 0.932113 0.876101 0.131823
C41   C     C_R   0.606196 0.160744 0.071813 -0.130786
C42   C     C_R   0.365074 0.808534 0.868561 -0.146287
C43   C     C_R   0.858610 0.431350 0.485469 -0.253978
C44   C     C_R   0.033800 0.587148 0.498980 -0.249290
H29   H     H_    0.791611 0.371097 0.481641 0.133888
H30   H     H_    0.103901 0.644710 0.503845 0.137672
C45   C     C_R   0.954612 0.507985 0.584331 0.068096
C46   C     C_R   0.941391 0.506916 0.399337 0.066005
C47   C     C_R   0.044264 0.586018 0.591261 0.014081
C48   C     C_R   0.851020 0.428587 0.390861 0.024465
H31   H     H_    0.069839 0.998364 0.808009 0.106334
H32   H     H_    0.993037 0.002570 0.241116 0.106933
H33   H     H_    0.417736 0.392529 0.003629 0.131324
H34   H     H_    0.554201 0.611521 0.857576 0.114112
H35   H     H_    0.305561 0.244346 0.142243 0.111015
H36   H     H_    0.711817 0.828481 0.921479 0.104664
C49   C     C_R   0.176524 0.121381 0.977990 0.140890
C50   C     C_R   0.862374 0.915240 0.074830 0.138308
C51   C     C_R   0.363982 0.228456 0.028547 -0.129324
C52   C     C_R   0.680062 0.845306 0.052467 -0.134466
H37   H     H_    0.053676 0.940668 0.491468 0.106042
H38   H     H_    0.005629 0.090821 0.548869 0.100274
C53   C     C_R   0.181257 0.980903 0.451062 -0.118132
C54   C     C_R   0.907689 0.012430 0.604017 -0.120999
H39   H     H_    0.147362 0.014407 0.405261 0.100208
H40   H     H_    0.974227 0.012196 0.660806 0.102072
C55   C     C_R   0.276883 0.977530 0.460102 -0.123893
C56   C     C_R   0.805378 0.972848 0.597174 -0.147743
H41   H     H_    0.316096 0.007985 0.420395 0.111005
H42   H     H_    0.794168 0.944743 0.651187 0.111124
C57   C     C_R   0.319821 0.931811 0.517471 0.107107
C58   C     C_R   0.719394 0.974256 0.523823 0.122074
C59   C     C_R   0.268641 0.894031 0.569639 -0.189425
C60   C     C_R   0.735939 0.012596 0.455538 -0.181840
H43   H     H_    0.301049 0.859228 0.614746 0.130409
H44   H     H_    0.671045 0.016266 0.400160 0.115408
C61   C     C_R   0.172317 0.896508 0.559190 -0.142438
C62   C     C_R   0.839743 0.057468 0.467161 -0.153792
H45   H     H_    0.130812 0.864200 0.596198 0.110981
H46   H     H_    0.854096 0.094739 0.420501 0.113941
C63   C     C_R   0.128575 0.939618 0.499860 -0.113386
C64   C     C_R   0.925370 0.056444 0.540490 -0.115270
C65   C     C_R   0.513701 0.999311 0.615076 -0.238616
C66   C     C_R   0.520481 0.865607 0.437552 -0.247617
H47   H     H_    0.507591 0.052176 0.680692 0.124405
H48   H     H_    0.522823 0.812665 0.368564 0.128000
C67   C     C_R   0.613388 0.023572 0.616506 0.062032
C68   C     C_R   0.420611 0.854306 0.430294 0.072194
C69   C     C_R   0.617794 0.952226 0.528932 0.021724
C70   C     C_R   0.417375 0.922026 0.521131 0.018250
C71   C     C_R   0.337621 0.174307 0.919723 -0.098280
C72   C     C_R   0.724145 0.879089 0.162583 -0.090473
C73   C     C_R   0.936449 0.946904 0.032452 0.047897
C74   C     C_R   0.097496 0.078035 0.009999 0.036069
H49   H     H_    0.204394 0.037788 0.101000 0.145545
H50   H     H_    0.827368 0.976465 0.929300 0.123135
C75   C     C_R   0.283651 0.203127 0.057539 -0.146797
C76   C     C_R   0.748268 0.859018 0.007772 -0.164781
C77   C     C_R   0.042010 0.957396 0.072701 0.045949
C78   C     C_R   0.990635 0.062986 0.965282 0.060931
C79   C     C_3   0.460258 0.395995 0.865291 -0.161403
C80   C     C_3   0.509216 0.601351 0.991927 -0.158642
C81   C     C_3   0.407629 0.458680 0.826670 -0.152470
C82   C     C_3   0.560545 0.538943 0.029975 -0.134432
H51   H     H_    0.341771 0.425957 0.743905 0.119199
H52   H     H_    0.624558 0.571863 0.113862 0.119300
H53   H     H_    0.441023 0.311612 0.812599 0.107682
H54   H     H_    0.524769 0.683051 0.046459 0.101673
C83   C     C_3   0.398189 0.499381 0.929454 0.176596
C84   C     C_3   0.571951 0.498282 0.928059 0.190191
C85   C     C_3   0.449155 0.437443 0.967654 -0.161107
C86   C     C_3   0.521865 0.561327 0.889738 -0.154049
N17   N     N_3   0.860872 0.170339 0.053373 -0.225718
H55   H     H_    0.785698 0.103364 0.990112 0.095028
H56   H     H_    0.900244 0.149974 0.107607 0.120550
N18   N     N_3   0.176844 0.852805 0.992204 -0.226327
H57   H     H_    0.145715 0.861363 0.925125 0.109821
H58   H     H_    0.208638 0.799886 0.974276 0.117778
N19   N     N_3   0.695142 0.455380 0.231925 -0.229698
H59   H     H_    0.681892 0.481011 0.298014 0.102944
H60   H     H_    0.771875 0.512902 0.254160 0.116068
N20   N     N_3   0.200839 0.511484 0.665534 -0.231294
H61   H     H_    0.177079 0.487625 0.584356 0.106596
H62   H     H_    0.134843 0.464483 0.668854 0.114946

loop_
_geom_bond_atom_site_label_1
_geom_bond_atom_site_label_2
_geom_bond_distance
_ccdc_geom_bond_type
C10   C22   1.376290 A    
N6    N10   1.396764 A    
C80   C83   1.526789 S    
N7    Ni4   1.896701 S    
N3    Ni2   1.876401 S    
C31   H23   1.080483 S    
C35   C48   1.486435 S    
C2    N2    1.341127 A    
N4    Ni1   1.876403 S    
N3    N13   1.395633 A    
C54   H40   1.079692 S    
N17   H55   1.043674 S    
H19   C51   1.079998 S    
N19   H60   1.041762 S    
N2    N16   1.395509 A    
C3    N3    1.337120 A    
C12   C24   1.368588 A    
C80   C86   1.547932 S    
C25   C74   1.379317 A    
C81   C83   1.530168 S    
C28   H18   1.075986 S    
N18   H57   1.044607 S    
C13   H11   1.071350 S    
C36   C47   1.489205 S    
C10   H8    1.080612 S    
N16   Ni4   1.896567 S    
C65   C67   1.398779 A    
C20   C67   1.461160 S    
C79   C81   1.548767 S    
C51   C75   1.392308 A    
C26   C78   1.380718 A    
C66   C68   1.399082 A    
N7    N11   1.396641 A    
N20   H61   1.045443 S    
C62   C64   1.397604 A    
N5    Ni3   1.874680 S    
C18   C77   1.441217 S    
C11   N11   1.323908 A    
C44   C46   1.390101 A    
H15   C71   1.081151 S    
N4    N14   1.395634 A    
C16   N16   1.309740 A    
C27   C29   1.395182 A    
C5    N5    1.330795 A    
N9    Ni2   1.860193 S    
C53   C63   1.397119 A    
C49   C74   1.469431 S    
C9    C21   1.366390 A    
C6    N6    1.333141 A    
C56   H42   1.083253 S    
C55   H41   1.083170 S    
C46   C48   1.413713 A    
C13   C19   1.372882 A    
C62   H46   1.082280 S    
C9    N9    1.323230 A    
C79   C84   1.534065 S    
C8    H6    1.081073 S    
C29   H31   1.082724 S    
C39   H27   1.082823 S    
C82   C85   1.526897 S    
C1    N17   1.428546 S    
C83   C85   1.521878 S    
C80   H54   1.104469 S    
C23   C46   1.430574 S    
C84   C86   1.530480 S    
C15   H13   1.078141 S    
C3    C19   1.395159 A    
C16   H14   1.072869 S    
C30   C50   1.404948 A    
C81   H51   1.109660 S    
C44   H30   1.086570 S    
N17   H56   1.044635 S    
C58   C60   1.405572 A    
C44   C47   1.365575 A    
C52   C76   1.394648 A    
C79   H53   1.109833 S    
C33   C35   1.418061 A    
C22   C84   1.441981 S    
N8    N12   1.396640 A    
C82   C84   1.534407 S    
C27   H17   1.080287 S    
C12   N12   1.315884 A    
C73   C77   1.414505 A    
H36   C76   1.082427 S    
C14   N14   1.327187 A    
C36   C38   1.406080 A    
C40   C42   1.395487 A    
C2    N18   1.430354 S    
N19   H59   1.045420 S    
C52   C72   1.397056 A    
C25   H49   1.084246 S    
C1    C17   1.407440 A    
C4    H2    1.081321 S    
C2    C18   1.402946 A    
C66   C69   1.390309 A    
C38   C40   1.396859 A    
C21   C83   1.438445 S    
C7    N7    1.322689 A    
C56   C58   1.404603 A    
C1    N1    1.328518 A    
C60   C62   1.395454 A    
C13   N13   1.315496 A    
C30   H32   1.083376 S    
N8    Ni3   1.896702 S    
C59   C61   1.398532 A    
C74   C78   1.409613 A    
C43   H29   1.084976 S    
H22   C42   1.082536 S    
N5    N9    1.396765 A    
H21   C41   1.082724 S    
C27   C71   1.394877 A    
N11   Ni1   1.876722 S    
C49   C75   1.400846 A    
N12   Ni2   1.876723 S    
C15   C17   1.365250 A    
C34   C36   1.416957 A    
C53   H39   1.082297 S    
C16   C18   1.352808 A    
C15   N15   1.319812 A    
C4    C20   1.380112 A    
C79   C85   1.538879 S    
C28   C30   1.391326 A    
C24   C45   1.430203 S    
C34   N20   1.432132 S    
C57   C59   1.405072 A    
C32   H24   1.082040 S    
C28   C72   1.394601 A    
C68   C70   1.417529 A    
C19   C68   1.449272 S    
C6    H4    1.080344 S    
C38   H26   1.082218 S    
N14   Ni3   1.875020 S    
C25   C77   1.383542 A    
N15   Ni3   1.896567 S    
N13   Ni4   1.875022 S    
C80   C82   1.530292 S    
N6    Ni4   1.874678 S    
H34   C86   1.109716 S    
C7    C23   1.374578 A    
C54   C56   1.399294 A    
C14   C20   1.387496 A    
H35   C75   1.083737 S    
C50   C73   1.484530 S    
C3    H1    1.080538 S    
C67   C69   1.415005 A    
C17   C78   1.439698 S    
C39   C41   1.395182 A    
C8    N8    1.334113 A    
C57   C70   1.484263 S    
C29   C49   1.404829 A    
C10   N10   1.326005 A    
C82   H52   1.111082 S    
C65   H47   1.081389 S    
C37   H25   1.083753 S    
C45   C47   1.416735 A    
N1    Ni1   1.860567 S    
C33   N19   1.433644 S    
N2    Ni2   1.860565 S    
C55   C57   1.406321 A    
C50   C76   1.408037 A    
C81   C86   1.557580 S    
C32   C42   1.397133 A    
C14   H12   1.068444 S    
C6    C22   1.383494 A    
C31   C41   1.396319 A    
C11   H9    1.072251 S    
C65   C70   1.369235 A    
H20   C52   1.080654 S    
C12   H10   1.073591 S    
C5    H3    1.081933 S    
C26   C73   1.378846 A    
C11   C23   1.372292 A    
H16   C72   1.082233 S    
N18   H58   1.045245 S    
C7    H5    1.082063 S    
N1    N15   1.395508 A    
H38   C64   1.082272 S    
C40   H28   1.082788 S    
C26   H50   1.079107 S    
C9    H7    1.081241 S    
C43   C48   1.388181 A    
C35   C37   1.409072 A    
C59   H43   1.083190 S    
C5    C21   1.374516 A    
C4    N4    1.319315 A    
C8    C24   1.390096 A    
C43   C45   1.397318 A    
N10   Ni1   1.860191 S    
C61   C63   1.397326 A    
H33   C85   1.098961 S    
C66   H48   1.084432 S    
C32   C34   1.401425 A    
C61   H45   1.080203 S    
C31   C33   1.399939 A    
C53   C55   1.398067 A    
C58   C69   1.473018 S    
N20   H62   1.043119 S    
C54   C64   1.397748 A    
H37   C63   1.081588 S    
C60   H44   1.083516 S    
C51   C71   1.400789 A    
C37   C39   1.397245 A    
