data_str_m3_o10_o29_f0_pcu.sym.208
_audit_creation_date              2012-12-10T16:59:17-0500
_audit_creation_method            fapswitch 2.2
_symmetry_space_group_name_H-M    P1
_symmetry_Int_Tables_number       1
_space_group_crystal_system       triclinic
_cell_length_a                    7.726087
_cell_length_b                    8.546052
_cell_length_c                    27.682287
_cell_angle_alpha                 90.685698
_cell_angle_beta                  86.386971
_cell_angle_gamma                 93.912495
_cell_volume                      1819.85515894

loop_
_atom_site_label
_atom_site_type_symbol
_atom_type_description
_atom_site_fract_x
_atom_site_fract_y
_atom_site_fract_z
_atom_type_partial_charge
C1    C     C_R   0.546131 0.794943 0.498876 0.967561
C2    C     C_R   0.453912 0.205069 0.501289 0.961558
C3    C     C_R   0.594028 0.466639 0.895481 -0.092961
C4    C     C_R   0.542876 0.483166 0.100102 -0.090130
C5    C     C_R   0.656302 0.601520 0.868881 -0.029750
C6    C     C_R   0.479405 0.349459 0.126885 -0.027761
C7    C     C_R   0.728587 0.732920 0.893534 0.136619
C8    C     C_R   0.423853 0.212023 0.102181 0.136425
C9    C     C_R   0.531807 0.331143 0.870735 -0.009266
C10   C     C_R   0.584463 0.624660 0.124705 -0.008703
C11   C     C_R   0.513844 0.494699 0.646295 -0.091698
C12   C     C_R   0.491350 0.497882 0.353591 -0.093613
C13   C     C_R   0.630445 0.611835 0.022691 0.069233
C14   C     C_R   0.527629 0.330789 0.972833 0.069358
C15   C     C_R   0.512910 0.335672 0.024193 0.023493
C16   C     C_R   0.649554 0.605447 0.971451 0.022104
C17   C     C_R   0.562960 0.476507 0.048813 0.069243
C18   C     C_R   0.591217 0.467449 0.946776 0.070108
C19   C     C_R   0.670855 0.751424 0.048847 -0.232062
C20   C     C_R   0.479286 0.193792 0.946307 -0.235626
C21   C     C_R   0.649336 0.756926 0.098775 -0.169127
C22   C     C_R   0.478940 0.195073 0.896360 -0.159860
C23   C     C_R   0.503543 0.500582 0.593883 0.859623
C24   C     C_R   0.496559 0.498132 0.406154 0.856766
C25   C     C_R   0.725541 0.733197 0.943868 -0.283074
C26   C     C_R   0.441525 0.206235 0.051850 -0.284342
C27   C     C_2   0.570502 0.958583 0.498679 -0.399387
C28   C     C_2   0.429661 0.041447 0.501712 -0.406658
C29   C     C_R   0.642770 0.599654 0.818387 0.517216
C30   C     C_R   0.473212 0.358421 0.177760 0.518557
C31   C     C_R   0.521659 0.335214 0.820630 0.511293
C32   C     C_R   0.558385 0.631776 0.175038 0.499744
C33   C     C_R   0.659934 0.395930 0.713333 -0.121402
C34   C     C_R   0.641745 0.566393 0.276772 -0.096806
C35   C     C_R   0.642036 0.405622 0.664062 -0.254186
C36   C     C_R   0.636358 0.566472 0.326813 -0.260100
C37   C     C_R   0.400708 0.574245 0.678891 -0.042361
C38   C     C_R   0.347571 0.430266 0.329549 -0.027380
C39   C     C_R   0.419485 0.561744 0.728545 -0.145700
C40   C     C_R   0.349897 0.442137 0.279145 -0.132809
C41   C     C_R   0.549520 0.474425 0.745468 0.298560
C42   C     C_R   0.498209 0.505591 0.252582 0.281054
H1    H     H_    0.014277 0.383556 0.463583 0.210386
H2    H     H_    0.986015 0.616555 0.536518 0.198422
H3    H     H_    0.336140 0.623115 0.754245 0.150902
H4    H     H_    0.240464 0.392854 0.260041 0.158876
H5    H     H_    0.747537 0.618106 0.344697 0.168087
H6    H     H_    0.729055 0.343121 0.639731 0.170803
H7    H     H_    0.758614 0.612767 0.256760 0.160147
H8    H     H_    0.760640 0.328694 0.726622 0.151474
H9    H     H_    0.683678 0.866519 0.117019 0.192606
H10   H     H_    0.435610 0.088313 0.877883 0.192792
H11   H     H_    0.715249 0.860968 0.032027 0.143167
H12   H     H_    0.439427 0.082632 0.962708 0.142955
H13   H     H_    0.786225 0.836258 0.960091 0.141508
H14   H     H_    0.393096 0.098101 0.035779 0.141139
H15   H     H_    0.703345 0.010265 0.496215 0.175125
H16   H     H_    0.296848 0.989736 0.504377 0.174207
N1    N     N_R   0.572591 0.469265 0.796016 -0.360674
N2    N     N_R   0.507917 0.498973 0.200663 -0.357726
N3    N     N_2   0.950320 0.457960 0.486880 -0.175869
N4    N     N_2   0.049680 0.542040 0.513120 -0.176423
O1    O     O_R   0.389250 0.738570 0.503220 -0.609938
O2    O     O_R   0.610750 0.261430 0.496780 -0.612313
O3    O     O_R   0.678390 0.711630 0.494810 -0.633061
O4    O     O_R   0.321610 0.288370 0.505190 -0.630722
O5    O     O_R   0.355440 0.513440 0.575450 -0.604871
O6    O     O_R   0.644560 0.486560 0.424550 -0.622688
O7    O     O_R   0.644590 0.486500 0.567040 -0.629982
O8    O     O_R   0.355410 0.513500 0.432960 -0.613258
O9    O     O_2   0.696893 0.726663 0.791595 -0.526256
O10   O     O_2   0.437854 0.227289 0.204257 -0.512142
O11   O     O_2   0.582839 0.770653 0.198257 -0.540880
O12   O     O_2   0.458218 0.207442 0.796653 -0.544988
Zn1   Zn    Zn3+2 0.306940 0.517990 0.505620 0.951166
Zn2   Zn    Zn3+2 0.693060 0.482010 0.494380 0.936892
C43   C     C_R   0.268886 0.676830 0.662618 0.126935
C44   C     C_R   0.092224 0.645636 0.676943 -0.130038
C45   C     C_R   0.968000 0.743409 0.662050 -0.095840
C46   C     C_R   0.019207 0.873288 0.633084 -0.140725
C47   C     C_R   0.194850 0.906233 0.619188 -0.120126
C48   C     C_R   0.319540 0.808683 0.633897 -0.083579
H17   H     H_    0.050821 0.545326 0.699380 0.134853
H18   H     H_    0.832091 0.718972 0.673105 0.164527
H19   H     H_    0.922893 0.948902 0.621643 0.130695
H20   H     H_    0.234419 0.007907 0.597246 0.134408
H21   H     H_    0.455335 0.835993 0.623063 0.103343
C49   C     C_R   0.204377 0.330935 0.354542 0.125475
C50   C     C_R   0.030118 0.351802 0.345792 -0.159665
C51   C     C_R   0.896630 0.249048 0.365777 -0.082007
C52   C     C_R   0.935490 0.125182 0.394795 -0.132529
C53   C     C_R   0.108067 0.103197 0.403708 -0.154664
C54   C     C_R   0.242145 0.204741 0.383468 -0.095938
H22   H     H_    0.998060 0.446254 0.322954 0.127067
H23   H     H_    0.763052 0.264249 0.358368 0.150066
H24   H     H_    0.831989 0.045465 0.409990 0.136850
H25   H     H_    0.138117 0.006087 0.425741 0.140554
H26   H     H_    0.375484 0.182898 0.389536 0.106487
N5    N     N_3   0.806997 0.867354 0.867979 -0.367645
H27   H     H_    0.936531 0.883708 0.876916 0.185707
H28   H     H_    0.743107 0.965788 0.880076 0.192216
N6    N     N_3   0.338992 0.079996 0.127613 -0.360978
H29   H     H_    0.213367 0.061446 0.115719 0.180700
H30   H     H_    0.405901 0.980864 0.118302 0.201234

loop_
_geom_bond_atom_site_label_1
_geom_bond_atom_site_label_2
_ccdc_geom_bond_type
C8    C26   A    
C14   C18   A    
C34   C42   A    
C47   C48   A    
C24   O8    A    
C51   H23   S    
C39   C41   A    
C43   C44   A    
C40   H4    S    
O3    Zn2   S    
C7    N5    S    
O7    Zn2   S    
C19   C21   A    
C45   H18   S    
C9    C22   A    
C23   O5    A    
C48   H21   S    
C3    C18   A    
C31   N1    A    
C50   H22   S    
C11   C37   A    
C23   O7    A    
C15   C26   A    
C52   H24   S    
C44   H17   S    
C29   N1    A    
C30   N2    A    
C1    O3    A    
C12   C36   A    
C47   H20   S    
C52   C53   A    
C39   H3    S    
C19   H11   S    
C40   C42   A    
N3    Zn2   S    
N6    H29   S    
C35   H6    S    
C1    O1    A    
C2    O2    A    
C53   H25   S    
C5    C29   A    
C10   C21   A    
C13   C19   A    
C14   C20   A    
C41   N1    S    
C4    C6    A    
C27   H15   S    
C42   N2    S    
C32   O11   S    
C5    C7    A    
C9    C31   A    
C44   C45   A    
C31   O12   S    
C6    C8    A    
C2    O4    A    
C33   H8    S    
C37   C43   S    
C38   C49   S    
C46   H19   S    
C3    C9    A    
N5    H27   S    
C36   H5    S    
O2    Zn2   S    
N6    H30   S    
C4    C17   A    
C20   H12   S    
N5    H28   S    
C20   C22   A    
N4    Zn1   S    
O5    Zn1   S    
C32   N2    A    
C4    C10   A    
C21   H9    S    
H1    N3    S    
C22   H10   S    
C16   C25   A    
C15   C17   A    
C49   C54   A    
C34   H7    S    
C6    C30   A    
C25   H13   S    
C46   C47   A    
C3    C5    A    
C26   H14   S    
C30   O10   S    
C28   H16   S    
O6    Zn2   S    
C12   C24   S    
C7    C25   A    
C13   C17   A    
H2    N4    S    
C11   C35   A    
C33   C41   A    
C37   C39   A    
C38   C40   A    
C51   C52   A    
O1    Zn1   S    
C43   C48   A    
O4    Zn1   S    
C11   C23   S    
C53   C54   A    
C33   C35   A    
C34   C36   A    
C12   C38   A    
N3    N4    D    
C24   O6    A    
C45   C46   A    
C10   C32   A    
C49   C50   A    
O8    Zn1   S    
C16   C18   A    
C13   C16   A    
C27   C28   D    
C1    C27   S    
C14   C15   A    
C2    C28   S    
C50   C51   A    
C8    N6    S    
C54   H26   S    
C29   O9    S    
