data_str_m9_o16_o26_f0_sra.sym.84
_audit_creation_date              2012-12-11T15:15:47-0500
_audit_creation_method            fapswitch 2.2
_symmetry_space_group_name_H-M    P1
_symmetry_Int_Tables_number       1
_space_group_crystal_system       triclinic
_cell_length_a                    20.615467
_cell_length_b                    22.78057
_cell_length_c                    6.935497
_cell_angle_alpha                 89.964355
_cell_angle_beta                  87.990808
_cell_angle_gamma                 89.92032
_cell_volume                      3255.1258263

loop_
_atom_site_label
_atom_site_type_symbol
_atom_type_description
_atom_site_fract_x
_atom_site_fract_y
_atom_site_fract_z
_atom_type_partial_charge
O1    O     O_R   0.387100 0.552640 0.378490 -0.530368
O2    O     O_R   0.612900 0.052640 0.621510 -0.530083
O3    O     O_R   0.249610 0.559600 0.072250 -0.523207
O4    O     O_R   0.750390 0.059600 0.927750 -0.521717
O5    O     O_R   0.249120 0.447360 0.902040 -0.547394
O6    O     O_R   0.750880 0.947360 0.097960 -0.546763
C1    C     C_R   0.227514 0.574237 0.242343 0.835742
C2    C     C_R   0.772327 0.074223 0.757449 0.836892
O7    O     O_R   0.386610 0.559560 0.048860 -0.540436
O8    O     O_R   0.613390 0.059560 0.951140 -0.540361
O9    O     O_R   0.387100 0.447320 0.878470 -0.547342
O10   O     O_R   0.612900 0.947320 0.121530 -0.547912
C3    C     C_R   0.407556 0.575092 0.215629 0.842998
C4    C     C_R   0.592335 0.075000 0.784344 0.843036
O11   O     O_R   0.249120 0.552680 0.402050 -0.536286
O12   O     O_R   0.750880 0.052680 0.597950 -0.541882
O13   O     O_3   0.318110 0.463180 0.223790 -0.390290
O14   O     O_3   0.681890 0.963180 0.776210 -0.389411
V1    V     V_3+5 0.318110 0.506830 0.948930 1.491753
V2    V     V_3+5 0.681890 0.006830 0.051070 1.492291
O15   O     O_R   0.386610 0.440400 0.548840 -0.540558
O16   O     O_R   0.613390 0.940400 0.451160 -0.538438
C5    C     C_R   0.408046 0.425318 0.715481 0.742291
C6    C     C_R   0.592047 0.925231 0.284537 0.747586
O17   O     O_R   0.249610 0.440440 0.572240 -0.556373
O18   O     O_R   0.750390 0.940440 0.427760 -0.555866
C7    C     C_R   0.227467 0.426004 0.742504 0.701948
C8    C     C_R   0.775022 0.928903 0.258063 0.702487
V3    V     V_3+5 0.318110 0.493170 0.448930 1.468807
V4    V     V_3+5 0.681890 0.993170 0.551070 1.469214
O19   O     O_3   0.318110 0.536820 0.723940 -0.353888
O20   O     O_3   0.681890 0.036820 0.276060 -0.355567
C9    C     C_R   0.171433 0.385254 0.752951 -0.162077
C10   C     C_R   0.834012 0.891706 0.249644 -0.156999
C11   C     C_R   0.156371 0.347409 0.597684 0.168049
C12   C     C_R   0.880054 0.893595 0.397807 0.181129
C13   C     C_R   0.099202 0.314816 0.606909 -0.043082
C14   C     C_R   0.935532 0.858681 0.383475 -0.052805
C15   C     C_R   0.056513 0.317939 0.767925 0.107533
C16   C     C_R   0.946679 0.821552 0.225965 0.127962
C17   C     C_R   0.072439 0.353462 0.926091 0.237316
C18   C     C_R   0.902026 0.819992 0.076399 0.222542
C19   C     C_R   0.129543 0.386512 0.917341 -0.161105
C20   C     C_R   0.846221 0.855091 0.089326 -0.167086
C21   C     C_R   0.896692 0.187369 0.903252 -0.246798
C22   C     C_R   0.102242 0.686794 0.093063 -0.262007
C23   C     C_R   0.840865 0.152428 0.910014 0.262877
C24   C     C_R   0.158077 0.651677 0.086931 0.264667
C25   C     C_R   0.866669 0.120540 0.580642 -0.303418
C26   C     C_R   0.133414 0.621749 0.418816 -0.307535
C27   C     C_R   0.921349 0.156734 0.574742 0.690479
C28   C     C_R   0.078977 0.658494 0.424438 0.696959
C29   C     C_R   0.936411 0.190336 0.736170 -0.107685
C30   C     C_R   0.063370 0.691399 0.261525 -0.108276
C31   C     C_2   0.995036 0.284724 0.766090 -0.025498
C32   C     C_2   0.006841 0.786682 0.218521 -0.034696
C33   C     C_2   0.995962 0.225981 0.735586 0.644723
C34   C     C_2   0.004812 0.728874 0.263789 0.633266
C35   C     C_R   0.826359 0.117130 0.748169 -0.118336
C36   C     C_R   0.173245 0.617258 0.250564 -0.121289
H1    H     H_    0.856828 0.094040 0.455407 0.168857
H2    H     H_    0.143622 0.595875 0.545296 0.174704
H3    H     H_    0.909703 0.211898 0.029944 0.165570
H4    H     H_    0.088686 0.710271 0.964760 0.170115
H5    H     H_    0.140085 0.414662 0.038144 0.149609
H6    H     H_    0.812188 0.853546 0.973841 0.150789
H7    H     H_    0.087444 0.287435 0.485204 0.182964
H8    H     H_    0.970474 0.860620 0.496611 0.157928
C37   C     C_R   0.578914 0.364391 0.720884 0.720535
C38   C     C_R   0.421177 0.864554 0.279639 0.721828
C39   C     C_R   0.463143 0.383405 0.720093 -0.157488
C40   C     C_R   0.536963 0.883345 0.280012 -0.159247
C41   C     C_R   0.474317 0.095575 0.798478 0.144121
C42   C     C_R   0.525593 0.595423 0.201523 0.144178
C43   C     C_R   0.421838 0.133193 0.834227 0.215591
C44   C     C_R   0.578096 0.632905 0.165826 0.216415
C45   C     C_R   0.431119 0.194565 0.842360 0.134416
C46   C     C_R   0.568865 0.694314 0.157703 0.136029
C47   C     C_R   0.492845 0.219358 0.790469 0.028420
C48   C     C_R   0.507163 0.719290 0.209540 0.028131
C49   C     C_R   0.547491 0.180135 0.774929 -0.209913
C50   C     C_R   0.452477 0.680202 0.224940 -0.210677
C51   C     C_R   0.502970 0.281636 0.760976 -0.027984
C52   C     C_R   0.497098 0.781620 0.239076 -0.028238
C53   C     C_R   0.567521 0.303536 0.743831 -0.287689
C54   C     C_R   0.432555 0.803681 0.256438 -0.288518
C55   C     C_R   0.620123 0.264326 0.744220 0.636509
C56   C     C_R   0.379926 0.764615 0.255873 0.637801
C57   C     C_R   0.610420 0.204095 0.753927 0.478392
C58   C     C_R   0.389574 0.704352 0.245827 0.479337
C59   C     C_R   0.451581 0.322800 0.738188 -0.170146
C60   C     C_R   0.548515 0.822690 0.261611 -0.169216
C61   C     C_R   0.527116 0.404302 0.710195 0.078337
C62   C     C_R   0.472970 0.904349 0.290274 0.077864
C63   C     C_R   0.537830 0.117973 0.782697 -0.164794
C64   C     C_R   0.462079 0.617984 0.217150 -0.164375
H9    H     H_    0.402029 0.309228 0.724232 0.160596
H10   H     H_    0.598086 0.809008 0.275130 0.163124
N1    N     N_3   0.198064 0.340143 0.429552 -0.638768
H11   H     H_    0.245319 0.331654 0.472153 0.232243
H12   H     H_    0.197103 0.378376 0.346496 0.246422
N2    N     N_3   0.873652 0.932066 0.560970 -0.642171
H13   H     H_    0.834605 0.918332 0.649816 0.244204
H14   H     H_    0.865740 0.974892 0.512807 0.231890
F1    F     F_    0.959855 0.158651 0.412017 -0.650564
F2    F     F_    0.041465 0.661869 0.588895 -0.651747
N3    N     N_3   0.538843 0.465926 0.679332 -0.659772
H15   H     H_    0.588419 0.475367 0.671431 0.308824
H16   H     H_    0.519470 0.488808 0.798098 0.219079
N4    N     N_3   0.461216 0.965980 0.321293 -0.659705
H17   H     H_    0.411636 0.975507 0.329744 0.309591
H18   H     H_    0.480425 0.988878 0.202342 0.219028
F3    F     F_    0.682322 0.283858 0.727569 -0.570114
F4    F     F_    0.317739 0.784324 0.272530 -0.568194
F5    F     F_    0.640653 0.385236 0.706560 -0.597855
F6    F     F_    0.359438 0.885541 0.294212 -0.595997
N5    N     N_3   0.462155 0.033741 0.783681 -0.581692
H19   H     H_    0.488189 0.011739 0.887864 0.203936
H20   H     H_    0.479891 0.019735 0.648589 0.254341
N6    N     N_3   0.537744 0.533556 0.216510 -0.582481
H21   H     H_    0.511722 0.511631 0.112365 0.204063
H22   H     H_    0.519994 0.519578 0.351629 0.254496
N7    N     N_3   0.379797 0.230404 0.923402 -0.684720
H23   H     H_    0.369397 0.216796 0.065081 0.242719
H24   H     H_    0.338340 0.225067 0.842660 0.231450
N8    N     N_3   0.620226 0.730018 0.076731 -0.686452
H25   H     H_    0.630622 0.716437 0.935050 0.241347
H26   H     H_    0.661670 0.724506 0.157492 0.230317
N9    N     N_3   0.358695 0.107881 0.866953 -0.576266
H27   H     H_    0.327440 0.125109 0.765754 0.244667
H28   H     H_    0.341255 0.119135 0.005318 0.240425
N10   N     N_3   0.641227 0.607413 0.133182 -0.579075
H29   H     H_    0.672477 0.624497 0.234440 0.242652
H30   H     H_    0.658697 0.618669 0.994844 0.238734
F7    F     F_    0.664147 0.169644 0.742347 -0.689976
F8    F     F_    0.335816 0.670054 0.256859 -0.689045
N11   N     N_3   0.799094 0.152964 0.080619 -0.609879
H31   H     H_    0.819258 0.177968 0.189777 0.241884
H32   H     H_    0.756026 0.174008 0.045005 0.278676
N12   N     N_3   0.199323 0.651354 0.915209 -0.610263
H33   H     H_    0.178957 0.676120 0.805615 0.242789
H34   H     H_    0.242588 0.672314 0.948705 0.277417
F9    F     F_    0.053540 0.197392 0.706873 -0.627263
F10   F     F_    0.947210 0.703943 0.320190 -0.628585
N13   N     N_3   0.031988 0.356297 0.098106 -0.648706
H35   H     H_    0.024042 0.313596 0.148961 0.244629
H36   H     H_    0.987423 0.374736 0.064000 0.274790
N14   N     N_3   0.913024 0.784222 0.908556 -0.621282
H37   H     H_    0.915969 0.740418 0.952222 0.285311
H38   H     H_    0.957650 0.796036 0.843577 0.243757
N15   N     N_3   0.935303 0.317376 0.781373 -0.650429
H39   H     H_    0.909522 0.305309 0.907312 0.245363
H40   H     H_    0.907373 0.307621 0.662572 0.263732
N16   N     N_3   0.066922 0.817815 0.187056 -0.635853
H41   H     H_    0.088368 0.805218 0.055017 0.251776
H42   H     H_    0.098234 0.807753 0.297842 0.262715

loop_
_geom_bond_atom_site_label_1
_geom_bond_atom_site_label_2
_ccdc_geom_bond_type
C47   C51   A    
N8    H25   S    
C57   F7    S    
O13   V3    S    
C1    C36   S    
C20   H6    S    
C48   C52   A    
V1    O19   S    
C19   H5    S    
C46   C48   A    
N13   H35   S    
C60   H10   S    
N7    H23   S    
C15   C17   A    
C7    C9    S    
N11   H32   S    
O9    V1    S    
C42   C44   A    
O10   V2    S    
C38   C62   A    
C50   C64   A    
C44   C46   A    
O3    C1    A    
N5    H20   S    
C2    C35   S    
V2    O20   S    
C49   C63   A    
C54   C56   A    
N7    H24   S    
C14   H8    S    
O12   V4    S    
C12   N2    S    
O9    C5    A    
O7    C3    A    
N4    H17   S    
C9    C11   A    
O5    C7    A    
O15   C5    A    
O7    V1    S    
O6    C8    A    
O8    V2    S    
N10   H29   S    
C16   C32   S    
C26   C28   A    
N3    H15   S    
O3    V1    S    
O14   V4    S    
C32   C34   D    
V4    O20   S    
N16   H42   S    
O4    C2    A    
C25   C35   A    
C24   C36   A    
C49   C57   A    
C16   C18   A    
C18   N14   S    
C2    O12   A    
C17   C19   A    
C23   N11   S    
C18   C20   A    
C11   N1    S    
N13   H36   S    
C28   C30   A    
O11   V3    S    
C21   C23   A    
C6    C40   S    
O17   V3    S    
C22   C24   A    
C25   H1    S    
C8    C10   S    
C24   N12   S    
C53   C55   A    
C9    C19   A    
C5    C39   S    
C41   N5    S    
N14   H37   S    
C48   C50   A    
O8    C4    A    
C47   C49   A    
C33   F9    S    
C3    C64   S    
C25   C27   A    
O15   V3    S    
C21   H3    S    
C59   H9    S    
C22   H4    S    
C27   C29   A    
C45   N7    S    
C42   C64   A    
C58   F8    S    
N1    H11   S    
N15   H39   S    
C22   C30   A    
O1    V3    S    
C45   C47   A    
C10   C20   A    
N12   H33   S    
C39   C59   A    
N2    H14   S    
C43   C45   A    
N16   H41   S    
N10   H30   S    
C39   C61   A    
C32   N16   S    
C51   C53   A    
C56   C58   A    
O18   V4    S    
C31   C33   D    
O17   C7    A    
C26   H2    S    
O16   C6    A    
O1    C3    A    
C41   C43   A    
C38   C54   A    
C4    C63   S    
C37   C53   A    
N6    H21   S    
N6    H22   S    
N9    H27   S    
C30   C34   S    
C37   F5    S    
N8    H26   S    
O16   V4    S    
C11   C13   A    
O18   C8    A    
N14   H38   S    
C29   C33   S    
C31   N15   S    
O5    V1    S    
C15   C31   S    
C51   C59   A    
N11   H31   S    
O10   C6    A    
C37   C61   A    
C50   C58   A    
O2    V4    S    
C28   F2    S    
C26   C36   A    
C12   C14   A    
C40   C62   A    
V3    O19   S    
N5    H19   S    
C61   N3    S    
C14   C16   A    
C44   N10   S    
N3    H16   S    
O6    V2    S    
C40   C60   A    
C21   C29   A    
C13   H7    S    
C1    O11   A    
O13   V1    S    
C10   C12   A    
C62   N4    S    
O14   V2    S    
N15   H40   S    
C56   F4    S    
N2    H13   S    
O2    C4    A    
N4    H18   S    
C27   F1    S    
C55   F3    S    
C23   C35   A    
C42   N6    S    
O4    V2    S    
C34   F10   S    
C17   N13   S    
C13   C15   A    
C38   F6    S    
C55   C57   A    
C41   C63   A    
C52   C54   A    
C52   C60   A    
N12   H34   S    
N1    H12   S    
C43   N9    S    
N9    H28   S    
C46   N8    S    
