data_str_m3_o14_o14_f0_pcu.sym.52
_audit_creation_date              2012-12-10T17:41:01-0500
_audit_creation_method            fapswitch 2.2
_symmetry_space_group_name_H-M    P1
_symmetry_Int_Tables_number       1
_space_group_crystal_system       triclinic
_cell_length_a                    14.539026
_cell_length_b                    15.700664
_cell_length_c                    9.943585
_cell_angle_alpha                 90.970201
_cell_angle_beta                  92.1046
_cell_angle_gamma                 90.073303
_cell_volume                      2267.98520977

loop_
_atom_site_label
_atom_site_type_symbol
_atom_type_description
_atom_site_fract_x
_atom_site_fract_y
_atom_site_fract_z
_atom_type_partial_charge
C1    C     C_R   0.388668 0.873922 0.498421 0.882754
C2    C     C_R   0.714882 0.218187 0.388636 -0.213040
C3    C     C_R   0.197958 0.266138 0.396352 -0.216247
C4    C     C_R   0.214918 0.718152 0.388624 -0.213034
C5    C     C_R   0.699123 0.825387 0.501867 -0.106981
C6    C     C_R   0.702390 0.173590 0.507174 -0.119543
C7    C     C_R   0.199096 0.325365 0.501871 -0.106931
C8    C     C_R   0.202419 0.673559 0.507164 -0.119549
C9    C     C_R   0.328466 0.027087 0.122662 0.137463
C10   C     C_R   0.828454 0.527067 0.122654 0.137377
C11   C     C_R   0.254367 0.057207 0.042723 -0.252028
C12   C     C_R   0.385150 0.123815 0.499604 0.871339
C13   C     C_R   0.754348 0.557162 0.042703 -0.252079
C14   C     C_R   0.257234 0.052731 0.904807 -0.219977
C15   C     C_R   0.757222 0.552690 0.904790 -0.219969
C16   C     C_R   0.335954 0.023382 0.846323 -0.126357
C17   C     C_R   0.835953 0.523362 0.846315 -0.126340
C18   C     C_R   0.418641 0.012940 0.921953 0.134262
C19   C     C_R   0.918639 0.512930 0.921951 0.134246
C20   C     C_R   0.417199 0.013682 0.066429 0.147628
C21   C     C_R   0.917195 0.513671 0.066429 0.147654
C22   C     C_R   0.577958 0.987266 0.075486 -0.117952
C23   C     C_R   0.888667 0.373923 0.498420 0.882752
C24   C     C_R   0.077959 0.487269 0.075486 -0.117948
C25   C     C_R   0.624916 0.115939 0.502965 0.849033
C26   C     C_R   0.624370 0.884371 0.501174 0.842816
C27   C     C_R   0.124927 0.615927 0.502963 0.849031
C28   C     C_R   0.124364 0.384367 0.501174 0.842777
C29   C     C_R   0.577844 0.987183 0.932798 -0.129404
C30   C     C_R   0.077844 0.487184 0.932798 -0.129367
C31   C     C_R   0.415626 0.268046 0.690080 -0.170475
C32   C     C_R   0.411762 0.743396 0.707621 -0.162372
C33   C     C_R   0.915563 0.767995 0.690256 -0.170454
C34   C     C_R   0.885164 0.623826 0.499605 0.871365
C35   C     C_R   0.911764 0.243382 0.707590 -0.162342
C36   C     C_R   0.423715 0.334027 0.785170 -0.136835
C37   C     C_R   0.408251 0.693773 0.821707 -0.138904
C38   C     C_R   0.923599 0.833930 0.785432 -0.136829
C39   C     C_R   0.908253 0.193766 0.821678 -0.138879
C40   C     C_R   0.857910 0.898009 0.787359 -0.142418
C41   C     C_R   0.834409 0.139375 0.837025 -0.161471
C42   C     C_R   0.358026 0.398107 0.787108 -0.142397
C43   C     C_R   0.334429 0.639340 0.837025 -0.161485
C44   C     C_R   0.784072 0.896439 0.693968 -0.186682
C45   C     C_R   0.263982 0.204978 0.392444 -0.227792
C46   C     C_R   0.765641 0.131950 0.736092 -0.196034
C47   C     C_R   0.284137 0.396496 0.693808 -0.186689
C48   C     C_R   0.265681 0.631887 0.736067 -0.195885
C49   C     C_R   0.772706 0.828749 0.599361 0.105433
C50   C     C_R   0.767554 0.181370 0.617864 0.109067
C51   C     C_R   0.272725 0.328766 0.599283 0.105427
C52   C     C_R   0.267580 0.681338 0.617856 0.109072
C53   C     C_R   0.339270 0.263703 0.597420 0.101209
C54   C     C_R   0.339687 0.740816 0.607744 0.105429
C55   C     C_R   0.839254 0.763689 0.597503 0.101218
C56   C     C_R   0.283332 0.776919 0.382289 -0.231992
C57   C     C_R   0.839678 0.240821 0.607731 0.105440
C58   C     C_R   0.329303 0.198744 0.497683 -0.115513
C59   C     C_R   0.338760 0.794879 0.495509 -0.125932
C60   C     C_R   0.829339 0.698773 0.497683 -0.115566
C61   C     C_R   0.838751 0.294886 0.495501 -0.125946
C62   C     C_R   0.764092 0.705069 0.392353 -0.227843
C63   C     C_R   0.783305 0.276943 0.382291 -0.231989
C64   C     C_R   0.698060 0.766221 0.396260 -0.216249
H1    H     H_    0.261316 0.161172 0.308173 0.161650
H2    H     H_    0.141622 0.476264 0.883060 0.128227
H3    H     H_    0.471620 0.223056 0.687497 0.171294
H4    H     H_    0.472875 0.781557 0.696909 0.169223
H5    H     H_    0.971565 0.723014 0.687682 0.171334
H6    H     H_    0.972885 0.281527 0.696861 0.169187
H7    H     H_    0.482357 0.336529 0.855450 0.137365
H8    H     H_    0.463298 0.697153 0.897959 0.134864
H9    H     H_    0.982203 0.836401 0.855784 0.137359
H10   H     H_    0.963309 0.197130 0.897915 0.134858
H11   H     H_    0.865359 0.950115 0.859493 0.130027
H12   H     H_    0.289293 0.811142 0.290152 0.167719
H13   H     H_    0.831367 0.101149 0.926354 0.126609
H14   H     H_    0.365514 0.450244 0.859179 0.130063
H15   H     H_    0.331394 0.601091 0.926342 0.126581
H16   H     H_    0.738368 0.950032 0.694098 0.142585
H17   H     H_    0.713419 0.086176 0.754722 0.160753
H18   H     H_    0.238425 0.450086 0.693937 0.142502
H19   H     H_    0.213499 0.586041 0.754649 0.160610
H20   H     H_    0.644519 0.765846 0.317341 0.167376
H21   H     H_    0.669326 0.210406 0.300500 0.176281
H22   H     H_    0.144369 0.265728 0.317506 0.167334
H23   H     H_    0.761482 0.661312 0.308008 0.161726
H24   H     H_    0.169369 0.710367 0.300480 0.176286
H25   H     H_    0.641836 0.976905 0.132026 0.146587
H26   H     H_    0.141837 0.476910 0.132026 0.146598
H27   H     H_    0.188752 0.070351 0.086989 0.142013
H28   H     H_    0.688730 0.570301 0.086964 0.142027
H29   H     H_    0.261033 0.935579 0.212260 0.152355
H30   H     H_    0.259677 0.026393 0.297344 0.158565
H31   H     H_    0.760971 0.435645 0.212404 0.152344
H32   H     H_    0.759722 0.526502 0.297387 0.158620
H33   H     H_    0.789263 0.311169 0.290156 0.167725
H34   H     H_    0.195723 0.064939 0.843452 0.158420
H35   H     H_    0.695712 0.564888 0.843429 0.158412
H36   H     H_    0.328805 0.006933 0.742230 0.211462
H37   H     H_    0.828811 0.506923 0.742220 0.211479
H38   H     H_    0.641621 0.976269 0.883060 0.128201
N1    N     N_R   0.498810 0.000000 0.142780 -0.111892
N2    N     N_R   0.998810 0.500000 0.142780 -0.111895
N3    N     N_R   0.498740 0.000000 0.857170 -0.119971
N4    N     N_R   0.998740 0.500000 0.857170 -0.119980
N5    N     N_3   0.302682 0.987134 0.242391 -0.366184
N6    N     N_3   0.802679 0.487181 0.242447 -0.366134
O1    O     O_R   0.408390 0.908380 0.614690 -0.645683
O2    O     O_R   0.591620 0.908390 0.614640 -0.640980
O3    O     O_R   0.091620 0.591610 0.614640 -0.644683
O4    O     O_R   0.091620 0.408390 0.614640 -0.640969
O5    O     O_R   0.591610 0.091610 0.385310 -0.614771
O6    O     O_R   0.591610 0.908390 0.385310 -0.620442
O7    O     O_R   0.091610 0.591610 0.385310 -0.614787
O8    O     O_R   0.091610 0.408390 0.385310 -0.620429
O9    O     O_R   0.408390 0.091620 0.614690 -0.643945
O10   O     O_R   0.908390 0.408380 0.614690 -0.645672
O11   O     O_R   0.908390 0.591620 0.614690 -0.643970
O12   O     O_R   0.408370 0.908380 0.385360 -0.593136
O13   O     O_R   0.408370 0.091620 0.385360 -0.597271
O14   O     O_R   0.908370 0.408380 0.385360 -0.593138
O15   O     O_R   0.908370 0.591620 0.385360 -0.597300
O16   O     O_R   0.591620 0.091610 0.614640 -0.644725
Zn1   Zn    Zn3+2 0.500010 0.000000 0.653130 0.913052
Zn2   Zn    Zn3+2 0.000010 0.500000 0.653130 0.913058
Zn3   Zn    Zn3+2 0.499980 0.000000 0.346870 0.954082
Zn4   Zn    Zn3+2 0.999980 0.500000 0.346870 0.954072

loop_
_geom_bond_atom_site_label_1
_geom_bond_atom_site_label_2
_ccdc_geom_bond_type
C44   C49   A    
C33   C55   A    
C34   O15   A    
C56   H12   S    
C22   C29   A    
C36   C42   A    
C4    C8    A    
C29   N3    A    
C23   O10   A    
O12   Zn3   S    
C39   C41   A    
C20   N1    A    
C28   O4    A    
C31   H3    S    
C22   N1    A    
C19   C21   A    
O13   Zn3   S    
C3    C7    A    
C1    C59   S    
C41   H13   S    
C11   C14   A    
C47   H18   S    
C6    C25   S    
C43   H15   S    
C2    H21   S    
C60   C62   A    
C39   H10   S    
C61   C63   A    
C56   C59   A    
C17   H37   S    
C19   N4    A    
C64   H20   S    
C62   C64   A    
C28   O8    A    
C1    O1    A    
C21   N2    A    
C10   N6    S    
C12   O13   A    
C35   H6    S    
C41   C46   A    
N1    Zn3   S    
C43   C48   A    
C8    C52   A    
C40   C44   A    
O4    Zn2   S    
C36   H7    S    
C33   H5    S    
C32   H4    S    
C12   C58   S    
H32   N6    S    
C27   O3    A    
C55   C60   A    
C4    C56   A    
C3    H22   S    
C34   C60   S    
C5    C49   A    
C2    C6    A    
C32   C54   A    
C52   C54   A    
C14   H34   S    
C23   O14   A    
C54   C59   A    
C10   C21   A    
C45   C58   A    
H30   N5    S    
C44   H16   S    
C16   H36   S    
C47   C51   A    
C49   C55   A    
C3    C45   A    
C6    C50   A    
C7    C28   S    
C5    C26   S    
C5    C64   A    
C24   N2    A    
C1    O12   A    
C37   C43   A    
C35   C39   A    
C26   O6    A    
C25   O5    A    
C46   H17   S    
C9    C20   A    
N2    Zn4   S    
C23   C61   S    
O3    Zn2   S    
C32   C37   A    
C31   C53   A    
C9    C11   A    
N4    Zn2   S    
C30   H2    S    
O5    Zn3   S    
O1    Zn1   S    
C42   H14   S    
C13   C15   A    
C13   H28   S    
C45   H1    S    
C14   C16   A    
C2    C63   A    
C34   O11   A    
C15   C17   A    
C26   O2    A    
C50   C57   A    
C15   H35   S    
C10   C13   A    
C24   H26   S    
C53   C58   A    
C48   H19   S    
C57   C61   A    
C4    H24   S    
C9    N5    S    
C62   H23   S    
C46   C50   A    
C33   C38   A    
C40   H11   S    
N3    Zn1   S    
C35   C57   A    
C18   N3    A    
C7    C51   A    
C63   H33   S    
H29   N5    S    
C38   C40   A    
O6    Zn3   S    
O15   Zn4   S    
C17   C19   A    
C22   H25   S    
C29   H38   S    
C18   C20   A    
C42   C47   A    
O14   Zn4   S    
C25   O16   A    
C24   C30   A    
H31   N6    S    
O7    Zn4   S    
O2    Zn1   S    
C12   O9    A    
O11   Zn2   S    
C11   H27   S    
C48   C52   A    
C16   C18   A    
O8    Zn4   S    
C37   H8    S    
C8    C27   S    
C31   C36   A    
O10   Zn2   S    
C51   C53   A    
O9    Zn1   S    
C30   N4    A    
O16   Zn1   S    
C38   H9    S    
C27   O7    A    
