data_str_m4_o22_o24_f0_acs.sym.38
_audit_creation_date              2012-12-11T15:08:48-0500
_audit_creation_method            fapswitch 2.2
_symmetry_space_group_name_H-M    P1
_symmetry_Int_Tables_number       1
_space_group_crystal_system       monoclinic
_cell_length_a                    19.503333
_cell_length_b                    11.308163
_cell_length_c                    18.605739
_cell_angle_alpha                 90.0
_cell_angle_beta                  90.011667
_cell_angle_gamma                 90.0
_cell_volume                      4103.4373895

loop_
_atom_site_label
_atom_site_type_symbol
_atom_type_description
_atom_site_fract_x
_atom_site_fract_y
_atom_site_fract_z
_atom_type_partial_charge
C1    C     C_R   0.272787 0.041563 0.854767 0.535029
C2    C     C_3   0.688528 0.515973 0.957066 -0.223979
C3    C     C_R   0.227832 0.547049 0.352552 0.535851
C4    C     C_R   0.472564 0.822877 0.647602 0.537392
C5    C     C_R   0.527436 0.822877 0.352398 0.537392
C6    C     C_R   0.972564 0.322877 0.647602 0.537392
C7    C     C_R   0.027436 0.322877 0.352398 0.537393
C8    C     C_R   0.272281 0.682018 0.636728 0.550118
C9    C     C_R   0.727718 0.682018 0.363272 0.550118
C10   C     C_R   0.772281 0.182018 0.636728 0.550118
C11   C     C_R   0.227718 0.182018 0.363272 0.550118
C12   C     C_3   0.481994 0.919839 0.037065 -0.105904
C13   C     C_3   0.811472 0.015974 0.042934 -0.223981
C14   C     C_3   0.518009 0.919837 0.962934 -0.105905
C15   C     C_3   0.981991 0.419837 0.037066 -0.105903
C16   C     C_3   0.018006 0.419840 0.962935 -0.105904
C17   C     C_3   0.432251 0.823116 0.010924 -0.163506
C18   C     C_3   0.567751 0.823112 0.989075 -0.163506
C19   C     C_3   0.932249 0.323112 0.010925 -0.163506
C20   C     C_3   0.067750 0.323117 0.989075 -0.163506
C21   C     C_3   0.468893 0.823468 0.937215 0.052419
C22   C     C_3   0.531108 0.823468 0.062784 0.052417
C23   C     C_3   0.968892 0.323468 0.937216 0.052417
C24   C     C_3   0.188528 0.015974 0.957066 -0.223980
C25   C     C_3   0.031107 0.323468 0.062784 0.052419
C26   C     C_3   0.387311 0.511450 0.933905 -0.269544
C27   C     C_3   0.402961 0.424947 0.872515 -0.400425
C28   C     C_3   0.612689 0.511453 0.066095 -0.269545
C29   C     C_3   0.597038 0.424954 0.127487 -0.400421
C30   C     C_3   0.887311 0.011452 0.933905 -0.269545
C31   C     C_3   0.902961 0.924954 0.872513 -0.400421
C32   C     C_3   0.112689 0.011452 0.066095 -0.269545
C33   C     C_3   0.097039 0.924952 0.127487 -0.400420
C34   C     C_3   0.311805 0.507022 0.959920 -0.107843
C35   C     C_3   0.688195 0.507023 0.040080 -0.107845
C36   C     C_3   0.811805 0.007023 0.959920 -0.107845
C37   C     C_3   0.188195 0.007023 0.040080 -0.107845
C38   C     C_3   0.180495 0.517015 0.025023 -0.228447
C39   C     C_3   0.819505 0.517014 0.974977 -0.228440
C40   C     C_3   0.680495 0.017014 0.025023 -0.228443
C41   C     C_R   0.727213 0.041563 0.145233 0.535029
C42   C     C_3   0.319505 0.017017 0.974977 -0.228442
C43   C     C_3   0.243781 0.699066 0.053230 -0.261654
C44   C     C_3   0.756220 0.699064 0.946770 -0.261655
C45   C     C_3   0.743780 0.199065 0.053230 -0.261655
C46   C     C_3   0.256219 0.199066 0.946770 -0.261653
C47   C     C_3   0.241705 0.567740 0.068934 0.056224
C48   C     C_3   0.758295 0.567739 0.931066 0.056224
C49   C     C_3   0.741705 0.067739 0.068934 0.056225
C50   C     C_3   0.258294 0.067740 0.931066 0.056225
C51   C     C_3   0.256518 0.598393 0.929548 0.066168
C52   C     C_R   0.772787 0.541563 0.854767 0.535029
C53   C     C_3   0.743482 0.598392 0.070452 0.066167
C54   C     C_3   0.756518 0.098393 0.929548 0.066167
C55   C     C_3   0.243482 0.098394 0.070452 0.066167
C56   C     C_3   0.185537 0.545957 0.944515 -0.262871
C57   C     C_3   0.814462 0.545952 0.055486 -0.262871
C58   C     C_3   0.685537 0.045954 0.944514 -0.262872
C59   C     C_3   0.314463 0.045957 0.055485 -0.262871
C60   C     C_3   0.262472 0.714006 0.973184 -0.230087
C61   C     C_3   0.737531 0.714005 0.026816 -0.230087
C62   C     C_3   0.762470 0.214005 0.973184 -0.230089
C63   C     C_R   0.227213 0.541563 0.145233 0.535029
C64   C     C_3   0.237529 0.214006 0.026816 -0.230088
C65   C     C_3   0.500487 0.698415 0.459780 -0.230345
C66   C     C_3   0.499512 0.698415 0.540220 -0.230345
C67   C     C_3   0.000487 0.198415 0.459780 -0.230344
C68   C     C_3   0.999513 0.198415 0.540220 -0.230344
C69   C     C_R   0.442440 0.817476 0.862581 0.534886
C70   C     C_R   0.557561 0.817476 0.137419 0.534886
C71   C     C_R   0.942439 0.317476 0.862581 0.534886
C72   C     C_R   0.057561 0.317476 0.137419 0.534885
C73   C     C_3   0.562299 0.897904 0.468781 -0.215883
C74   C     C_3   0.518085 0.727191 0.963408 -0.121870
C75   C     C_3   0.437701 0.897904 0.531219 -0.215883
C76   C     C_3   0.062299 0.397904 0.468781 -0.215883
C77   C     C_3   0.937701 0.397904 0.531219 -0.215883
C78   C     C_3   0.439193 0.887800 0.447836 -0.270508
C79   C     C_3   0.560807 0.887800 0.552164 -0.270509
C80   C     C_3   0.939193 0.387800 0.447836 -0.270508
C81   C     C_3   0.060807 0.387800 0.552164 -0.270509
C82   C     C_3   0.506372 0.826484 0.429586 0.063406
C83   C     C_3   0.493628 0.826484 0.570414 0.063405
C84   C     C_3   0.006372 0.326484 0.429586 0.063406
C85   C     C_3   0.481915 0.727193 0.036592 -0.121870
C86   C     C_3   0.993628 0.326484 0.570414 0.063405
C87   C     C_3   0.219201 0.717202 0.439942 -0.252927
C88   C     C_3   0.780798 0.717202 0.560058 -0.252927
C89   C     C_3   0.719202 0.217202 0.439942 -0.252927
C90   C     C_3   0.280799 0.217202 0.560058 -0.252927
C91   C     C_3   0.211452 0.732808 0.521734 -0.236837
C92   C     C_3   0.788547 0.732808 0.478266 -0.236837
C93   C     C_3   0.711453 0.232808 0.521734 -0.236837
C94   C     C_3   0.288548 0.232808 0.478266 -0.236837
C95   C     C_3   0.205478 0.507322 0.479703 -0.234145
C96   C     C_3   0.018086 0.227194 0.963407 -0.121870
C97   C     C_3   0.794522 0.507323 0.520297 -0.234146
C98   C     C_3   0.705478 0.007323 0.479703 -0.234145
C99   C     C_3   0.294522 0.007322 0.520297 -0.234146
C100  C     C_3   0.320464 0.584278 0.443061 -0.244789
C101  C     C_3   0.679535 0.584278 0.556939 -0.244789
C102  C     C_3   0.820464 0.084278 0.443061 -0.244789
C103  C     C_3   0.179535 0.084278 0.556939 -0.244790
C104  C     C_3   0.243994 0.588245 0.426099 0.067172
C105  C     C_3   0.756005 0.588245 0.573901 0.067172
C106  C     C_3   0.743995 0.088245 0.426099 0.067172
C107  C     C_3   0.981915 0.227191 0.036592 -0.121870
C108  C     C_3   0.256005 0.088245 0.573901 0.067172
C109  C     C_3   0.261589 0.645130 0.561323 0.062902
C110  C     C_3   0.738411 0.645130 0.438677 0.062902
C111  C     C_3   0.761589 0.145129 0.561323 0.062902
C112  C     C_3   0.238411 0.145130 0.438677 0.062902
C113  C     C_3   0.227898 0.524244 0.557931 -0.237317
C114  C     C_3   0.772102 0.524244 0.442069 -0.237317
C115  C     C_3   0.727898 0.024244 0.557931 -0.237317
C116  C     C_3   0.272102 0.024244 0.442069 -0.237317
C117  C     C_R   0.261320 0.635381 0.852695 0.539384
C118  C     C_3   0.311472 0.515974 0.042935 -0.223980
C119  C     C_R   0.738680 0.635381 0.147305 0.539384
C120  C     C_R   0.761320 0.135381 0.852695 0.539384
C121  C     C_R   0.238680 0.135381 0.147305 0.539384
C122  C     C_3   0.330565 0.629191 0.520521 -0.250858
C123  C     C_3   0.669435 0.629191 0.479479 -0.250858
C124  C     C_3   0.830565 0.129190 0.520521 -0.250858
C125  C     C_3   0.169435 0.129191 0.479479 -0.250858
C126  C     C_R   0.272168 0.047050 0.647448 0.535851
C127  C     C_R   0.727832 0.047050 0.352551 0.535851
C128  C     C_R   0.772168 0.547049 0.647448 0.535851
Cr1   Cr    Cr6+3 0.229620 0.836040 0.749110 0.983661
Cr2   Cr    Cr6+3 0.613980 0.676590 0.250790 0.971431
Cr3   Cr    Cr6+3 0.886020 0.176590 0.749210 0.971431
Cr4   Cr    Cr6+3 0.113980 0.176590 0.250790 0.971431
Cr5   Cr    Cr6+3 0.770380 0.836040 0.250890 0.983661
Cr6   Cr    Cr6+3 0.729620 0.336040 0.749110 0.983661
Cr7   Cr    Cr6+3 0.270380 0.336040 0.250890 0.983661
Cr8   Cr    Cr6+3 0.387630 0.990680 0.750730 0.988100
Cr9   Cr    Cr6+3 0.612370 0.990680 0.249270 0.988100
Cr10  Cr    Cr6+3 0.887630 0.490680 0.750730 0.988100
Cr11  Cr    Cr6+3 0.112370 0.490680 0.249270 0.988100
Cr12  Cr    Cr6+3 0.386020 0.676590 0.749210 0.971433
H1    H     H_    0.381685 0.819775 0.036068 0.096602
H2    H     H_    0.718813 0.745518 0.911646 0.098245
H3    H     H_    0.137753 0.063085 0.450555 0.125489
H4    H     H_    0.205896 0.415567 0.464732 0.099254
H5    H     H_    0.794104 0.415568 0.535267 0.099254
H6    H     H_    0.705895 0.915568 0.464732 0.099254
H7    H     H_    0.294104 0.915567 0.535267 0.099254
H8    H     H_    0.265652 0.456924 0.574409 0.124123
H9    H     H_    0.734348 0.456924 0.425590 0.124123
H10   H     H_    0.765651 0.956924 0.574410 0.124123
H11   H     H_    0.234348 0.956924 0.425590 0.124123
H12   H     H_    0.326603 0.431163 0.067158 0.127255
H13   H     H_    0.781186 0.245519 0.088354 0.098245
H14   H     H_    0.673397 0.431162 0.932843 0.127255
H15   H     H_    0.826604 0.931164 0.067158 0.127255
H16   H     H_    0.173395 0.931163 0.932842 0.127255
H17   H     H_    0.352658 0.576910 0.061460 0.113192
H18   H     H_    0.647342 0.576909 0.938540 0.113193
H19   H     H_    0.852658 0.076911 0.061460 0.113193
H20   H     H_    0.147342 0.076911 0.938541 0.113191
H21   H     H_    0.292453 0.419081 0.946264 0.136079
H22   H     H_    0.707546 0.419081 0.053736 0.136079
H23   H     H_    0.792454 0.919081 0.946264 0.136080
H24   H     H_    0.218813 0.245520 0.911645 0.098245
H25   H     H_    0.207547 0.919081 0.053736 0.136079
H26   H     H_    0.680783 0.922545 0.034038 0.100576
H27   H     H_    0.319218 0.922547 0.965962 0.100575
H28   H     H_    0.180784 0.422546 0.034037 0.100576
H29   H     H_    0.819220 0.422546 0.965960 0.100576
H30   H     H_    0.677686 0.965620 0.911223 0.100505
H31   H     H_    0.322315 0.965623 0.088776 0.100505
H32   H     H_    0.177684 0.465625 0.911223 0.100506
H33   H     H_    0.822313 0.465616 0.088776 0.100504
H34   H     H_    0.409945 0.334439 0.894479 0.120790
H35   H     H_    0.315872 0.739320 0.966269 0.100152
H36   H     H_    0.361166 0.421399 0.832174 0.175055
H37   H     H_    0.451298 0.451463 0.845429 0.145204
H38   H     H_    0.400791 0.602623 0.920155 0.199817
H39   H     H_    0.423132 0.486777 0.978002 0.114291
H40   H     H_    0.590045 0.334448 0.105523 0.120787
H41   H     H_    0.638837 0.421395 0.167823 0.175050
H42   H     H_    0.548707 0.451481 0.154579 0.145214
H43   H     H_    0.599210 0.602627 0.079843 0.199816
H44   H     H_    0.576869 0.486779 0.021998 0.114291
H45   H     H_    0.909955 0.834448 0.894477 0.120787
H46   H     H_    0.684131 0.739322 0.033733 0.100152
H47   H     H_    0.861162 0.921394 0.832177 0.175050
H48   H     H_    0.951293 0.951480 0.845421 0.145213
H49   H     H_    0.900790 0.102626 0.920157 0.199816
H50   H     H_    0.923131 0.986778 0.978001 0.114291
H51   H     H_    0.090048 0.834446 0.105523 0.120788
H52   H     H_    0.138837 0.921395 0.167824 0.175052
H53   H     H_    0.048706 0.951476 0.154578 0.145210
H54   H     H_    0.099210 0.102625 0.079844 0.199815
H55   H     H_    0.076869 0.986778 0.021999 0.114291
H56   H     H_    0.815870 0.239321 0.966268 0.100153
H57   H     H_    0.184128 0.239320 0.033732 0.100152
H58   H     H_    0.230029 0.782991 0.950667 0.134609
H59   H     H_    0.769977 0.782985 0.049332 0.134612
H60   H     H_    0.730024 0.282986 0.950667 0.134611
H61   H     H_    0.618317 0.819771 0.963932 0.096601
H62   H     H_    0.269973 0.282989 0.049332 0.134610
H63   H     H_    0.630258 0.050628 0.044773 0.145943
H64   H     H_    0.369742 0.050633 0.955227 0.145942
H65   H     H_    0.130258 0.550628 0.044774 0.145944
H66   H     H_    0.869742 0.550634 0.955227 0.145942
H67   H     H_    0.144528 0.610256 0.930111 0.137930
H68   H     H_    0.855472 0.610247 0.069893 0.137928
H69   H     H_    0.644528 0.110250 0.930109 0.137929
H70   H     H_    0.355472 0.110255 0.069890 0.137930
H71   H     H_    0.541153 0.638416 0.442740 0.140458
H72   H     H_    0.881683 0.319772 0.036069 0.096601
H73   H     H_    0.458846 0.638416 0.557260 0.140458
H74   H     H_    0.041154 0.138416 0.442740 0.140458
H75   H     H_    0.958846 0.138416 0.557260 0.140458
H76   H     H_    0.453953 0.655679 0.438450 0.114283
H77   H     H_    0.546047 0.655679 0.561550 0.114283
H78   H     H_    0.953954 0.155679 0.438449 0.114283
H79   H     H_    0.046046 0.155679 0.561550 0.114283
H80   H     H_    0.610052 0.869265 0.445445 0.109380
H81   H     H_    0.389948 0.869265 0.554555 0.109380
H82   H     H_    0.110052 0.369265 0.445444 0.109379
H83   H     H_    0.118316 0.319777 0.963931 0.096601
H84   H     H_    0.889948 0.369265 0.554555 0.109380
H85   H     H_    0.605555 0.837525 0.572750 0.106034
H86   H     H_    0.394445 0.837525 0.427250 0.106034
H87   H     H_    0.105555 0.337525 0.572750 0.106034
H88   H     H_    0.894445 0.337525 0.427250 0.106034
H89   H     H_    0.467697 0.000542 0.067491 0.114793
H90   H     H_    0.532307 0.000538 0.932506 0.114794
H91   H     H_    0.967692 0.500538 0.067494 0.114793
H92   H     H_    0.032303 0.500543 0.932509 0.114793
H93   H     H_    0.437268 0.977331 0.423122 0.113035
H94   H     H_    0.191911 0.735395 0.063710 0.129858
H95   H     H_    0.562732 0.977331 0.576878 0.113035
H96   H     H_    0.937268 0.477331 0.423122 0.113035
H97   H     H_    0.062732 0.477331 0.576878 0.113035
H98   H     H_    0.446036 0.992440 0.545779 0.129775
H99   H     H_    0.553964 0.992440 0.454221 0.129775
H100  H     H_    0.946036 0.492440 0.545779 0.129775
H101  H     H_    0.053964 0.492440 0.454221 0.129775
H102  H     H_    0.169269 0.738375 0.414177 0.139644
H103  H     H_    0.830731 0.738376 0.585823 0.139644
H104  H     H_    0.669269 0.238376 0.414177 0.139644
H105  H     H_    0.808089 0.735394 0.936288 0.129856
H106  H     H_    0.330731 0.238375 0.585823 0.139644
H107  H     H_    0.258324 0.777966 0.418024 0.111552
H108  H     H_    0.741676 0.777966 0.581976 0.111552
H109  H     H_    0.758324 0.277966 0.418024 0.111552
H110  H     H_    0.241676 0.277966 0.581976 0.111552
H111  H     H_    0.210296 0.823500 0.539972 0.114768
H112  H     H_    0.789703 0.823501 0.460028 0.114767
H113  H     H_    0.710297 0.323500 0.539972 0.114767
H114  H     H_    0.289703 0.323500 0.460028 0.114767
H115  H     H_    0.157647 0.709801 0.536289 0.126055
H116  H     H_    0.691910 0.235394 0.063711 0.129857
H117  H     H_    0.842352 0.709802 0.463711 0.126055
H118  H     H_    0.657647 0.209802 0.536288 0.126055
H119  H     H_    0.342353 0.209801 0.463711 0.126055
H120  H     H_    0.653054 0.039546 0.477862 0.128350
H121  H     H_    0.346945 0.039545 0.522137 0.128350
H122  H     H_    0.153055 0.539546 0.477863 0.128350
H123  H     H_    0.846945 0.539546 0.522137 0.128350
H124  H     H_    0.683118 0.017597 0.594678 0.128644
H125  H     H_    0.316881 0.017596 0.405322 0.128644
H126  H     H_    0.183118 0.517596 0.594678 0.128644
H127  H     H_    0.308089 0.235396 0.936288 0.129855
H128  H     H_    0.816882 0.517596 0.405322 0.128645
H129  H     H_    0.341635 0.493704 0.437561 0.127057
H130  H     H_    0.658365 0.493704 0.562438 0.127058
H131  H     H_    0.841635 0.993703 0.437561 0.127057
H132  H     H_    0.158365 0.993704 0.562438 0.127058
H133  H     H_    0.347896 0.641059 0.403793 0.103777
H134  H     H_    0.652103 0.641058 0.596207 0.103777
H135  H     H_    0.847897 0.141058 0.403793 0.103777
H136  H     H_    0.152104 0.141059 0.596207 0.103777
H137  H     H_    0.532918 0.645691 0.934089 0.118434
H138  H     H_    0.281186 0.745520 0.088356 0.098245
H139  H     H_    0.467080 0.645694 0.065911 0.118435
H140  H     H_    0.032920 0.145695 0.934087 0.118435
H141  H     H_    0.967082 0.145690 0.065910 0.118434
H142  H     H_    0.356560 0.712979 0.517533 0.116762
H143  H     H_    0.643440 0.712979 0.482467 0.116762
H144  H     H_    0.856560 0.212978 0.517533 0.116762
H145  H     H_    0.143440 0.212979 0.482467 0.116762
H146  H     H_    0.362246 0.563085 0.549444 0.125489
H147  H     H_    0.637753 0.563085 0.450555 0.125489
H148  H     H_    0.862246 0.063084 0.549445 0.125489
O1    O     O_R   0.214130 0.708570 0.829890 -0.528375
O2    O     O_R   0.542830 0.717300 0.331620 -0.534545
O3    O     O_R   0.957170 0.217300 0.668380 -0.534544
O4    O     O_R   0.042830 0.217300 0.331620 -0.534544
O5    O     O_R   0.320870 0.624890 0.673130 -0.511968
O6    O     O_R   0.679130 0.624890 0.326870 -0.511968
O7    O     O_R   0.820870 0.124890 0.673130 -0.511968
O8    O     O_R   0.179130 0.124890 0.326870 -0.511968
O9    O     O_3   0.334430 0.834430 0.749680 -0.293106
O10   O     O_3   0.665570 0.834430 0.250320 -0.293106
O11   O     O_3   0.834430 0.334430 0.749680 -0.293106
O12   O     O_R   0.785870 0.708570 0.170110 -0.528376
O13   O     O_3   0.165570 0.334430 0.250320 -0.293106
O14   O     O_R   0.236050 0.959150 0.825270 -0.516360
O15   O     O_R   0.763950 0.959150 0.174730 -0.516359
O16   O     O_R   0.736050 0.459150 0.825270 -0.516359
O17   O     O_R   0.263950 0.459150 0.174730 -0.516360
O18   O     O_R   0.332100 0.076650 0.832310 -0.536624
O19   O     O_R   0.667900 0.076650 0.167690 -0.536623
O20   O     O_R   0.832100 0.576650 0.832310 -0.536624
O21   O     O_R   0.167900 0.576650 0.167690 -0.536623
O22   O     O_R   0.446500 0.918620 0.826240 -0.501348
O23   O     O_R   0.714130 0.208570 0.829890 -0.528376
O24   O     O_R   0.553500 0.918620 0.173760 -0.501348
O25   O     O_R   0.946500 0.418620 0.826240 -0.501348
O26   O     O_R   0.053500 0.418620 0.173760 -0.501348
O27   O     O_R   0.457310 0.715830 0.831280 -0.536350
O28   O     O_R   0.542690 0.715830 0.168720 -0.536351
O29   O     O_R   0.957310 0.215830 0.831280 -0.536352
O30   O     O_R   0.042690 0.215830 0.168720 -0.536351
O31   O     O_R   0.321000 0.623520 0.824130 -0.518750
O32   O     O_R   0.679000 0.623520 0.175870 -0.518748
O33   O     O_R   0.821000 0.123520 0.824130 -0.518749
O34   O     O_R   0.285870 0.208570 0.170110 -0.528376
O35   O     O_R   0.179000 0.123520 0.175870 -0.518749
O36   O     O_R   0.213990 0.710040 0.667000 -0.526121
O37   O     O_R   0.786010 0.710040 0.333000 -0.526121
O38   O     O_R   0.713990 0.210040 0.667000 -0.526121
O39   O     O_R   0.286010 0.210040 0.333000 -0.526121
O40   O     O_R   0.235920 0.960520 0.674260 -0.520681
O41   O     O_R   0.764080 0.960520 0.325740 -0.520681
O42   O     O_R   0.735920 0.460520 0.674260 -0.520681
O43   O     O_R   0.264080 0.460520 0.325740 -0.520680
O44   O     O_R   0.331960 0.078120 0.669410 -0.532532
O45   O     O_R   0.446360 0.919990 0.675230 -0.505416
O46   O     O_R   0.668040 0.078120 0.330590 -0.532532
O47   O     O_R   0.831960 0.578120 0.669410 -0.532532
O48   O     O_R   0.168040 0.578120 0.330590 -0.532532
O49   O     O_R   0.553640 0.919990 0.324770 -0.505416
O50   O     O_R   0.946360 0.419990 0.675230 -0.505416
O51   O     O_R   0.053640 0.419990 0.324770 -0.505416
O52   O     O_R   0.457170 0.717300 0.668380 -0.534544

loop_
_geom_bond_atom_site_label_1
_geom_bond_atom_site_label_2
_ccdc_geom_bond_type
C78   H86   S    
C74   H137  S    
C128  O47   A    
C55   C59   S    
C35   C53   S    
C62   H56   S    
C69   O22   A    
C34   H21   S    
C41   O15   A    
C90   H110  S    
C17   C85   S    
C10   O38   A    
C14   C21   S    
C28   H43   S    
C103  H136  S    
C73   H99   S    
C87   C91   S    
C94   H114  S    
C8    O5    A    
C100  C104  S    
C30   H49   S    
Cr9   O49   S    
C46   H127  S    
C89   C106  S    
C52   O20   A    
C63   O21   A    
C119  O12   A    
C81   C86   S    
C59   H70   S    
C60   H58   S    
C97   C105  S    
C124  H144  S    
C111  C124  S    
C95   H4    S    
C101  C105  S    
C127  O41   A    
C59   H31   S    
C41   C49   S    
C100  H129  S    
C125  H145  S    
Cr1   O14   S    
C40   C58   S    
C102  H131  S    
C19   H72   S    
C96   H140  S    
Cr1   O36   S    
C117  O1    A    
C99   C116  S    
C117  O31   A    
C106  C127  S    
C17   C21   S    
Cr4   O8    S    
C15   C19   S    
C114  H128  S    
C110  C123  S    
Cr11  O26   S    
C7    O4    A    
C78   C82   S    
C16   C20   S    
C10   C111  S    
C112  C125  S    
C44   H105  S    
C13   C36   S    
C57   H33   S    
C72   O30   A    
Cr4   O13   S    
C120  O23   A    
C42   H27   S    
C25   C107  S    
C9    C110  S    
C99   H7    S    
C11   C112  S    
C97   H5    S    
C67   H78   S    
C43   H94   S    
C27   H36   S    
C37   H25   S    
C87   H107  S    
Cr3   O3    S    
Cr2   O6    S    
C98   C106  S    
C30   C36   S    
C33   H51   S    
C66   H73   S    
C76   H101  S    
C39   H29   S    
C5    C82   S    
C65   C82   S    
C56   H67   S    
C91   H115  S    
Cr1   O9    S    
C16   H92   S    
C18   H61   S    
C14   H90   S    
C97   H123  S    
Cr8   O18   S    
C48   C52   S    
C99   H121  S    
C20   C25   S    
C31   H47   S    
C75   H98   S    
C108  C126  S    
C43   C47   S    
C24   H16   S    
C34   C118  S    
C55   C121  S    
C5    O49   A    
C80   H96   S    
C42   H64   S    
C61   H59   S    
C88   H103  S    
C92   H117  S    
C12   H89   S    
C26   H39   S    
Cr7   O34   S    
C99   C108  S    
C34   C51   S    
Cr2   O10   S    
C113  H8    S    
C8    O36   A    
C66   H77   S    
Cr5   O41   S    
C15   C25   S    
C40   C49   S    
C12   C22   S    
C45   C62   S    
C22   C85   S    
C68   H75   S    
C53   C61   S    
C28   C35   S    
C36   H23   S    
Cr5   O10   S    
C85   H139  S    
C110  C114  S    
Cr10  O20   S    
C20   C96   S    
C4    O45   A    
C2    H14   S    
C27   H34   S    
C92   H112  S    
C24   C50   S    
Cr2   O28   S    
C29   H42   S    
Cr4   O30   S    
Cr8   O44   S    
Cr12  O5    S    
Cr5   O37   S    
Cr12  O27   S    
C87   C104  S    
C21   C69   S    
C6    O50   A    
C88   H108  S    
C31   H45   S    
C24   C37   S    
C73   C79   S    
C32   C37   S    
C118  H12   S    
C42   C50   S    
C16   C23   S    
C101  H134  S    
Cr1   O40   S    
C112  C116  S    
Cr8   O9    S    
C58   H69   S    
Cr11  O51   S    
C18   C22   S    
C9    O37   A    
C42   C59   S    
Cr12  O9    S    
C44   C61   S    
C6    C86   S    
C28   H44   S    
C79   H95   S    
Cr9   O24   S    
C71   O29   A    
C88   C105  S    
C72   O26   A    
C98   C115  S    
C125  H3    S    
C94   C112  S    
C51   C117  S    
Cr5   O12   S    
C81   H97   S    
C30   H50   S    
C74   C85   S    
C89   C93   S    
Cr8   O45   S    
C103  C125  S    
Cr11  O13   S    
C36   C54   S    
C115  H124  S    
C37   C55   S    
C44   C48   S    
C38   C56   S    
C67   H74   S    
C51   C60   S    
C97   C114  S    
C13   H19   S    
C116  H11   S    
C19   C107  S    
C2    C35   S    
Cr10  O47   S    
C38   H65   S    
C69   O27   A    
C70   O28   A    
C80   C84   S    
C5    O2    A    
C76   C84   S    
C91   H111  S    
C38   H28   S    
C57   H68   S    
C26   C27   S    
C89   H109  S    
C28   C29   S    
C47   C63   S    
C30   C31   S    
C93   H113  S    
Cr11  O48   S    
Cr8   O22   S    
C39   H66   S    
C119  O32   A    
C17   H1    S    
C14   C18   S    
C113  H126  S    
C66   C83   S    
C121  O35   A    
C47   C118  S    
C4    O52   A    
C12   C17   S    
C102  H135  S    
C1    C50   S    
Cr9   O19   S    
Cr6   O23   S    
C126  O44   A    
C33   H53   S    
C128  O42   A    
C64   H57   S    
C56   H32   S    
Cr5   O15   S    
Cr3   O11   S    
C32   H55   S    
C102  C124  S    
C70   O24   A    
C90   C94   S    
C67   C68   S    
C23   C71   S    
C68   H79   S    
C53   C57   S    
C87   H102  S    
C54   C62   S    
C2    C48   S    
C73   H80   S    
C77   H84   S    
C120  O33   A    
Cr11  O21   S    
C45   C49   S    
C2    H18   S    
C24   H20   S    
C89   H104  S    
C80   H88   S    
C122  H142  S    
C123  H147  S    
C93   C111  S    
C124  H148  S    
C96   C107  S    
Cr2   O32   S    
Cr6   O42   S    
Cr3   O29   S    
C45   H13   S    
C73   C82   S    
Cr10  O25   S    
C6    O3    A    
C1    O18   A    
C77   C80   S    
Cr12  O31   S    
C27   H37   S    
C3    O43   A    
C32   C33   S    
C62   H60   S    
C79   C83   S    
C75   C83   S    
C4    C83   S    
C90   H106  S    
C20   H83   S    
Cr6   O11   S    
C122  H146  S    
C45   H116  S    
C90   C108  S    
C93   H118  S    
C44   H2    S    
C126  O40   A    
Cr6   O38   S    
C60   H35   S    
C118  H17   S    
C114  H9    S    
Cr10  O11   S    
C39   C48   S    
C3    C104  S    
Cr4   O35   S    
C54   C120  S    
C68   C86   S    
C52   O16   A    
C19   C23   S    
C63   O17   A    
C92   C110  S    
C101  C123  S    
C29   H41   S    
C33   H52   S    
C58   H30   S    
Cr9   O46   S    
C109  C122  S    
C15   C16   S    
C39   C57   S    
C23   C96   S    
C51   C56   S    
C15   H91   S    
C13   H15   S    
C26   C34   S    
C95   H122  S    
C88   C92   S    
C29   H40   S    
C31   H48   S    
Cr4   O4    S    
C103  C108  S    
C40   H26   S    
C109  C113  S    
C7    C84   S    
Cr1   O1    S    
C67   C84   S    
C18   C74   S    
C46   H24   S    
Cr9   O10   S    
C107  H141  S    
Cr6   O16   S    
Cr7   O13   S    
C9    O6    A    
C26   H38   S    
Cr7   O39   S    
C11   O8    A    
C35   H22   S    
Cr12  O52   S    
C65   H76   S    
C32   H54   S    
C116  H125  S    
C98   H6    S    
C76   H82   S    
C21   C74   S    
C41   O19   A    
C46   C64   S    
C7    O51   A    
C77   H100  S    
C94   H119  S    
C40   H63   S    
C55   C64   S    
Cr2   O2    S    
Cr3   O7    S    
C25   C72   S    
C38   C47   S    
Cr3   O33   S    
C43   C60   S    
C13   C49   S    
C71   O25   A    
C77   C86   S    
C1    O14   A    
C11   O39   A    
C95   C104  S    
Cr7   O17   S    
C54   C58   S    
C98   H120  S    
C64   H62   S    
Cr7   O43   S    
C81   H87   S    
C105  C128  S    
Cr10  O50   S    
C76   C81   S    
C53   C119  S    
C101  H130  S    
C46   C50   S    
C100  H133  S    
C103  H132  S    
C91   C109  S    
C12   C14   S    
C123  H143  S    
C8    C109  S    
C43   H138  S    
C95   C113  S    
C78   H93   S    
C3    O48   A    
C115  H10   S    
C61   H46   S    
C127  O46   A    
C22   C70   S    
C102  C106  S    
C100  C122  S    
C75   C78   S    
C65   H71   S    
C121  O34   A    
C75   H81   S    
C65   C66   S    
C111  C115  S    
C79   H85   S    
C10   O7    A    
