data_str_m9_o13_o18_f0_sra.sym.49
_audit_creation_date              2012-12-11T14:45:29-0500
_audit_creation_method            fapswitch 2.2
_symmetry_space_group_name_H-M    P1
_symmetry_Int_Tables_number       1
_space_group_crystal_system       triclinic
_cell_length_a                    24.944647
_cell_length_b                    7.172532
_cell_length_c                    14.463675
_cell_angle_alpha                 90.073661
_cell_angle_beta                  102.837775
_cell_angle_gamma                 92.774673
_cell_volume                      2519.9495421

loop_
_atom_site_label
_atom_site_type_symbol
_atom_type_description
_atom_site_fract_x
_atom_site_fract_y
_atom_site_fract_z
_atom_type_partial_charge
O1    O     O_R   0.319150 0.364170 0.330530 -0.538214
O2    O     O_R   0.680850 0.635830 0.669470 -0.538214
O3    O     O_R   0.180850 0.864170 0.169470 -0.543001
O4    O     O_R   0.819150 0.135830 0.830530 -0.543001
O5    O     O_R   0.210330 0.696850 0.354180 -0.537399
O6    O     O_R   0.789670 0.303150 0.645820 -0.537399
O7    O     O_R   0.289670 0.196850 0.145820 -0.539228
O8    O     O_R   0.710330 0.803150 0.854180 -0.539228
C1    C     C_R   0.197440 0.523169 0.378239 0.680098
C2    C     C_R   0.802560 0.476831 0.621761 0.680098
C3    C     C_R   0.302885 0.027546 0.122039 0.676225
C4    C     C_R   0.697115 0.972454 0.877961 0.676225
O9    O     O_R   0.320550 0.694110 0.341970 -0.547489
O10   O     O_R   0.679450 0.305890 0.658030 -0.547489
O11   O     O_R   0.179450 0.194110 0.158030 -0.541289
O12   O     O_R   0.820550 0.805890 0.841970 -0.541289
O13   O     O_R   0.291860 0.861000 0.157170 -0.535868
O14   O     O_R   0.708140 0.139000 0.842830 -0.535868
O15   O     O_R   0.208140 0.361000 0.342830 -0.536624
O16   O     O_R   0.791860 0.639000 0.657170 -0.536624
C5    C     C_R   0.342283 0.530270 0.362052 0.688163
C6    C     C_R   0.657717 0.469730 0.637948 0.688163
C7    C     C_R   0.158108 0.020800 0.137710 0.689719
C8    C     C_R   0.841892 0.979200 0.862290 0.689719
O17   O     O_3   0.240460 0.529330 0.189380 -0.376170
O18   O     O_3   0.759540 0.470670 0.810620 -0.376170
O19   O     O_3   0.259540 0.029330 0.310620 -0.375634
O20   O     O_3   0.740460 0.970670 0.689380 -0.375634
V1    V     V_3+5 0.251770 0.805510 0.261240 1.413184
V2    V     V_3+5 0.748230 0.194490 0.738760 1.413183
V3    V     V_3+5 0.248230 0.305510 0.238760 1.416897
V4    V     V_3+5 0.751770 0.694490 0.761240 1.416895
C9    C     C_R   0.102185 0.993498 0.075824 -0.061874
C10   C     C_R   0.897815 0.006502 0.924176 -0.061874
C11   C     C_R   0.398870 0.540004 0.423496 -0.063218
C12   C     C_R   0.601130 0.459995 0.576505 -0.063219
C13   C     C_R   0.967525 0.217458 0.022311 -0.198818
C14   C     C_R   0.032475 0.782542 0.977688 -0.198818
C15   C     C_R   0.526693 0.274755 0.472714 -0.199108
C16   C     C_R   0.473306 0.725245 0.527287 -0.199108
C17   C     C_R   0.913366 0.177834 0.973006 -0.168402
C18   C     C_R   0.086634 0.822166 0.026994 -0.168402
C19   C     C_R   0.581309 0.295992 0.523356 -0.170662
C20   C     C_R   0.418691 0.704008 0.476644 -0.170663
C21   C     C_R   0.937580 0.873144 0.927468 -0.236636
C22   C     C_R   0.062420 0.126856 0.072532 -0.236636
C23   C     C_R   0.564959 0.604503 0.576341 -0.234158
C24   C     C_R   0.435040 0.395497 0.423659 -0.234157
C25   C     C_R   0.992402 0.913009 0.976290 0.156217
C26   C     C_R   0.007598 0.086991 0.023710 0.156217
C27   C     C_R   0.509697 0.583274 0.525965 0.155556
C28   C     C_R   0.490303 0.416726 0.474035 0.155556
H1    H     H_    0.073586 0.258342 0.110639 0.122218
H2    H     H_    0.926414 0.741658 0.889361 0.122218
H3    H     H_    0.420760 0.269160 0.382502 0.123301
H4    H     H_    0.579239 0.730839 0.617498 0.123302
H5    H     H_    0.978156 0.351135 0.058421 0.119152
H6    H     H_    0.021844 0.648865 0.941579 0.119153
H7    H     H_    0.512824 0.146315 0.433200 0.119731
H8    H     H_    0.487176 0.853685 0.566800 0.119732
C29   C     C_R   0.664470 0.971735 0.950367 -0.029030
C30   C     C_R   0.335531 0.028266 0.049634 -0.029026
C31   C     C_R   0.835147 0.493514 0.549740 -0.027328
C32   C     C_R   0.164853 0.506485 0.450260 -0.027329
C33   C     C_R   0.654576 0.892584 0.107991 -0.162399
C34   C     C_R   0.345424 0.107412 0.892010 -0.162398
C35   C     C_R   0.843736 0.585921 0.393289 -0.160974
C36   C     C_R   0.156264 0.414068 0.606709 -0.160975
C37   C     C_R   0.687191 0.911775 0.041777 -0.168100
C38   C     C_R   0.312808 0.088208 0.958222 -0.168099
C39   C     C_R   0.811354 0.554938 0.459150 -0.170468
C40   C     C_R   0.188645 0.445053 0.540849 -0.170467
C41   C     C_R   0.608798 0.011614 0.924848 -0.212194
C42   C     C_R   0.391204 0.988413 0.075158 -0.212193
C43   C     C_R   0.891455 0.463982 0.574969 -0.211423
C44   C     C_R   0.108546 0.536021 0.425032 -0.211424
C45   C     C_R   0.574094 0.987071 0.989823 0.082260
C46   C     C_R   0.425909 0.012964 0.010183 0.082261
C47   C     C_R   0.925747 0.499337 0.510343 0.082491
C48   C     C_R   0.074253 0.500659 0.489657 0.082491
C49   C     C_R   0.598356 0.927612 0.082676 0.139888
C50   C     C_R   0.401646 0.072411 0.917328 0.139887
C51   C     C_R   0.900560 0.560296 0.418217 0.139578
C52   C     C_R   0.099440 0.439695 0.581782 0.139578
C53   C     C_R   0.516227 0.015532 0.965351 0.058525
C54   C     C_R   0.483777 0.984514 0.034657 0.058526
C55   C     C_R   0.984008 0.479446 0.534477 0.058388
C56   C     C_R   0.015991 0.520549 0.465523 0.058388
C57   C     C_R   0.510329 0.927365 0.126216 -0.186540
C58   C     C_R   0.489674 0.072686 0.873792 -0.186541
C59   C     C_R   0.988621 0.579112 0.374665 -0.186403
C60   C     C_R   0.011379 0.420877 0.625333 -0.186404
C61   C     C_R   0.566342 0.900073 0.149409 -0.199584
C62   C     C_R   0.433661 0.099966 0.850598 -0.199583
C63   C     C_R   0.932192 0.598068 0.351827 -0.199913
C64   C     C_R   0.067808 0.401919 0.648172 -0.199914
H9    H     H_    0.584734 0.855010 0.220439 0.123916
H10   H     H_    0.415270 0.145027 0.779567 0.123916
H11   H     H_    0.913143 0.644380 0.281348 0.123858
H12   H     H_    0.086856 0.355603 0.718649 0.123858
H13   H     H_    0.406215 0.945755 0.147238 0.098580
H14   H     H_    0.593789 0.054285 0.852769 0.098584
H15   H     H_    0.092931 0.580973 0.353534 0.097093
H16   H     H_    0.907069 0.419038 0.646469 0.097092
H17   H     H_    0.673082 0.846065 0.178651 0.112621
H18   H     H_    0.326917 0.153921 0.821347 0.112621
H19   H     H_    0.824497 0.633436 0.323185 0.112480
H20   H     H_    0.175503 0.366548 0.676813 0.112480
H21   H     H_    0.116373 0.716593 0.028035 0.133677
H22   H     H_    0.883627 0.283407 0.971965 0.133677
H23   H     H_    0.392026 0.818117 0.478357 0.134110
H24   H     H_    0.607974 0.181883 0.521643 0.134110
H25   H     H_    0.269903 0.121738 0.938492 0.106701
H26   H     H_    0.730095 0.878224 0.061503 0.106705
H27   H     H_    0.232166 0.419758 0.560192 0.105348
H28   H     H_    0.767833 0.580231 0.439806 0.105348
H29   H     H_    0.489079 0.901294 0.182341 0.123731
H30   H     H_    0.510926 0.098766 0.817669 0.123732
H31   H     H_    0.009485 0.612557 0.318797 0.124439
H32   H     H_    0.990514 0.387427 0.681200 0.124439

loop_
_geom_bond_atom_site_label_1
_geom_bond_atom_site_label_2
_ccdc_geom_bond_type
O17   V3    S    
C24   H3    S    
C55   C56   A    
O1    C5    A    
C16   H8    S    
O19   V1    S    
C1    C32   S    
O13   V1    S    
O3    C7    A    
C2    C31   S    
C60   C64   A    
C48   C52   A    
C3    C30   S    
O15   V3    S    
C47   C55   A    
C14   C25   A    
C53   C54   A    
O7    C3    A    
C40   H27   S    
C50   C62   A    
C9    C18   A    
C58   H30   S    
O9    V1    S    
C18   H21   S    
C34   H18   S    
C14   C18   A    
O4    C8    A    
C63   H11   S    
C62   H10   S    
O1    V3    S    
C30   C38   A    
C12   C23   A    
O2    V4    S    
C52   C64   A    
O3    V1    S    
C14   H6    S    
C1    O15   A    
C2    O16   A    
C7    C9    S    
O2    C6    A    
O14   V2    S    
C45   C49   A    
C16   C20   A    
C36   C40   A    
C46   C54   A    
C44   H15   S    
O11   C7    A    
C15   C28   A    
C45   C53   A    
O12   C8    A    
C55   C60   A    
C57   C61   A    
C9    C22   A    
C10   C17   A    
O10   V2    S    
C11   C24   A    
C33   H17   S    
C58   C62   A    
O5    V1    S    
C38   H25   S    
C37   H26   S    
O7    V3    S    
C27   C28   A    
C36   C52   A    
O18   V4    S    
C15   C19   A    
C29   C41   A    
C8    C10   S    
O8    V4    S    
O5    C1    A    
C34   C50   A    
C49   C61   A    
C46   C50   A    
C33   C49   A    
C56   C59   A    
C21   C25   A    
O8    C4    A    
C15   H7    S    
C32   C44   A    
O9    C5    A    
C10   C21   A    
C51   C63   A    
C11   C20   A    
C42   H13   S    
C41   H14   S    
O6    V2    S    
C57   H29   S    
C21   H2    S    
C17   H22   S    
C43   H16   S    
C59   H31   S    
C19   H24   S    
C61   H9    S    
C35   C51   A    
O16   V4    S    
C29   C37   A    
C3    O13   A    
C44   C48   A    
C31   C39   A    
C54   C57   A    
O6    C2    A    
C23   C27   A    
C53   C58   A    
O11   V3    S    
C5    C11   S    
O12   V4    S    
C16   C27   A    
C6    C12   S    
C22   C26   A    
O10   C6    A    
O20   V2    S    
C60   H32   S    
C48   C56   A    
C47   C51   A    
C4    C29   S    
C35   H19   S    
C34   C38   A    
C31   C43   A    
C33   C37   A    
C64   H12   S    
C22   H1    S    
C13   C26   A    
C39   H28   S    
C35   C39   A    
C32   C40   A    
C13   C17   A    
O4    V2    S    
C59   C63   A    
C20   H23   S    
C24   C28   A    
C25   C26   A    
C42   C46   A    
C4    O14   A    
C41   C45   A    
C30   C42   A    
C12   C19   A    
C36   H20   S    
C43   C47   A    
C13   H5    S    
C23   H4    S    
