data_str_m12_o9_o11_f0_bcu.sym.145
_audit_creation_date              2012-12-11T17:39:28-0500
_audit_creation_method            fapswitch 2.2
_symmetry_space_group_name_H-M    P1
_symmetry_Int_Tables_number       1
_space_group_crystal_system       triclinic
_cell_length_a                    15.147995
_cell_length_b                    15.078826
_cell_length_c                    15.022502
_cell_angle_alpha                 108.977608
_cell_angle_beta                  110.482677
_cell_angle_gamma                 109.9103
_cell_volume                      2609.45105623

loop_
_atom_site_label
_atom_site_type_symbol
_atom_type_description
_atom_site_fract_x
_atom_site_fract_y
_atom_site_fract_z
_atom_type_partial_charge
C1    C     C_R   0.911162 0.912171 0.713110 -0.142717
C2    C     C_R   0.001503 0.299421 0.434623 0.054961
C3    C     C_R   0.261264 0.320096 0.821853 0.116328
C4    C     C_R   0.709340 0.030844 0.533027 0.050177
C5    C     C_R   0.707202 0.691916 0.283280 -0.125894
C6    C     C_R   0.300147 0.087871 0.498327 -0.130547
C7    C     C_R   0.090934 0.779500 0.525702 -0.105774
C8    C     C_R   0.907823 0.939027 0.186335 -0.136421
C9    C     C_R   0.091047 0.027594 0.279304 -0.117064
C10   C     C_R   0.907767 0.684523 0.443488 -0.137805
C11   C     C_R   0.705775 0.782404 0.191643 -0.175623
C12   C     C_R   0.091624 0.296532 0.493523 -0.157261
C13   C     C_R   0.299872 0.999267 0.592017 -0.166591
C14   C     C_R   0.651842 0.681775 0.182526 0.122562
C15   C     C_R   0.358988 0.053766 0.556888 0.058603
C16   C     C_R   0.000172 0.676246 0.461796 0.044451
C17   C     C_R   0.998066 0.951545 0.174920 0.054077
C18   C     C_R   0.486026 0.676719 0.335245 -0.119328
C19   C     C_R   0.503193 0.782440 0.377785 -0.116655
C20   C     C_R   0.517814 0.836340 0.482258 0.120047
C21   C     C_R   0.512818 0.782023 0.542342 -0.187278
C22   C     C_R   0.496079 0.676481 0.499612 -0.108858
C23   C     C_R   0.240605 0.219561 0.811607 -0.154351
C24   C     C_R   0.482900 0.623954 0.396234 -0.102565
C25   C     C_R   0.456730 0.961478 0.543778 -0.239596
C26   C     C_R   0.458797 0.059863 0.569016 0.064657
C27   C     C_R   0.546065 0.152131 0.588088 0.023883
C28   C     C_R   0.629978 0.141178 0.577978 -0.244858
C29   C     C_R   0.624355 0.040519 0.547337 0.068571
C30   C     C_R   0.536209 0.948820 0.528215 0.012730
C31   C     C_R   0.570168 0.309381 0.554974 -0.162676
C32   C     C_R   0.559666 0.400931 0.569547 -0.115404
C33   C     C_R   0.525714 0.439987 0.641177 -0.080170
C34   C     C_R   0.740251 0.054225 0.463107 -0.149692
C35   C     C_R   0.505007 0.389263 0.700465 -0.112383
C36   C     C_R   0.519724 0.300727 0.689660 -0.143846
C37   C     C_R   0.548380 0.257141 0.613582 0.115244
C38   C     C_R   0.813253 0.117333 0.081190 -0.108823
C39   C     C_R   0.887253 0.215560 0.181340 -0.131978
C40   C     C_R   0.850958 0.282534 0.227034 0.119322
C41   C     C_R   0.739415 0.249994 0.169142 -0.172306
C42   C     C_R   0.665794 0.151876 0.068554 -0.117247
C43   C     C_R   0.702606 0.085459 0.024868 -0.091052
C44   C     C_R   0.929504 0.482026 0.347382 -0.245954
C45   C     C_R   0.241555 0.311430 0.721067 -0.128840
C46   C     C_R   0.006357 0.580200 0.447636 0.068968
C47   C     C_R   0.087862 0.585507 0.535460 0.016804
C48   C     C_R   0.089166 0.492188 0.521689 -0.234758
C49   C     C_R   0.008356 0.392817 0.425548 0.060336
C50   C     C_R   0.929805 0.386245 0.334616 0.021830
C51   C     C_R   0.279839 0.732152 0.687723 -0.195690
C52   C     C_R   0.354176 0.824359 0.792621 -0.121320
C53   C     C_R   0.316030 0.866824 0.858067 -0.093473
C54   C     C_R   0.203393 0.816818 0.818837 -0.120677
C55   C     C_R   0.128723 0.724947 0.713875 -0.120002
C56   C     C_R   0.747818 0.967498 0.560375 -0.103351
C57   C     C_R   0.166477 0.682835 0.647151 0.117672
C58   C     C_2   0.360154 0.516528 0.938928 -0.111553
C59   C     C_2   0.305453 0.417946 0.924796 -0.193070
C60   C     C_2   0.463985 0.602335 0.042317 -0.271444
C61   C     C_2   0.547035 0.585907 0.089031 0.168589
C62   C     C_R   0.411344 0.150407 0.111128 -0.102997
C63   C     C_R   0.307762 0.062402 0.067216 -0.248073
C64   C     C_R   0.215137 0.073970 0.038651 0.074235
C65   C     C_R   0.229235 0.178515 0.061045 0.338942
C66   C     C_R   0.334413 0.266382 0.106162 -0.191507
C67   C     C_R   0.909326 0.209328 0.406392 -0.121096
C68   C     C_R   0.424591 0.252119 0.130104 -0.155762
C69   C     C_R   0.102152 0.959349 0.082243 -0.219518
C70   C     C_R   0.000090 0.909949 0.072792 0.054151
C71   C     C_R   0.904798 0.844647 0.966634 0.025747
C72   C     C_R   0.913986 0.846472 0.878544 -0.240607
C73   C     C_R   0.011615 0.923286 0.896639 0.046230
C74   C     C_R   0.108812 0.979992 0.001034 0.024824
C75   C     C_R   0.766999 0.691279 0.961470 -0.140169
C76   C     C_R   0.659156 0.625100 0.930863 -0.097894
C77   C     C_R   0.577829 0.646908 0.882853 -0.110544
C78   C     C_R   0.093267 0.999998 0.800390 -0.134401
C79   C     C_R   0.603870 0.734958 0.864888 -0.134277
C80   C     C_R   0.711275 0.800652 0.893945 -0.186227
C81   C     C_R   0.793441 0.779118 0.942604 0.114244
C82   C     C_R   0.005736 0.947826 0.809164 0.074699
H1    H     H_    0.827252 0.855847 0.684309 0.091306
H2    H     H_    0.328073 0.141673 0.468731 0.109381
H3    H     H_    0.175389 0.801963 0.554633 0.110594
H4    H     H_    0.822687 0.892865 0.123697 0.123995
H5    H     H_    0.175931 0.060804 0.303659 0.093837
H6    H     H_    0.823984 0.618586 0.400565 0.094429
H7    H     H_    0.675118 0.806765 0.132953 0.112317
H8    H     H_    0.328203 0.973440 0.650166 0.107572
H9    H     H_    0.469873 0.542224 0.363196 0.099799
H10   H     H_    0.474989 0.635572 0.254937 0.116521
H11   H     H_    0.505487 0.822443 0.329712 0.108585
H12   H     H_    0.175595 0.348563 0.518191 0.095957
H13   H     H_    0.523207 0.821968 0.622680 0.108328
H14   H     H_    0.493334 0.635431 0.546665 0.102795
H15   H     H_    0.386828 0.890185 0.525417 0.135384
H16   H     H_    0.699071 0.210265 0.592596 0.133041
H17   H     H_    0.591600 0.277212 0.495284 0.110743
H18   H     H_    0.575260 0.439971 0.523275 0.105893
H19   H     H_    0.514798 0.509043 0.650159 0.105891
H20   H     H_    0.476015 0.417263 0.753863 0.103753
H21   H     H_    0.503683 0.263026 0.736842 0.116395
H22   H     H_    0.645523 0.009475 0.947223 0.092060
H23   H     H_    0.248555 0.199120 0.875293 0.120433
H24   H     H_    0.841894 0.066134 0.047167 0.112218
H25   H     H_    0.972930 0.239385 0.223116 0.115967
H26   H     H_    0.709063 0.299673 0.202332 0.106717
H27   H     H_    0.580072 0.127150 0.024494 0.105086
H28   H     H_    0.870013 0.480687 0.279857 0.136691
H29   H     H_    0.148079 0.496178 0.592069 0.130163
H30   H     H_    0.310248 0.700065 0.637471 0.114979
H31   H     H_    0.441291 0.862944 0.823116 0.097472
H32   H     H_    0.374049 0.938172 0.939182 0.101460
H33   H     H_    0.173401 0.848778 0.869300 0.115328
H34   H     H_    0.719199 0.098104 0.423106 0.101303
H35   H     H_    0.041693 0.687090 0.684235 0.113159
H36   H     H_    0.342393 0.529180 0.869218 0.123118
H37   H     H_    0.317964 0.409164 0.996332 0.132687
H38   H     H_    0.477950 0.684728 0.073267 0.136174
H39   H     H_    0.505333 0.320592 0.165644 0.121322
H40   H     H_    0.481812 0.140173 0.132480 0.109731
H41   H     H_    0.299994 0.985328 0.057587 0.126796
H42   H     H_    0.346953 0.346877 0.124967 0.116473
H43   H     H_    0.248624 0.374434 0.700026 0.091021
H44   H     H_    0.177915 0.999881 0.159245 0.126382
H45   H     H_    0.840891 0.794691 0.797400 0.128421
H46   H     H_    0.829015 0.672734 0.997267 0.116127
H47   H     H_    0.638189 0.555126 0.941578 0.129668
H48   H     H_    0.494118 0.594024 0.856926 0.101167
H49   H     H_    0.540596 0.751107 0.826802 0.106515
H50   H     H_    0.730487 0.867894 0.878117 0.110017
H51   H     H_    0.735505 0.933446 0.610991 0.106714
H52   H     H_    0.824598 0.182082 0.352471 0.101114
H53   H     H_    0.176305 0.018965 0.846940 0.109801
H54   H     H_    0.677955 0.635389 0.309794 0.093716
N1    N     N_R   0.941940 0.944580 0.650780 -0.039475
N2    N     N_R   0.206190 0.054080 0.497260 -0.040121
N3    N     N_R   0.056380 0.847410 0.553580 -0.042717
N4    N     N_R   0.944890 0.999100 0.292900 -0.040875
N5    N     N_R   0.058060 0.055420 0.349220 -0.042220
N6    N     N_R   0.943200 0.791100 0.497260 -0.040409
N7    N     N_R   0.795540 0.849750 0.292910 -0.039901
N8    N     N_R   0.205730 0.996760 0.553580 -0.037337
N9    N     N_R   0.056800 0.208900 0.502740 -0.036504
N10   N     N_R   0.204460 0.150250 0.707090 -0.041501
N11   N     N_R   0.794270 0.003240 0.446420 -0.041679
N12   N     N_R   0.204920 0.207570 0.650770 -0.042302
N13   N     N_R   0.793810 0.945920 0.502740 -0.042659
N14   N     N_R   0.943620 0.152590 0.446420 -0.038909
N15   N     N_R   0.055110 0.000900 0.707100 -0.040645
N16   N     N_R   0.795080 0.792430 0.349230 -0.040186
Ni1   Ni    Ni4+2 0.869690 0.869690 0.500000 0.215146
Ni2   Ni    Ni4+2 0.130310 0.130310 0.500000 0.213501
Ni3   Ni    Ni4+2 0.129250 0.998840 0.629170 0.217722
Ni4   Ni    Ni4+2 0.870750 0.001160 0.370830 0.213833
C83   C     C_3   0.536490 0.473335 0.045186 -0.314842
C84   C     C_3   0.643631 0.472569 0.093418 -0.969823
H55   H     H_    0.709591 0.534626 0.093730 0.269518
H56   H     H_    0.671299 0.487272 0.178311 0.250131
H57   H     H_    0.629207 0.390883 0.042863 0.257698
H58   H     H_    0.480593 0.421063 0.061910 0.182777
H59   H     H_    0.500631 0.434477 0.954721 0.194954
C85   C     C_3   0.136779 0.201288 0.042032 -1.044671
H60   H     H_    0.122676 0.226011 0.978676 0.256826
H61   H     H_    0.058692 0.130174 0.014532 0.260610
H62   H     H_    0.159206 0.268978 0.119834 0.252627

loop_
_geom_bond_atom_site_label_1
_geom_bond_atom_site_label_2
_ccdc_geom_bond_type
C5    H54   S    
C66   C68   A    
C38   H24   S    
C51   H30   S    
C80   H50   S    
C41   H26   S    
C13   H8    S    
C45   N12   A    
C41   C42   A    
C3    C23   A    
C35   C36   A    
C35   H20   S    
C2    C12   A    
C56   H51   S    
C20   C30   S    
C52   H31   S    
C53   H32   S    
C39   H25   S    
C10   H6    S    
C26   C27   A    
C83   C84   S    
C5    N16   A    
C36   H21   S    
C33   H19   S    
C85   H60   S    
N11   N13   A    
C42   H27   S    
C27   C37   S    
C18   C19   A    
C10   N6    A    
C38   C39   A    
N3    N6    A    
C40   C50   S    
N5    Ni2   S    
C58   C60   S    
C23   H23   S    
C58   H36   S    
C75   H46   S    
C73   C74   A    
C13   N8    A    
N13   Ni1   S    
C43   H22   S    
C84   H57   S    
C33   C35   A    
C6    C15   A    
C54   C55   A    
N10   Ni3   S    
C31   C32   A    
C45   H43   S    
C70   C71   A    
C18   C24   A    
C31   H17   S    
C78   H53   S    
C83   H59   S    
C8    H4    S    
C4    C29   S    
C19   H11   S    
C72   C73   A    
N2    Ni2   S    
C17   C70   S    
C63   C64   A    
N14   Ni4   S    
C21   C22   A    
C4    C56   A    
C67   N14   A    
C84   H56   S    
C12   H12   S    
N12   Ni2   S    
C44   C46   A    
C78   N15   A    
N10   N12   A    
C77   C79   A    
C23   N10   A    
C4    C34   A    
C6    H2    S    
C76   H47   S    
C72   H45   S    
C51   C52   A    
C67   H52   S    
C76   C77   A    
C2    C67   A    
C16   C46   S    
C39   C40   A    
C9    N5    A    
C75   C81   A    
C15   C26   S    
C21   H13   S    
C25   C26   A    
C53   C54   A    
C14   C61   S    
C3    C45   A    
C31   C37   A    
N7    N16   A    
C60   C61   D    
C12   N9    A    
C6    N2    A    
C75   C76   A    
C29   C30   A    
C2    C49   S    
C61   C83   S    
C47   C57   S    
C34   N11   A    
C11   H7    S    
C63   H41   S    
C47   C48   A    
N3    Ni3   S    
C79   H49   S    
C54   H33   S    
C62   C63   A    
N1    Ni1   S    
C69   C74   A    
N4    N5    A    
N11   Ni4   S    
C5    C14   A    
N4    Ni4   S    
C51   C57   A    
N9    Ni2   S    
C9    C17   A    
C40   C41   A    
C69   H44   S    
C65   C66   A    
N15   Ni3   S    
C55   C57   A    
C84   H55   S    
C22   C24   A    
C58   C59   D    
C42   C43   A    
C24   H9    S    
C73   C82   S    
C62   H40   S    
C1    N1    A    
C52   C53   A    
C55   H35   S    
C44   C50   A    
C25   C30   A    
C46   C47   A    
C28   C29   A    
C59   H37   S    
C22   H14   S    
C85   H62   S    
C7    C16   A    
C25   H15   S    
N9    N14   A    
C80   C81   A    
C78   C82   A    
C68   H39   S    
C28   H16   S    
C1    H1    S    
C8    C17   A    
C62   C68   A    
C8    N4    A    
C18   H10   S    
C64   C65   A    
C19   C20   A    
C13   C15   A    
C1    C82   A    
C38   C43   A    
N2    N8    A    
C32   C33   A    
C7    N3    A    
N7    Ni4   S    
C7    H3    S    
C11   N7    A    
N8    Ni3   S    
C48   C49   A    
C65   C85   S    
C85   H61   S    
C11   C14   A    
C60   H38   S    
C66   H42   S    
C77   H48   S    
N6    Ni1   S    
C69   C70   A    
C79   C80   A    
C32   H18   S    
C71   C72   A    
C48   H29   S    
C20   C21   A    
C36   C37   A    
C49   C50   A    
C27   C28   A    
C64   C74   S    
N1    N15   A    
C10   C16   A    
N16   Ni1   S    
C56   N13   A    
C34   H34   S    
C83   H58   S    
C9    H5    S    
C3    C59   S    
C71   C81   S    
C44   H28   S    
