data_str_m3_o5_o9_f0_pcu.sym.19
_audit_creation_date              2012-12-10T20:52:11-0500
_audit_creation_method            fapswitch 2.2
_symmetry_space_group_name_H-M    P1
_symmetry_Int_Tables_number       1
_space_group_crystal_system       triclinic
_cell_length_a                    10.79165
_cell_length_b                    8.974588
_cell_length_c                    8.191296
_cell_angle_alpha                 90.947845
_cell_angle_beta                  93.65217
_cell_angle_gamma                 89.752881
_cell_volume                      791.608334276

loop_
_atom_site_label
_atom_site_type_symbol
_atom_type_description
_atom_site_fract_x
_atom_site_fract_y
_atom_site_fract_z
_atom_type_partial_charge
C1    C     C_R   0.499909 0.218259 0.499118 0.928470
C2    C     C_R   0.740853 0.496446 0.505670 0.859232
C3    C     C_R   0.204727 0.467936 0.962551 -0.185501
C4    C     C_R   0.795251 0.531963 0.037400 -0.185548
C5    C     C_R   0.154338 0.506789 0.108215 -0.098719
C6    C     C_R   0.845712 0.493152 0.891779 -0.098652
C7    C     C_R   0.094279 0.399495 0.196012 0.045863
C8    C     C_R   0.905701 0.600502 0.803976 0.045737
C9    C     C_R   0.063388 0.262073 0.119062 -0.249967
C10   C     C_R   0.936447 0.737977 0.880874 -0.249845
C11   C     C_R   0.100440 0.228720 0.961569 0.608180
C12   C     C_R   0.500092 0.781741 0.500882 0.928444
C13   C     C_R   0.899308 0.771303 0.038307 0.608178
C14   C     C_R   0.180304 0.328509 0.889753 -0.220593
C15   C     C_R   0.819530 0.671428 0.110132 -0.220553
C16   C     C_R   0.927338 0.420983 0.382837 -0.262192
C17   C     C_R   0.072657 0.579050 0.617164 -0.262123
C18   C     C_3   0.028844 0.116237 0.717044 -0.365347
C19   C     C_3   0.971116 0.883743 0.282656 -0.364953
C20   C     C_R   0.874233 0.487824 0.516037 -0.113395
C21   C     C_R   0.125765 0.512203 0.483961 -0.113436
C22   C     C_R   0.948603 0.560283 0.640970 0.029373
C23   C     C_R   0.051391 0.439750 0.359022 0.029359
C24   C     C_1   0.499964 0.065157 0.498779 -0.194459
C25   C     C_1   0.500037 0.934843 0.501220 -0.194465
C26   C     C_R   0.259147 0.503558 0.494330 0.859175
H1    H     H_    0.220183 0.299199 0.776136 0.173284
H2    H     H_    0.130209 0.640152 0.707757 0.161584
H3    H     H_    0.112345 0.103830 0.645321 0.164598
H4    H     H_    0.982073 0.224948 0.691444 0.167744
H5    H     H_    0.962022 0.028817 0.673228 0.182548
H6    H     H_    0.018144 0.775136 0.307928 0.167605
H7    H     H_    0.887754 0.895761 0.354685 0.164585
H8    H     H_    0.037835 0.971342 0.326368 0.182457
H9    H     H_    0.779597 0.700727 0.223684 0.173404
H10   H     H_    0.261464 0.548787 0.907404 0.186476
H11   H     H_    0.738555 0.451067 0.092550 0.186457
H12   H     H_    0.168829 0.618619 0.157372 0.148322
H13   H     H_    0.831327 0.381296 0.842650 0.148438
H14   H     H_    0.006777 0.183643 0.178837 0.186619
H15   H     H_    0.992981 0.816475 0.821080 0.186703
H16   H     H_    0.869781 0.359876 0.292259 0.161601
N1    N     N_1   0.500020 0.500030 0.073640 -0.051600
N2    N     N_1   0.499980 0.499970 0.926360 -0.051591
O1    O     O_R   0.499990 0.285340 0.636850 -0.616668
O2    O     O_3   0.938829 0.903926 0.114143 -0.579185
O3    O     O_R   0.500010 0.714660 0.363150 -0.616703
O4    O     O_R   0.500010 0.285350 0.363100 -0.608707
O5    O     O_R   0.499990 0.714650 0.636900 -0.608718
O6    O     O_R   0.316750 0.500000 0.636870 -0.648772
O7    O     O_R   0.683250 0.500000 0.363130 -0.648788
O8    O     O_R   0.316770 0.500020 0.363120 -0.615872
O9    O     O_R   0.683230 0.499980 0.636880 -0.615823
O10   O     O_3   0.060716 0.096165 0.885700 -0.579157
Zn1   Zn    Zn3+2 0.499990 0.499990 0.682780 0.968465
Zn2   Zn    Zn3+2 0.500010 0.500010 0.317220 0.968429

loop_
_geom_bond_atom_site_label_1
_geom_bond_atom_site_label_2
_ccdc_geom_bond_type
C8    C22   S    
N1    N2    T    
C10   C13   A    
C1    O4    A    
C18   H4    S    
C26   O8    A    
C14   H1    S    
C17   C22   A    
C13   C15   A    
C12   C25   S    
C16   C20   A    
C4    C15   A    
C21   C23   A    
C12   O5    A    
C19   O2    S    
C18   H3    S    
C26   O6    A    
C5    H12   S    
C24   C25   T    
C10   H15   S    
C9    C11   A    
N2    Zn1   S    
C1    O1    A    
C3    C14   A    
O8    Zn2   S    
C3    H10   S    
C12   O3    A    
C7    C23   S    
C19   H6    S    
C11   O10   S    
C21   C26   S    
C20   C22   A    
C16   C23   A    
C5    C7    A    
O9    Zn1   S    
C13   O2    S    
C8    C10   A    
C11   C14   A    
C4    C6    A    
C2    O7    A    
C18   O10   S    
C2    C20   S    
C16   H16   S    
N1    Zn2   S    
C4    H11   S    
O1    Zn1   S    
C1    C24   S    
C7    C9    A    
O7    Zn2   S    
C19   H7    S    
C15   H9    S    
O4    Zn2   S    
C6    H13   S    
C6    C8    A    
C18   H5    S    
O5    Zn1   S    
C17   H2    S    
C2    O9    A    
C9    H14   S    
C17   C21   A    
O6    Zn1   S    
O3    Zn2   S    
C3    C5    A    
C19   H8    S    
