data_str_m9_o11_o18_f0_sra.sym.113
_audit_creation_date              2012-12-11T14:21:02-0500
_audit_creation_method            fapswitch 2.2
_symmetry_space_group_name_H-M    P1
_symmetry_Int_Tables_number       1
_space_group_crystal_system       triclinic
_cell_length_a                    21.881117
_cell_length_b                    7.236474
_cell_length_c                    15.011258
_cell_angle_alpha                 90.0
_cell_angle_beta                  107.466133
_cell_angle_gamma                 89.999961
_cell_volume                      2267.32586

loop_
_atom_site_label
_atom_site_type_symbol
_atom_type_description
_atom_site_fract_x
_atom_site_fract_y
_atom_site_fract_z
_atom_type_partial_charge
O1    O     O_R   0.584770 0.505770 0.002090 -0.539575
O2    O     O_R   0.415230 0.005770 0.997910 -0.539575
O3    O     O_R   0.467060 0.173340 0.861950 -0.539634
O4    O     O_R   0.532940 0.673340 0.138050 -0.539634
C1    C     C_R   0.454388 0.344489 0.826170 0.675650
C2    C     C_R   0.545612 0.844489 0.173830 0.675650
O5    O     O_R   0.587510 0.175890 0.993210 -0.541133
O6    O     O_R   0.412490 0.675890 0.006790 -0.541133
O7    O     O_R   0.536540 0.008150 0.130100 -0.535067
O8    O     O_R   0.463460 0.508150 0.869900 -0.535067
C3    C     C_R   0.612670 0.345089 0.996464 0.729480
C4    C     C_R   0.387330 0.845089 0.003536 0.729481
O9    O     O_3   0.483140 0.340040 0.044760 -0.378212
O10   O     O_3   0.516860 0.840040 0.955240 -0.378213
V1    V     V_3+5 0.503130 0.064190 0.991700 1.410122
V2    V     V_3+5 0.496870 0.564190 0.008300 1.410122
C5    C     C_2   0.218783 0.736404 0.027196 -0.144901
C6    C     C_2   0.781217 0.236404 0.972804 -0.144902
C7    C     C_2   0.181583 0.888043 0.002862 -0.301683
C8    C     C_2   0.818416 0.388044 0.997137 -0.301683
H1    H     H_    0.198112 0.610921 0.045536 0.140532
H2    H     H_    0.801888 0.110921 0.954465 0.140532
H3    H     H_    0.201396 0.016594 0.987776 0.125944
H4    H     H_    0.798603 0.516596 0.012222 0.125944
C9    C     C_2   0.287547 0.725020 0.030086 -0.151656
C10   C     C_2   0.712452 0.225021 0.969913 -0.151657
C11   C     C_2   0.320044 0.861911 0.003796 -0.297302
C12   C     C_2   0.679956 0.361910 0.996206 -0.297303
H5    H     H_    0.311693 0.594664 0.053199 0.143458
H6    H     H_    0.688306 0.094668 0.946796 0.143457
H7    H     H_    0.297642 0.994348 0.982415 0.134312
H8    H     H_    0.702359 0.494344 0.017591 0.134312
C13   C     C_R   0.930003 0.886346 0.724083 -0.059185
C14   C     C_R   0.069997 0.386346 0.275917 -0.059185
C15   C     C_R   0.574792 0.857858 0.275037 -0.025931
C16   C     C_R   0.425208 0.357858 0.724963 -0.025931
C17   C     C_R   0.946489 0.885033 0.570767 0.093242
C18   C     C_R   0.053511 0.385034 0.429233 0.093242
C19   C     C_R   0.970939 0.884703 0.668847 -0.187634
C20   C     C_R   0.029061 0.384705 0.331153 -0.187635
C21   C     C_R   0.864048 0.888999 0.683352 -0.214153
C22   C     C_R   0.135952 0.388997 0.316648 -0.214153
C23   C     C_R   0.836684 0.898802 0.585575 0.059283
C24   C     C_R   0.163316 0.398801 0.414425 0.059283
C25   C     C_R   0.878391 0.890740 0.529089 0.053929
C26   C     C_R   0.121609 0.390739 0.470911 0.053929
C27   C     C_R   0.769039 0.916833 0.543147 0.051339
C28   C     C_R   0.230960 0.416832 0.456853 0.051339
C29   C     C_R   0.742111 0.904506 0.443790 0.014645
C30   C     C_R   0.257889 0.404505 0.556210 0.014645
C31   C     C_R   0.785412 0.912454 0.388815 0.077137
C32   C     C_R   0.214588 0.412453 0.611185 0.077137
C33   C     C_R   0.851530 0.898248 0.432113 -0.222614
C34   C     C_R   0.148470 0.398248 0.567886 -0.222613
C35   C     C_R   0.727842 0.958061 0.597356 -0.178952
C36   C     C_R   0.272158 0.458058 0.402644 -0.178952
C37   C     C_R   0.662326 0.975372 0.557415 -0.206145
C38   C     C_R   0.337674 0.475369 0.442584 -0.206145
C39   C     C_R   0.634437 0.941729 0.462863 0.147058
C40   C     C_R   0.365563 0.441727 0.537137 0.147059
C41   C     C_R   0.673337 0.896053 0.405413 0.078531
C42   C     C_R   0.326663 0.396052 0.594587 0.078531
C43   C     C_R   0.567527 0.953369 0.425296 -0.166544
C44   C     C_R   0.432473 0.453367 0.574704 -0.166544
C45   C     C_R   0.538160 0.917946 0.331064 -0.166398
C46   C     C_R   0.461840 0.417944 0.668936 -0.166398
C47   C     C_R   0.641205 0.837318 0.313352 -0.239587
C48   C     C_R   0.358794 0.337319 0.686648 -0.239587
H9    H     H_    0.882329 0.903619 0.387842 0.116788
H10   H     H_    0.117671 0.403618 0.612157 0.116787
H11   H     H_    0.666591 0.776594 0.269679 0.125784
H12   H     H_    0.333409 0.276596 0.730322 0.125784
H13   H     H_    0.486882 0.936575 0.301871 0.106342
H14   H     H_    0.513118 0.436572 0.698129 0.106342
H15   H     H_    0.633018 0.011593 0.601639 0.122603
H16   H     H_    0.366982 0.511589 0.398360 0.122603
H17   H     H_    0.021880 0.883532 0.703980 0.097975
H18   H     H_    0.978119 0.383534 0.296019 0.097975
H19   H     H_    0.835437 0.881514 0.730502 0.100616
H20   H     H_    0.164563 0.381511 0.269498 0.100616
H21   H     H_    0.745043 0.987813 0.670968 0.122784
H22   H     H_    0.254957 0.487810 0.329032 0.122784
H23   H     H_    0.538018 0.993546 0.468570 0.116481
H24   H     H_    0.461981 0.493542 0.531430 0.116481
O11   O     O_R   0.036450 0.233070 0.130130 -0.537593
O12   O     O_R   0.963550 0.733070 0.869870 -0.537593
O13   O     O_R   0.912470 0.560570 0.006790 -0.544048
O14   O     O_R   0.087530 0.060570 0.993210 -0.544047
C49   C     C_R   0.886664 0.392209 0.000465 0.728317
C50   C     C_R   0.113335 0.892209 0.999535 0.728317
O15   O     O_R   0.032920 0.562940 0.138050 -0.539687
O16   O     O_R   0.967080 0.062940 0.861950 -0.539687
O17   O     O_R   0.084790 0.730500 0.002090 -0.536812
O18   O     O_R   0.915210 0.230500 0.997910 -0.536812
C51   C     C_R   0.044028 0.394216 0.174291 0.691920
C52   C     C_R   0.955972 0.894216 0.825709 0.691919
O19   O     O_3   0.016820 0.396170 0.955260 -0.378839
O20   O     O_3   0.983180 0.896170 0.044740 -0.378839
V3    V     V_3+5 0.996880 0.672090 0.008300 1.409585
V4    V     V_3+5 0.003120 0.172090 0.991700 1.409585
C53   C     C_3   0.767275 0.973274 0.287500 -0.353801
C54   C     C_3   0.777417 0.817121 0.223803 -0.317731
C55   C     C_3   0.754214 0.876881 0.122226 -0.773933
H25   H     H_    0.702046 0.907286 0.100979 0.234061
H26   H     H_    0.781186 0.001355 0.113216 0.245222
H27   H     H_    0.763254 0.766239 0.077012 0.202473
H28   H     H_    0.829179 0.782804 0.241428 0.188598
H29   H     H_    0.752055 0.688989 0.232814 0.190968
H30   H     H_    0.718608 0.033341 0.262271 0.178049
H31   H     H_    0.798665 0.091294 0.282178 0.167836
C56   C     C_3   0.232725 0.473273 0.712500 -0.353802
C57   C     C_3   0.222583 0.317120 0.776196 -0.317729
C58   C     C_3   0.245785 0.376880 0.877774 -0.773934
H32   H     H_    0.297953 0.407286 0.899021 0.234060
H33   H     H_    0.218813 0.501354 0.886783 0.245221
H34   H     H_    0.236746 0.266238 0.922987 0.202473
H35   H     H_    0.170820 0.282802 0.758571 0.188598
H36   H     H_    0.247945 0.188988 0.767185 0.190968
H37   H     H_    0.281391 0.533341 0.737729 0.178048
H38   H     H_    0.201334 0.591293 0.717822 0.167836
C59   C     C_3   0.991808 0.883824 0.510203 -0.377874
C60   C     C_3   0.064271 0.882059 0.562133 -0.332444
C61   C     C_3   0.103605 0.883160 0.493568 -0.723094
H39   H     H_    0.090872 0.763468 0.445539 0.237588
H40   H     H_    0.094408 0.011192 0.451172 0.236574
H41   H     H_    0.155442 0.875937 0.532551 0.218903
H42   H     H_    0.077721 0.005634 0.607714 0.187664
H43   H     H_    0.077162 0.756986 0.606648 0.187276
H44   H     H_    0.980269 0.763732 0.462744 0.180590
H45   H     H_    0.981704 0.005683 0.463995 0.182507
C62   C     C_3   0.008191 0.383824 0.489797 -0.377874
C63   C     C_3   0.935728 0.382059 0.437867 -0.332443
C64   C     C_3   0.896395 0.383160 0.506432 -0.723094
H46   H     H_    0.909128 0.263468 0.554461 0.237588
H47   H     H_    0.905592 0.511192 0.548828 0.236574
H48   H     H_    0.844557 0.375937 0.467448 0.218903
H49   H     H_    0.922278 0.505634 0.392286 0.187664
H50   H     H_    0.922838 0.256986 0.393352 0.187276
H51   H     H_    0.019730 0.263732 0.537256 0.180590
H52   H     H_    0.018296 0.505683 0.536005 0.182507

loop_
_geom_bond_atom_site_label_1
_geom_bond_atom_site_label_2
_ccdc_geom_bond_type
C18   C20   A    
C43   C45   A    
C22   H20   S    
C53   C54   S    
C56   C57   S    
C14   C22   A    
C59   H45   S    
C33   H9    S    
C2    O7    A    
C38   H16   S    
C61   H39   S    
C27   C29   A    
O5    C3    A    
C13   C19   A    
C14   C20   A    
C19   H17   S    
C56   H37   S    
C49   O18   A    
C57   H35   S    
C16   C46   A    
C61   H40   S    
C15   C45   A    
C38   C40   A    
C46   H14   S    
C1    C16   S    
O16   C52   A    
C45   H13   S    
C2    C15   S    
C40   C42   A    
C60   H42   S    
C44   H24   S    
C62   H52   S    
C8    H4    S    
C24   C26   A    
C63   C64   S    
C29   C31   A    
C6    C10   S    
C64   H48   S    
C30   C32   A    
C54   H29   S    
C15   C47   A    
C35   H21   S    
O17   V3    S    
C47   H11   S    
O6    C4    A    
C58   H34   S    
C28   C30   A    
O2    C4    A    
O6    V2    S    
C64   H47   S    
C21   C23   A    
C22   C24   A    
C57   C58   S    
C32   C34   A    
O13   V3    S    
C9    H5    S    
C39   C41   A    
C29   C41   A    
C4    C11   S    
C11   H7    S    
C12   H8    S    
C14   C51   S    
O4    C2    A    
C61   H41   S    
C32   C56   S    
C53   H31   S    
O15   C51   A    
C5    H1    S    
C43   H23   S    
C56   H38   S    
C31   C33   A    
C44   C46   A    
O4    V2    S    
C7    H3    S    
O2    V1    S    
C41   C47   A    
C34   H10   S    
O18   V4    S    
C48   H12   S    
C26   C34   A    
C54   H28   S    
C55   H26   S    
O1    V2    S    
O12   V3    S    
C23   C25   A    
C59   C60   S    
O14   V4    S    
O12   C52   A    
C17   C59   S    
O14   C50   A    
C10   H6    S    
O13   C49   A    
C64   H46   S    
C30   C42   A    
C20   H18   S    
C37   C39   A    
C31   C53   S    
C17   C25   A    
C62   C63   S    
C13   C52   S    
O19   V4    S    
O3    V1    S    
O16   V4    S    
C50   O17   A    
C27   C35   A    
C58   H32   S    
C63   H50   S    
C28   C36   A    
C6    H2    S    
C10   C12   D    
C59   H44   S    
O3    C1    A    
C21   H19   S    
C16   C48   A    
C36   H22   S    
C9    C11   D    
C8    C49   S    
C39   C43   A    
C42   C48   A    
C40   C44   A    
C13   C21   A    
C18   C62   S    
C37   H15   S    
C35   C37   A    
C63   H49   S    
C5    C9    S    
C1    O8    A    
C17   C19   A    
O11   V4    S    
O8    V2    S    
C57   H36   S    
O11   C51   A    
C23   C27   A    
C3    C12   S    
O5    V1    S    
C5    C7    D    
C36   C38   A    
C55   H27   S    
C6    C8    D    
C60   H43   S    
C54   C55   S    
C18   C26   A    
C62   H51   S    
C25   C33   A    
O20   V3    S    
O9    V2    S    
C55   H25   S    
C7    C50   S    
O10   V1    S    
O1    C3    A    
O15   V3    S    
C60   C61   S    
C53   H30   S    
C24   C28   A    
O7    V1    S    
C58   H33   S    
