data_str_m9_o16_o23_f0_sra.sym.51
_audit_creation_date              2012-12-11T15:12:45-0500
_audit_creation_method            fapswitch 2.2
_symmetry_space_group_name_H-M    P1
_symmetry_Int_Tables_number       1
_space_group_crystal_system       triclinic
_cell_length_a                    22.279613
_cell_length_b                    7.024078
_cell_length_c                    19.372121
_cell_angle_alpha                 89.999981
_cell_angle_beta                  99.305986
_cell_angle_gamma                 90.000311
_cell_volume                      2991.71604077

loop_
_atom_site_label
_atom_site_type_symbol
_atom_type_description
_atom_site_fract_x
_atom_site_fract_y
_atom_site_fract_z
_atom_type_partial_charge
O1    O     O_R   0.448420 0.506120 0.415750 -0.535524
O2    O     O_R   0.551580 0.006120 0.584250 -0.535520
O3    O     O_R   0.436490 0.174470 0.555610 -0.530526
O4    O     O_R   0.563510 0.674470 0.444390 -0.530530
C1    C     C_R   0.421102 0.345669 0.575353 0.693844
C2    C     C_R   0.578899 0.845669 0.424647 0.693837
O5    O     O_R   0.441310 0.176330 0.414520 -0.539138
O6    O     O_R   0.558690 0.676330 0.585480 -0.539137
O7    O     O_R   0.556430 0.007110 0.442150 -0.530503
O8    O     O_R   0.443570 0.507110 0.557850 -0.530504
C3    C     C_R   0.427064 0.344979 0.388478 0.710676
C4    C     C_R   0.572936 0.844980 0.611522 0.710687
O9    O     O_3   0.537770 0.339560 0.509230 -0.365344
O10   O     O_3   0.462230 0.839560 0.490770 -0.365347
V1    V     V_3+5 0.492990 0.064280 0.498290 1.469483
V2    V     V_3+5 0.507010 0.564280 0.501710 1.469477
C5    C     C_R   0.868521 0.968336 0.694689 0.441378
C6    C     C_R   0.131481 0.468381 0.305309 0.441368
H1    H     H_    0.955942 0.989184 0.760191 0.139527
H2    H     H_    0.044060 0.489222 0.239807 0.139527
H3    H     H_    0.784698 0.950336 0.579069 0.208682
H4    H     H_    0.215305 0.450415 0.420928 0.208698
C7    C     C_R   0.884950 0.941141 0.821265 -0.110438
C8    C     C_R   0.115051 0.441147 0.178734 -0.110432
C9    C     C_R   0.589401 0.828179 0.739854 -0.283527
C10   C     C_R   0.410597 0.328139 0.260146 -0.283498
C11   C     C_R   0.626174 0.826996 0.806057 0.522867
C12   C     C_R   0.373823 0.326947 0.193945 0.522821
C13   C     C_R   0.688700 0.858220 0.810943 -0.204223
C14   C     C_R   0.311299 0.358193 0.189057 -0.204258
C15   C     C_R   0.716651 0.882536 0.750885 0.025715
C16   C     C_R   0.283349 0.382536 0.249114 0.025724
C17   C     C_R   0.678546 0.879427 0.683964 0.060879
C18   C     C_R   0.321454 0.379441 0.316035 0.060877
C19   C     C_R   0.781104 0.910171 0.755155 0.050014
C20   C     C_R   0.218897 0.410181 0.244843 0.050009
C21   C     C_R   0.805546 0.936275 0.692245 0.019431
C22   C     C_R   0.194456 0.436312 0.307754 0.019438
C23   C     C_R   0.766928 0.931561 0.627475 -0.138211
C24   C     C_R   0.233075 0.431616 0.372523 -0.138197
C25   C     C_R   0.704768 0.903415 0.623359 -0.179187
C26   C     C_R   0.295234 0.403459 0.376640 -0.179198
C27   C     C_R   0.822336 0.912545 0.819537 -0.211874
C28   C     C_R   0.177665 0.412539 0.180462 -0.211881
C29   C     C_R   0.907587 0.968121 0.758988 -0.222704
C30   C     C_R   0.092415 0.468152 0.241010 -0.222693
C31   C     C_R   0.614774 0.852415 0.679062 -0.137153
C32   C     C_R   0.385226 0.352410 0.320937 -0.137169
H5    H     H_    0.807523 0.893070 0.869306 0.119955
H6    H     H_    0.192476 0.393043 0.130694 0.119952
H7    H     H_    0.540580 0.812177 0.735219 0.115016
H8    H     H_    0.459418 0.312120 0.264778 0.115015
H9    H     H_    0.714191 0.861561 0.863114 0.148115
H10   H     H_    0.285808 0.361525 0.136886 0.148108
H11   H     H_    0.677249 0.901405 0.571884 0.117387
H12   H     H_    0.322753 0.401463 0.428114 0.117396
C33   C     C_3   0.813476 0.782273 0.272978 0.184448
C34   C     C_3   0.186519 0.282285 0.727016 0.184445
C35   C     C_3   0.779112 0.115907 0.232460 0.199624
C36   C     C_3   0.220882 0.615916 0.767531 0.199636
C37   C     C_3   0.731537 0.111747 0.285508 0.175770
C38   C     C_3   0.268461 0.611753 0.714487 0.175756
H13   H     H_    0.781880 0.791523 0.375401 0.248369
H14   H     H_    0.218122 0.291511 0.624596 0.248368
H15   H     H_    0.822876 0.173527 0.259416 0.207729
H16   H     H_    0.177118 0.673524 0.740569 0.207733
H17   H     H_    0.691127 0.196356 0.263159 0.134363
H18   H     H_    0.308870 0.696365 0.736837 0.134343
C39   C     C_1   0.624845 0.862888 0.379768 -0.135241
C40   C     C_1   0.375155 0.362887 0.620232 -0.135212
C41   C     C_3   0.791570 0.910855 0.207817 -0.124406
C42   C     C_3   0.208425 0.410866 0.792177 -0.124378
C43   C     C_3   0.763141 0.768999 0.319577 -0.276583
C44   C     C_3   0.236858 0.268997 0.680422 -0.276611
C45   C     C_3   0.708573 0.902789 0.293641 -0.069065
C46   C     C_3   0.291426 0.402794 0.706357 -0.069033
C47   C     C_3   0.679429 0.838354 0.218838 0.294046
C48   C     C_3   0.320569 0.338380 0.781162 0.294040
C49   C     C_3   0.729356 0.826462 0.170943 -0.379542
C50   C     C_3   0.270639 0.326474 0.829053 -0.379627
C51   C     C_1   0.662587 0.884983 0.341613 0.133313
C52   C     C_1   0.337413 0.384983 0.658387 0.133374
C53   C     C_1   0.837827 0.916397 0.159687 0.196024
C54   C     C_1   0.162170 0.416404 0.840309 0.196059
C55   C     C_1   0.875470 0.932894 0.121012 -0.059563
C56   C     C_1   0.124528 0.432896 0.878986 -0.059582
H19   H     H_    0.735826 0.678394 0.156303 0.285000
H20   H     H_    0.264169 0.178402 0.843688 0.285002
H21   H     H_    0.711894 0.896063 0.120561 0.196604
H22   H     H_    0.288097 0.396069 0.879438 0.196598
H23   H     H_    0.820128 0.636911 0.254124 0.181427
H24   H     H_    0.179860 0.136927 0.745870 0.181452
H25   H     H_    0.745418 0.621633 0.316585 0.234768
H26   H     H_    0.254581 0.121631 0.683422 0.234769
H27   H     H_    0.646420 0.951817 0.196988 0.027176
H28   H     H_    0.353574 0.451858 0.803009 0.027167
O11   O     O_R   0.056480 0.288780 0.942210 -0.541309
O12   O     O_R   0.943520 0.788780 0.057790 -0.541304
O13   O     O_R   0.058700 0.616820 0.085490 -0.539911
O14   O     O_R   0.941300 0.116820 0.914510 -0.539916
C57   C     C_R   0.072867 0.448524 0.111700 0.719422
C58   C     C_R   0.927133 0.948523 0.888300 0.719419
O15   O     O_R   0.063520 0.618570 0.944410 -0.522535
O16   O     O_R   0.936480 0.118570 0.055590 -0.522543
O17   O     O_R   0.948420 0.787670 0.915740 -0.534979
O18   O     O_R   0.051580 0.287670 0.084260 -0.534981
C59   C     C_R   0.078890 0.448857 0.924364 0.707434
C60   C     C_R   0.921110 0.948856 0.075635 0.707455
O19   O     O_3   0.962260 0.453430 0.990800 -0.368081
O20   O     O_3   0.037740 0.953430 0.009200 -0.368079
V3    V     V_3+5 0.007000 0.728750 0.001710 1.506067
V4    V     V_3+5 0.993000 0.228750 0.998290 1.506043
S1    S     S_3+6 0.886918 0.839543 0.323541 0.079976
O21   O     O_2   0.885441 0.025038 0.361605 -0.229044
O22   O     O_2   0.904261 0.685116 0.376750 -0.255923
O23   O     O_3   0.940608 0.851740 0.271900 -0.509570
H29   H     H_    0.944607 0.719868 0.255075 0.323629
S2    S     S_3+6 0.113082 0.339586 0.676447 0.079959
O24   O     O_2   0.114594 0.524963 0.638317 -0.228977
O25   O     O_2   0.095704 0.185048 0.623292 -0.255974
O26   O     O_3   0.059398 0.352076 0.728088 -0.509545
H30   H     H_    0.055330 0.220229 0.744905 0.323614
S3    S     S_3+6 0.757722 0.272112 0.156959 -0.050185
O27   O     O_2   0.805035 0.424853 0.160283 -0.355246
O28   O     O_2   0.756713 0.174028 0.087789 -0.345649
O29   O     O_3   0.688595 0.366972 0.156083 -0.495403
H31   H     H_    0.659549 0.267507 0.135614 0.324624
S4    S     S_3+6 0.242269 0.772128 0.843030 -0.050188
O30   O     O_2   0.194955 0.924863 0.839705 -0.355232
O31   O     O_2   0.243279 0.674046 0.912201 -0.345649
O32   O     O_3   0.311394 0.866996 0.843908 -0.495426
H32   H     H_    0.340440 0.767503 0.864352 0.324581
S5    S     S_3+6 0.757583 0.229907 0.368426 0.025016
O33   O     O_2   0.774444 0.091598 0.427482 -0.315320
O34   O     O_2   0.811538 0.354780 0.363761 -0.292785
O35   O     O_3   0.700117 0.365698 0.387150 -0.517735
H33   H     H_    0.717514 0.438027 0.429597 0.355389
S6    S     S_3+6 0.242424 0.729913 0.631567 0.025022
O36   O     O_2   0.225576 0.591600 0.572509 -0.315323
O37   O     O_2   0.188464 0.854770 0.636221 -0.292764
O38   O     O_3   0.299890 0.865721 0.612856 -0.517738
H34   H     H_    0.282499 0.938033 0.570403 0.355388
O39   O     O_3   0.650697 0.658846 0.222293 -0.505357
C61   C     C_3   0.592105 0.658573 0.181632 -0.113769
H35   H     H_    0.594259 0.693106 0.126021 0.134026
H36   H     H_    0.561550 0.759663 0.203380 0.089880
H37   H     H_    0.572357 0.513988 0.183309 0.151474
O40   O     O_3   0.349313 0.158891 0.777714 -0.505372
C62   C     C_3   0.407868 0.158582 0.818460 -0.113752
H38   H     H_    0.405647 0.193058 0.874061 0.134075
H39   H     H_    0.438458 0.259696 0.796781 0.089892
H40   H     H_    0.427621 0.014001 0.816796 0.151438
O41   O     O_3   0.892691 0.988594 0.633655 -0.540737
C63   C     C_3   0.903007 0.183763 0.623173 -0.025217
H41   H     H_    0.860132 0.267426 0.619458 0.107420
H42   H     H_    0.920201 0.200687 0.572883 0.232054
H43   H     H_    0.938145 0.242133 0.665197 0.147827
O42   O     O_3   0.107313 0.488656 0.366343 -0.540740
C64   C     C_3   0.096988 0.683824 0.376810 -0.025232
H44   H     H_    0.139856 0.767513 0.380509 0.107403
H45   H     H_    0.079799 0.700765 0.427102 0.232055
H46   H     H_    0.061840 0.742148 0.334786 0.147922
O43   O     O_3   0.602720 0.810521 0.868123 -0.545263
C65   C     C_3   0.557644 0.667664 0.863847 -0.234308
H47   H     H_    0.569859 0.538012 0.835977 0.133560
H48   H     H_    0.512802 0.724476 0.838996 0.120260
H49   H     H_    0.553046 0.623673 0.917742 0.171370
O44   O     O_3   0.397282 0.310445 0.131885 -0.545282
C66   C     C_3   0.442289 0.167376 0.136148 -0.234330
H50   H     H_    0.430001 0.037752 0.163982 0.133595
H51   H     H_    0.487154 0.223953 0.161030 0.120261
H52   H     H_    0.446883 0.123420 0.082249 0.171374

loop_
_geom_bond_atom_site_label_1
_geom_bond_atom_site_label_2
_ccdc_geom_bond_type
C2    C39   S    
C22   C24   A    
O29   H31   S    
C7    C29   A    
C11   C13   A    
C43   C45   S    
C66   H50   S    
C44   H26   S    
C56   C59   S    
O1    C3    A    
C50   H22   S    
C43   H25   S    
C5    O41   S    
S4    O30   D    
C2    O7    A    
C49   H19   S    
C37   S5    S    
S3    O27   D    
C23   C25   A    
O18   V4    S    
C37   C45   S    
O5    C3    A    
C14   H10   S    
C44   C46   S    
C16   C20   A    
O15   V3    S    
C65   H47   S    
C19   C21   A    
C5    C29   A    
O19   V3    S    
C48   C50   S    
S3    O28   D    
C7    C58   S    
C36   C42   S    
O39   C61   S    
C34   S2    S    
O12   C60   A    
O23   H29   S    
C58   O17   A    
C36   C38   S    
C8    C57   S    
C33   C43   S    
O20   V3    S    
C25   H11   S    
O20   V4    S    
C11   O43   S    
S2    O24   D    
O43   C65   S    
C48   H28   S    
C18   C26   A    
S5    O35   S    
C15   C17   A    
C55   C60   S    
C19   C27   A    
C9    C31   A    
C63   H42   S    
C48   O40   S    
S1    O23   S    
C26   H12   S    
C24   C26   A    
O17   V3    S    
O2    C4    A    
O6    V2    S    
C13   C15   A    
C66   H51   S    
C62   H39   S    
C61   H37   S    
C3    C32   S    
C4    C31   S    
C6    C30   A    
C41   C49   S    
C41   C53   S    
C47   C49   S    
C35   S3    S    
C35   C37   S    
C36   S4    S    
C39   C51   T    
O40   C62   S    
C63   H43   S    
C61   H36   S    
O19   V4    S    
C46   C52   S    
O16   V4    S    
O11   V4    S    
H4    C24   S    
C45   C51   S    
S3    O29   S    
C33   S1    S    
O5    V1    S    
H13   C43   S    
C47   H27   S    
C38   S6    S    
C42   C50   S    
S2    O26   S    
C16   C18   A    
O4    V2    S    
C47   O39   S    
C1    C40   S    
C6    O42   S    
C10   H8    S    
C37   H17   S    
C64   H44   S    
H3    C23   S    
O6    C4    A    
O13   V3    S    
O14   C58   A    
O26   H30   S    
C64   H46   S    
O1    V2    S    
C5    C21   A    
C33   C41   S    
O2    V1    S    
C45   C47   S    
C63   H41   S    
C42   C54   S    
S6    O37   D    
C33   H23   S    
O4    C2    A    
O44   C66   S    
C53   C55   T    
O14   V4    S    
O9    V1    S    
O42   C64   S    
C17   C31   A    
C66   H52   S    
O10   V2    S    
C62   H40   S    
C18   C32   A    
O32   H32   S    
S4    O32   S    
O16   C60   A    
O3    V1    S    
C34   C44   S    
S1    O21   D    
C28   H6    S    
C57   O18   A    
O12   V3    S    
C38   C46   S    
O13   C57   A    
C7    C27   A    
C65   H49   S    
C27   H5    S    
C46   C48   S    
O35   H33   S    
O3    C1    A    
S6    O38   S    
S4    O31   D    
H1    C29   S    
C10   C32   A    
C9    C11   A    
C10   C12   A    
C9    H7    S    
C38   H18   S    
C61   H35   S    
C8    C30   A    
C65   H48   S    
C64   H45   S    
O7    V1    S    
C17   C25   A    
C1    O8    A    
C21   C23   A    
O8    V2    S    
O38   H34   S    
C35   H15   S    
C20   C22   A    
C14   C16   A    
C34   C42   S    
S5    O33   D    
C13   H9    S    
C8    C28   A    
C12   C14   A    
C15   C19   A    
C6    C22   A    
C40   C52   T    
S2    O25   D    
C49   H21   S    
C20   C28   A    
S6    O36   D    
C12   O44   S    
C36   H16   S    
O11   C59   A    
C50   H20   S    
O9    V2    S    
S5    O34   D    
H14   C44   S    
O10   V1    S    
C54   C56   T    
O15   C59   A    
O41   C63   S    
C62   H38   S    
C34   H24   S    
H2    C30   S    
C35   C41   S    
S1    O22   D    
