data_str_m2_o14_o22_f0_pcu.sym.239
_audit_creation_date              2013-03-05T15:51:23-0500
_audit_creation_method            fapswitch 2.2
_symmetry_space_group_name_H-M    P1
_symmetry_Int_Tables_number       1
_space_group_crystal_system       triclinic
_cell_length_a                    10.790703
_cell_length_b                    10.888802
_cell_length_c                    9.577223
_cell_angle_alpha                 90.69431
_cell_angle_beta                  90.447178
_cell_angle_gamma                 92.830188
_cell_volume                      1123.80802639

loop_
_atom_site_label
_atom_site_type_symbol
_atom_site_description
_atom_site_fract_x
_atom_site_fract_y
_atom_site_fract_z
_atom_type_partial_charge
O1    O     O_R   0.499990 0.319640 0.618810 -0.595018
O2    O     O_R   0.500000 0.319660 0.381240 -0.514136
C1    C     C_R   0.510710 0.263030 0.499064 0.815852
O3    O     O_R   0.317680 0.499970 0.618790 -0.591933
O4    O     O_R   0.317700 0.499990 0.381210 -0.588650
C2    C     C_R   0.259920 0.501354 0.500352 0.762636
Cu1   Cu    Cu3+1 0.499990 0.499990 0.640660 0.919038
Cu2   Cu    Cu3+1 0.500010 0.500010 0.359340 0.970381
O5    O     O_R   0.500000 0.680340 0.618760 -0.609748
O6    O     O_R   0.500010 0.680360 0.381190 -0.603342
O7    O     O_R   0.682300 0.500010 0.618790 -0.602162
O8    O     O_R   0.682320 0.500030 0.381210 -0.595125
C3    C     C_R   0.493057 0.737479 0.501736 0.823624
C4    C     C_R   0.739309 0.491165 0.501488 0.768686
C5    C     C_3   0.073005 0.460608 0.653422 0.038691
H1    H     H_    0.120530 0.376691 0.685524 0.134115
C6    C     C_3   0.931887 0.424317 0.641263 -0.003292
H2    H     H_    0.924865 0.323339 0.619311 0.142644
H3    H     H_    0.119369 0.700743 0.536432 0.173243
H4    H     H_    0.908898 0.677470 0.588027 0.213547
C7    C     C_3   0.073077 0.627116 0.470330 -0.374962
C8    C     C_3   0.067057 0.406290 0.391699 -0.451760
C9    C     C_3   0.121728 0.499406 0.504270 0.093035
H5    H     H_    0.108449 0.424577 0.287483 0.199611
H6    H     H_    0.089245 0.311159 0.420812 0.171458
C10   C     C_3   0.877315 0.488970 0.506826 0.100174
C11   C     C_3   0.931049 0.623862 0.493091 -0.359251
C12   C     C_3   0.924800 0.415538 0.379393 -0.422505
H7    H     H_    0.879241 0.321598 0.374201 0.183361
H8    H     H_    0.902026 0.462274 0.280278 0.209893
H9    H     H_    0.094058 0.650366 0.359854 0.182143
H10   H     H_    0.887000 0.669701 0.403440 0.159454
C13   C     C_R   0.601020 0.124274 0.741623 -0.123894
H11   H     H_    0.651180 0.211909 0.733934 0.141430
C14   C     C_R   0.599434 0.067196 0.870573 -0.020345
H12   H     H_    0.645919 0.111911 0.958765 0.197465
C15   C     C_R   0.535242 0.954562 0.885606 -0.068333
H13   H     H_    0.526569 0.913398 0.987610 0.161580
C16   C     C_R   0.486927 0.892057 0.767964 -0.160079
H14   H     H_    0.434333 0.807091 0.786185 0.163944
C17   C     C_R   0.504461 0.941393 0.632767 0.121139
C18   C     C_R   0.543030 0.066437 0.623835 0.055844
C19   C     C_R   0.524493 0.128889 0.497228 -0.245411
C20   C     C_R   0.502057 0.059782 0.372857 0.357201
H15   H     H_    0.475893 0.881558 0.281397 0.190610
C21   C     C_R   0.486726 0.932847 0.378818 -0.276331
C22   C     C_R   0.488190 0.871999 0.506539 -0.169777
H16   H     H_    0.360314 0.359519 0.126204 0.161477
C23   C     C_R   0.664919 0.664212 0.147647 -0.231538
H17   H     H_    0.673601 0.671309 0.257795 0.220827
C24   C     C_R   0.744635 0.745521 0.077562 -0.295792
H18   H     H_    0.806360 0.807743 0.137590 0.200095
C25   C     C_R   0.743981 0.748192 0.932879 0.321523
C26   C     C_R   0.662675 0.666375 0.859471 -0.277881
H19   H     H_    0.669529 0.670735 0.749540 0.243519
C27   C     C_R   0.580260 0.581655 0.927075 0.142686
C28   C     C_R   0.580759 0.581104 0.076560 0.224779
N1    N     N_R   0.501200 0.501210 0.147910 -0.195322
C29   C     C_R   0.423230 0.422737 0.072208 0.007722
H20   H     H_    0.360686 0.359224 0.867272 0.149412
C30   C     C_R   0.423435 0.422597 0.924142 -0.049939
N2    N     N_R   0.501250 0.501290 0.852040 -0.199979
C31   C     C_3   0.102228 0.560802 0.769735 -0.782049
H21   H     H_    0.034501 0.634012 0.768930 0.252549
H22   H     H_    0.100280 0.517834 0.874363 0.217644
H23   H     H_    0.194140 0.609460 0.760991 0.242545
N3    N     N_R   0.502966 0.115678 0.238262 0.115279
O9    O     O_R   0.413928 0.088701 0.149044 -0.409323
O10   O     O_R   0.601663 0.178395 0.197624 -0.394568
N4    N     N_R   0.824702 0.834798 0.860182 0.117039
O11   O     O_R   0.911955 0.898500 0.927139 -0.364183
O12   O     O_R   0.808066 0.855082 0.727867 -0.409611
C32   C     C_3   0.865961 0.433446 0.783616 -0.808117
H24   H     H_    0.851338 0.530054 0.812505 0.256737
H25   H     H_    0.776729 0.379068 0.784047 0.242264
H26   H     H_    0.922207 0.392002 0.866678 0.227465

loop_
_geom_bond_atom_site_label_1
_geom_bond_atom_site_label_2
_geom_bond_distance
_ccdc_geom_bond_type
C24   C25   1.386296 A    
C31   H22   1.110922 S    
C32   H24   1.103659 S    
C14   H12   1.077675 S    
Cu1   Cu2   2.694269 S    
C16   C17   1.418299 A    
H15   C21   1.084125 S    
Cu1   O7    1.979986 S    
C7    H9    1.113278 S    
C1    C19   1.475379 S    
C10   C11   1.559704 S    
C6    C10   1.597238 S    
C12   H7    1.113201 S    
H3    C7    1.111873 S    
O4    C2    1.304821 A    
O7    C4    1.289889 A    
C5    H1    1.114932 S    
C23   C28   1.414725 A    
C27   C28   1.431709 A    
Cu1   O5    1.977486 S    
C17   C18   1.407779 A    
O5    C3    1.291906 A    
Cu2   N1    2.025250 S    
C21   C22   1.398516 A    
C23   C24   1.386555 A    
C8    H6    1.112894 S    
N4    O11   1.301580 A    
C5    C9    1.581077 S    
C7    C11   1.548421 S    
C31   H23   1.105378 S    
C8    C12   1.546982 S    
C6    C32   1.547097 S    
C32   H25   1.105235 S    
O3    Cu1   1.976735 S    
C25   N4    1.441190 S    
C20   C21   1.385819 A    
C6    H2    1.115720 S    
C26   C27   1.415462 A    
C29   C30   1.418063 A    
C24   H18   1.083143 S    
O3    C2    1.290601 A    
C16   H14   1.078005 S    
C3    C22   1.468469 S    
N1    C29   1.366790 A    
C25   C26   1.398457 A    
N3    O9    1.301045 A    
H20   C30   1.081803 S    
O1    C1    1.304058 A    
C19   C20   1.414009 A    
Cu1   N2    2.024247 S    
C15   H13   1.082561 S    
Cu2   O8    1.976735 S    
C13   H11   1.077165 S    
C17   C22   1.422924 A    
C4    C10   1.491042 S    
O8    C4    1.308406 A    
C7    C9    1.547725 S    
C32   H26   1.110431 S    
C27   N2    1.382241 A    
C18   C19   1.415049 A    
C13   C18   1.411944 A    
H16   C29   1.081734 S    
C5    C6    1.557313 S    
C26   H19   1.057484 S    
C14   C15   1.388039 A    
C11   H10   1.113429 S    
O1    Cu1   1.972390 S    
O2    Cu2   1.977486 S    
O6    C3    1.309153 A    
O4    Cu2   1.979986 S    
H4    C11   1.108544 S    
C10   C12   1.554977 S    
C12   H8    1.113934 S    
O2    C1    1.299539 A    
C15   C16   1.393426 A    
C28   N1    1.382238 A    
C2    C9    1.491061 S    
C13   C14   1.389115 A    
C8    H5    1.112803 S    
C30   N2    1.366918 A    
C31   H21   1.107809 S    
Cu2   O6    1.972390 S    
C23   H17   1.059876 S    
C5    C31   1.568980 S    
C8    C9    1.562980 S    
C20   N3    1.432065 S    
N4    O12   1.301525 A    
N3    O10   1.301225 A    
