data_str_m3_o10_o17_f0_pcu.sym.36
_audit_creation_date              2012-12-10T16:52:08-0500
_audit_creation_method            fapswitch 2.2
_symmetry_space_group_name_H-M    P1
_symmetry_Int_Tables_number       1
_space_group_crystal_system       triclinic
_cell_length_a                    7.768079
_cell_length_b                    8.549759
_cell_length_c                    14.879054
_cell_angle_alpha                 90.905448
_cell_angle_beta                  86.046384
_cell_angle_gamma                 93.720831
_cell_volume                      983.701923802

loop_
_atom_site_label
_atom_site_type_symbol
_atom_type_description
_atom_site_fract_x
_atom_site_fract_y
_atom_site_fract_z
_atom_type_partial_charge
C1    C     C_R   0.545819 0.794718 0.497607 0.976715
C2    C     C_R   0.557404 0.640489 0.812031 0.047606
C3    C     C_R   0.491347 0.497583 0.232469 -0.103307
C4    C     C_R   0.508364 0.501609 0.767547 -0.064067
C5    C     C_R   0.539917 0.635994 0.187514 -0.242499
C6    C     C_R   0.458037 0.363821 0.812663 -0.274098
C7    C     C_R   0.543198 0.639199 0.094388 0.031679
C8    C     C_R   0.454637 0.361004 0.905747 0.037399
C9    C     C_R   0.496630 0.499741 0.046946 -0.046426
C10   C     C_R   0.501807 0.500652 0.953028 -0.026058
C11   C     C_R   0.446117 0.359013 0.093560 0.073557
C12   C     C_R   0.454172 0.205283 0.502273 0.946200
C13   C     C_R   0.553289 0.641265 0.906286 0.040160
C14   C     C_R   0.595231 0.778379 0.048326 0.467036
C15   C     C_R   0.402084 0.221952 0.951955 0.440300
C16   C     C_3   0.805480 0.968615 0.078301 0.077118
C17   C     C_3   0.852526 0.098391 0.145065 -0.812751
C18   C     C_3   0.190500 0.032120 0.923429 0.076270
C19   C     C_3   0.142585 0.899340 0.858750 -0.832618
C20   C     C_R   0.597073 0.778848 0.954512 -0.315929
C21   C     C_R   0.401745 0.221490 0.045692 -0.281852
C22   C     C_2   0.569932 0.958303 0.496117 -0.375814
C23   C     C_2   0.430042 0.041697 0.503541 -0.379722
C24   C     C_R   0.502536 0.500146 0.672602 0.922786
C25   C     C_R   0.497362 0.499366 0.327403 0.870663
C26   C     C_R   0.443318 0.358409 0.187355 0.048492
H1    H     H_    0.576865 0.740374 0.225903 0.184281
H2    H     H_    0.288112 0.236456 0.280731 0.184115
H3    H     H_    0.734343 0.816946 0.774173 0.182333
H4    H     H_    0.524550 0.865863 0.778421 0.225304
H5    H     H_    0.826637 0.017649 0.009399 0.138045
H6    H     H_    0.893370 0.872142 0.085675 0.136973
H7    H     H_    0.830781 0.054449 0.215047 0.253868
H8    H     H_    0.990856 0.138671 0.132622 0.202377
H9    H     H_    0.771986 0.199249 0.137144 0.266359
H10   H     H_    0.102580 0.128128 0.914902 0.139420
H11   H     H_    0.170002 0.986004 0.993023 0.141573
H12   H     H_    0.420344 0.259522 0.774390 0.182340
H13   H     H_    0.223530 0.799151 0.867804 0.266855
H14   H     H_    0.004556 0.859152 0.872434 0.197059
H15   H     H_    0.162844 0.940187 0.788091 0.256457
H16   H     H_    0.631215 0.888090 0.920195 0.185240
H17   H     H_    0.368127 0.112611 0.080669 0.213127
H18   H     H_    0.701991 0.009521 0.488976 0.179192
H19   H     H_    0.297981 0.990481 0.510653 0.181254
H20   H     H_    0.013669 0.382756 0.432088 0.189639
H21   H     H_    0.986336 0.617249 0.567907 0.196147
H22   H     H_    0.497591 0.189338 0.273576 0.195156
N1    N     N_2   0.950330 0.457950 0.475660 -0.173497
N2    N     N_2   0.049670 0.542050 0.524340 -0.172648
N3    N     N_3   0.394689 0.216673 0.236147 -0.457095
N4    N     N_3   0.608493 0.778300 0.760123 -0.476040
O1    O     O_R   0.389250 0.738570 0.505970 -0.612569
O2    O     O_3   0.365299 0.084328 0.904380 -0.627602
O3    O     O_R   0.610750 0.261430 0.494030 -0.615440
O4    O     O_R   0.678390 0.711620 0.490370 -0.629575
O5    O     O_R   0.321610 0.288380 0.509630 -0.634630
O6    O     O_R   0.355420 0.513510 0.639950 -0.617051
O7    O     O_R   0.644580 0.486490 0.360050 -0.615984
O8    O     O_R   0.644560 0.486560 0.624350 -0.618818
O9    O     O_R   0.355440 0.513440 0.375650 -0.625297
O10   O     O_3   0.630467 0.916077 0.096112 -0.614673
Zn1   Zn    Zn3+2 0.306940 0.517990 0.510420 0.945740
Zn2   Zn    Zn3+2 0.693060 0.482010 0.489580 0.947227

loop_
_geom_bond_atom_site_label_1
_geom_bond_atom_site_label_2
_ccdc_geom_bond_type
C20   H16   S    
C6    H12   S    
C11   C26   A    
C23   H19   S    
C8    C15   A    
C9    C11   A    
C9    C10   A    
C5    H1    S    
C2    C4    A    
C12   C23   S    
C2    N4    S    
C15   C21   A    
O8    Zn2   S    
O3    Zn2   S    
O4    Zn2   S    
C5    C7    A    
C1    C22   S    
N1    Zn2   S    
C25   O9    A    
C26   N3    S    
C16   H5    S    
N2    Zn1   S    
O1    Zn1   S    
H20   N1    S    
O7    Zn2   S    
C17   H7    S    
C6    C8    A    
C12   O5    A    
C19   H13   S    
C4    C6    A    
C1    O4    A    
C11   C21   A    
C10   C13   A    
O5    Zn1   S    
H21   N2    S    
C7    C9    A    
C3    C26   A    
C4    C24   S    
H2    N3    S    
H22   N3    S    
C12   O3    A    
C16   H6    S    
C17   H8    S    
C18   O2    S    
C14   O10   S    
C15   O2    S    
C14   C20   A    
C3    C25   S    
C17   H9    S    
C24   O6    A    
N1    N2    D    
C19   H14   S    
C18   H11   S    
O6    Zn1   S    
O9    Zn1   S    
C2    C13   A    
H4    N4    S    
C22   C23   D    
C18   C19   S    
C1    O1    A    
C24   O8    A    
C25   O7    A    
C13   C20   A    
C21   H17   S    
C18   H10   S    
C16   O10   S    
C7    C14   A    
C22   H18   S    
C19   H15   S    
C8    C10   A    
C16   C17   S    
C3    C5    A    
H3    N4    S    
