data_str_m12_o4_o9_f0_bcu.sym.16
_audit_creation_date              2013-03-05T15:55:04-0500
_audit_creation_method            fapswitch 2.2
_symmetry_space_group_name_H-M    P1
_symmetry_Int_Tables_number       1
_space_group_crystal_system       triclinic
_cell_length_a                    14.863624
_cell_length_b                    14.856619
_cell_length_c                    15.015691
_cell_angle_alpha                 109.189024
_cell_angle_beta                  109.925436
_cell_angle_gamma                 108.779864
_cell_volume                      2568.5451523

loop_
_atom_site_label
_atom_site_type_symbol
_atom_site_description
_atom_site_fract_x
_atom_site_fract_y
_atom_site_fract_z
_atom_type_partial_charge
C1    C     C_R   0.185608 0.278776 0.251553 0.280373
N1    N     N_R   0.291070 0.347930 0.293870 -0.111997
C2    C     C_R   0.526757 0.433581 0.747392 -0.114805
H1    H     H_    0.556488 0.377501 0.754183 0.125476
N2    N     N_R   0.554050 0.497220 0.706150 -0.052934
C3    C     C_R   0.512592 0.205047 0.411536 -0.045033
H2    H     H_    0.501780 0.162596 0.332049 0.186418
N3    N     N_R   0.497240 0.291100 0.443210 -0.062050
C4    C     C_R   0.291326 0.596398 0.590360 -0.050228
H3    H     H_    0.324993 0.655963 0.673874 0.136021
N4    N     N_R   0.347890 0.554050 0.556810 -0.056144
C5    C     C_R   0.596062 0.290246 0.591239 -0.061153
H4    H     H_    0.652099 0.320075 0.675366 0.155539
N5    N     N_R   0.554050 0.347900 0.556830 -0.066221
C6    C     C_R   0.201382 0.508324 0.410337 -0.035256
H5    H     H_    0.152892 0.489398 0.328819 0.150111
N6    N     N_R   0.291070 0.497250 0.443190 -0.069287
C7    C     C_R   0.437473 0.529522 0.752539 -0.015855
H6    H     H_    0.387581 0.565116 0.767207 0.161773
N7    N     N_R   0.497240 0.554030 0.706140 -0.056345
C8    C     C_R   0.277014 0.185963 0.252032 0.316608
N8    N     N_R   0.347890 0.291110 0.293870 -0.107163
C9    C     C_R   0.173894 0.175700 0.225687 -0.211635
C10   C     C_R   0.454381 0.452803 0.778522 0.113620
C11   C     C_R   0.572957 0.200645 0.501265 0.057958
C12   C     C_R   0.198992 0.570712 0.500072 0.031010
C13   C     C_R   0.475066 0.721264 0.407355 -0.112072
H7    H     H_    0.448305 0.697662 0.323118 0.113245
N9    N     N_R   0.445950 0.652100 0.443170 -0.053100
C14   C     C_R   0.814252 0.566425 0.593752 -0.072239
H8    H     H_    0.874589 0.614132 0.678532 0.123268
N10   N     N_R   0.708930 0.502750 0.556810 -0.052258
C15   C     C_R   0.490059 0.398227 0.195273 0.241390
N11   N     N_R   0.502760 0.445970 0.293860 -0.096902
C16   C     C_R   0.707115 0.798297 0.802827 0.264506
N12   N     N_R   0.652110 0.708890 0.706130 -0.100269
C17   C     C_R   0.800589 0.708164 0.802620 -0.193889
H9    H     H_    0.858115 0.680393 0.830078 0.175140
N13   N     N_R   0.708930 0.652070 0.706130 -0.074518
C18   C     C_R   0.404940 0.496488 0.195907 -0.163873
H10   H     H_    0.347301 0.523878 0.167669 0.148596
N14   N     N_R   0.445950 0.502780 0.293850 -0.071875
C19   C     C_R   0.564885 0.814417 0.589429 -0.039388
H11   H     H_    0.619321 0.878805 0.672808 0.132694
N15   N     N_R   0.502760 0.708900 0.556790 -0.040999
C20   C     C_R   0.724945 0.482324 0.412136 -0.016342
H12   H     H_    0.705443 0.458561 0.329112 0.123512
N16   N     N_R   0.652110 0.445950 0.443190 -0.039903
Ni1   Ni    Ni4+2 0.369690 0.500010 0.369700 0.241378
Ni2   Ni    Ni4+2 0.630310 0.499990 0.630300 0.250627
Ni3   Ni    Ni4+2 0.500000 0.369720 0.369720 0.314076
Ni4   Ni    Ni4+2 0.500000 0.630280 0.630280 0.296582
C21   C     C_R   0.549184 0.824302 0.496957 0.076381
C22   C     C_R   0.827730 0.558830 0.505240 0.008404
C23   C     C_R   0.433090 0.432346 0.133156 0.000250
C24   C     C_R   0.800059 0.799173 0.864162 -0.006300
C25   C     C_R   0.116247 0.654604 0.219542 -0.357664
H13   H     H_    0.176378 0.724175 0.225204 0.242483
C26   C     C_R   0.111204 0.663288 0.313128 0.348802
C27   C     C_R   0.032205 0.573300 0.306853 -0.363494
C28   C     C_R   0.956390 0.476384 0.204844 0.112150
C29   C     C_R   0.961624 0.471264 0.111395 0.701845
C30   C     C_R   0.041821 0.559932 0.118282 0.181985
C31   C     C_R   0.934363 0.580666 0.410592 -0.090802
H14   H     H_    0.862006 0.553530 0.336281 0.123125
C32   C     C_R   0.933199 0.608352 0.508588 0.009817
C33   C     C_R   0.034409 0.664646 0.606307 0.050739
C34   C     C_R   0.123899 0.658371 0.601720 -0.146121
H15   H     H_    0.197980 0.693500 0.677504 0.137312
C35   C     C_R   0.117596 0.606965 0.501701 0.067316
C36   C     C_R   0.027814 0.583638 0.406755 0.242953
C37   C     C_R   0.036941 0.829084 0.724409 -0.096004
H16   H     H_    0.003063 0.839784 0.654795 0.146730
C38   C     C_R   0.068367 0.908116 0.827210 -0.128495
H17   H     H_    0.058432 0.979055 0.836503 0.136844
C39   C     C_R   0.114282 0.896530 0.918044 -0.030755
H18   H     H_    0.138516 0.957676 0.997291 0.173687
C40   C     C_R   0.129498 0.806356 0.906708 -0.010479
H19   H     H_    0.165330 0.798015 0.977461 0.193153
C41   C     C_R   0.100718 0.728384 0.804382 -0.166200
H20   H     H_    0.115141 0.659932 0.796617 0.175766
C42   C     C_R   0.054212 0.739455 0.712557 0.066706
C43   C     C_R   0.487383 0.383319 0.905137 0.056567
C44   C     C_R   0.420530 0.412581 0.843639 -0.178643
C45   C     C_R   0.334317 0.418343 0.860685 0.774536
C46   C     C_R   0.330306 0.415270 0.951727 -0.317991
H21   H     H_    0.270153 0.429310 0.970273 0.201672
C47   C     C_R   0.411648 0.405631 0.023703 -0.024767
C48   C     C_R   0.483705 0.381611 0.994077 0.251928
C49   C     C_3   0.605168 0.429925 0.060268 -0.462951
C50   C     C_3   0.610135 0.432201 0.962382 -0.378866
H22   H     H_    0.645098 0.512716 0.131206 0.197800
H23   H     H_    0.628400 0.371688 0.078900 0.258518
H24   H     H_    0.653672 0.516562 0.976985 0.234492
H25   H     H_    0.636935 0.375511 0.925332 0.237221
C51   C     C_R   0.550821 0.926911 0.395426 0.172020
C52   C     C_R   0.595269 0.925131 0.492814 0.009058
C53   C     C_R   0.673628 0.025886 0.588436 -0.275297
H26   H     H_    0.720502 0.027804 0.662858 0.176504
C54   C     C_R   0.684608 0.124645 0.590256 0.331516
C55   C     C_R   0.610548 0.119369 0.496489 -0.083289
C56   C     C_R   0.556917 0.022226 0.397623 0.101505
C57   C     C_3   0.443381 0.962867 0.302465 -0.349677
C58   C     C_3   0.437669 0.858605 0.298371 -0.486911
H27   H     H_    0.385592 0.981416 0.325887 0.256236
H28   H     H_    0.441920 0.968477 0.230006 0.234697
H29   H     H_    0.374123 0.817296 0.315421 0.235032
H30   H     H_    0.435583 0.805124 0.224805 0.213749
C59   C     C_R   0.035364 0.984343 0.143844 0.025058
C60   C     C_R   0.076120 0.078942 0.136865 0.141726
C61   C     C_R   0.032735 0.076083 0.036672 -0.100113
H31   H     H_    0.069825 0.145477 0.027076 0.172420
C62   C     C_R   0.939727 0.983900 0.948319 -0.166753
H32   H     H_    0.903951 0.983508 0.871937 0.132432
C63   C     C_R   0.893617 0.892449 0.958350 0.145156
C64   C     C_R   0.944567 0.889940 0.053589 -0.123935
C65   C     C_3   0.897000 0.861677 0.120409 0.848202
C66   C     C_3   0.997520 0.966445 0.220136 -0.064993
H33   H     H_    0.978152 0.029766 0.259289 0.164476
N17   N     N_R   0.099053 0.299653 0.203531 0.222796
O1    O     O_R   0.003436 0.246460 0.191875 -0.297751
O2    O     O_R   0.109470 0.355487 0.153166 -0.434422
N18   N     N_R   0.490849 0.296536 0.152167 0.241118
O3    O     O_R   0.419521 0.220113 0.051856 -0.337657
O4    O     O_R   0.549706 0.272491 0.216942 -0.374285
N19   N     N_R   0.658200 0.857140 0.845491 0.244731
O5    O     O_R   0.717220 0.945290 0.940174 -0.267078
O6    O     O_R   0.552584 0.818170 0.793439 -0.407785
N20   N     N_R   0.048216 0.555029 0.023229 0.283085
O7    O     O_R   0.133408 0.628813 0.033258 -0.403737
O8    O     O_R   0.967930 0.479256 0.925834 -0.233210
N21   N     N_R   0.184536 0.765423 0.413269 0.270728
O9    O     O_R   0.147386 0.808748 0.472344 -0.325168
O10   O     O_R   0.285320 0.822345 0.438307 -0.392451
N22   N     N_R   0.876335 0.382070 0.195620 0.284616
O11   O     O_R   0.898983 0.358409 0.273813 -0.325523
O12   O     O_R   0.782973 0.314522 0.105619 -0.274632
F1    F     F_    0.891649 0.377504 0.014536 -0.560766
F2    F     F_    0.261288 0.437135 0.796672 -0.678014
N23   N     N_R   0.767949 0.226997 0.686601 0.238631
O13   O     O_R   0.820360 0.309797 0.677939 -0.348763
O14   O     O_R   0.804210 0.232835 0.781477 -0.272147
F3    F     F_    0.799952 0.865023 0.097243 -0.647560
N24   N     N_R   0.887593 0.759906 0.119061 0.235836
O15   O     O_R   0.895555 0.690325 0.046545 -0.413192
O16   O     O_R   0.860806 0.733808 0.184503 -0.363984
N25   N     N_R   0.071638 0.949518 0.298432 0.277400
O17   O     O_R   0.114394 0.889423 0.268883 -0.309041
O18   O     O_R   0.098809 0.998904 0.400282 -0.304959
N26   N     N_R   0.296825 0.098151 0.207436 0.202171
O19   O     O_R   0.247219 0.006243 0.203781 -0.421248
O20   O     O_R   0.349494 0.103110 0.154176 -0.362403

loop_
_geom_bond_atom_site_label_1
_geom_bond_atom_site_label_2
_geom_bond_distance
_ccdc_geom_bond_type
C15   C23   1.375784 A    
C55   C56   1.402284 A    
C51   C56   1.378108 A    
C4    C12   1.386253 A    
C13   N9    1.329635 A    
C61   H31   1.083242 S    
N11   N14   1.372671 A    
C52   C53   1.408389 A    
C49   C50   1.507313 S    
N18   O3    1.301603 A    
C61   C62   1.372338 A    
N2    N7    1.372674 A    
N9    Ni1   1.862091 S    
C45   C46   1.403319 A    
C14   C22   1.384474 A    
N11   Ni3   1.852747 S    
C17   H9    1.081661 S    
C38   C39   1.396866 A    
C7    C10   1.387232 A    
C66   N25   1.465961 S    
N25   O18   1.300361 A    
C39   C40   1.395086 A    
N20   O7    1.302121 A    
C14   H8    1.070828 S    
C41   H20   1.083157 S    
C46   C47   1.404604 A    
N18   O4    1.299469 A    
C3    C11   1.377088 A    
C6    H5    1.067134 S    
C64   C65   1.500742 S    
N22   O12   1.301043 A    
C7    H6    1.079512 S    
C31   C36   1.396913 A    
C23   C47   1.446707 S    
C66   H33   1.113388 S    
N4    Ni4   1.855086 S    
C54   N23   1.435007 S    
C59   C64   1.382111 A    
C60   C61   1.400060 A    
C17   C24   1.368441 A    
C19   C21   1.392592 A    
N16   Ni3   1.855086 S    
N25   O17   1.301906 A    
N21   O9    1.301319 A    
N1    N8    1.372916 A    
N3    N5    1.395961 A    
C35   C36   1.419224 A    
C57   C58   1.503150 S    
C4    H3    1.078777 S    
C45   F2    1.356646 S    
C7    N7    1.336977 A    
N12   Ni4   1.855582 S    
C47   C48   1.392417 A    
C18   N14   1.343542 A    
C32   C33   1.412177 A    
C26   C27   1.416351 A    
C8    N8    1.337507 A    
N10   N16   1.395961 A    
C2    C10   1.382071 A    
C56   C57   1.495699 S    
N17   O2    1.301344 A    
C59   C66   1.497545 S    
C25   C30   1.399927 A    
N23   O13   1.301632 A    
C43   C48   1.363205 A    
C20   N16   1.347035 A    
C26   N21   1.438631 S    
C38   H17   1.081481 S    
C33   C34   1.385927 A    
N22   O11   1.301374 A    
C65   N24   1.465554 S    
C44   C45   1.412348 A    
C41   C42   1.406652 A    
N6    Ni1   1.860860 S    
C40   H19   1.082165 S    
C34   H15   1.079486 S    
C6    C12   1.381585 A    
C3    N3    1.332215 A    
C27   C36   1.483190 S    
C21   C52   1.465148 S    
C29   F1    1.357105 S    
N9    N15   1.395962 A    
C27   C28   1.420647 A    
C1    N17   1.429305 S    
C31   C32   1.399570 A    
C16   N19   1.435891 S    
C19   H11   1.077552 S    
C29   C30   1.407950 A    
N1    Ni1   1.862485 S    
N24   O16   1.300851 A    
C4    N4    1.333179 A    
C49   H22   1.112453 S    
C43   C44   1.394901 A    
C18   C23   1.380635 A    
C51   C52   1.397781 A    
C20   C22   1.400712 A    
C15   N11   1.327869 A    
C57   H27   1.109987 S    
C8    N26   1.429876 S    
C39   H18   1.075880 S    
C19   N15   1.343419 A    
N3    Ni3   1.852294 S    
N10   Ni2   1.860862 S    
N21   O10   1.300766 A    
C37   C38   1.394127 A    
C18   H10   1.081502 S    
C5    N5    1.343869 A    
C1    C9    1.384724 A    
C53   C54   1.412991 A    
C8    C9    1.387666 A    
C12   C35   1.478323 S    
N26   O20   1.298528 A    
N2    Ni2   1.861292 S    
C2    H1    1.077980 S    
C58   H30   1.111910 S    
N17   O1    1.300542 A    
C28   N22   1.443946 S    
C49   H23   1.109831 S    
C62   H32   1.084518 S    
C6    N6    1.339352 A    
C9    C60   1.425029 S    
C20   H12   1.077640 S    
N4    N6    1.395961 A    
N19   O6    1.300581 A    
C65   F3    1.385543 S    
C16   C24   1.367573 A    
C46   H21   1.082620 S    
N12   N13   1.372915 A    
N23   O14   1.301115 A    
C37   H16   1.083284 S    
C2    N2    1.323308 A    
C13   C21   1.384623 A    
C3    H2    1.075796 S    
C22   C32   1.476723 S    
C43   C50   1.504246 S    
N15   Ni4   1.852293 S    
C5    C11   1.386496 A    
N24   O15   1.301909 A    
C31   H14   1.082325 S    
C51   C58   1.496853 S    
C10   C44   1.446411 S    
N7    Ni4   1.852749 S    
C65   C66   1.530652 S    
C50   H24   1.112691 S    
C14   N10   1.327752 A    
C11   C55   1.476529 S    
C25   H13   1.081667 S    
N5    Ni2   1.862091 S    
N19   O5    1.300836 A    
C1    N1    1.330984 A    
C54   C55   1.419783 A    
C24   C63   1.408795 S    
C57   H28   1.111694 S    
C40   C41   1.395936 A    
C30   N20   1.442244 S    
C28   C29   1.410262 A    
C25   C26   1.398508 A    
N14   Ni1   1.861292 S    
C50   H25   1.112015 S    
C17   N13   1.334029 A    
N13   Ni2   1.862485 S    
C5    H4    1.078449 S    
C33   C42   1.473391 S    
C34   C35   1.397016 A    
C53   H26   1.081959 S    
C13   H7    1.075538 S    
C15   N18   1.440610 S    
N26   O19   1.298468 A    
C16   N12   1.328470 A    
N20   O8    1.301294 A    
C48   C49   1.495360 S    
C59   C60   1.394657 A    
C58   H29   1.108686 S    
C37   C42   1.402194 A    
C63   C64   1.391072 A    
N8    Ni3   1.855583 S    
C62   C63   1.394162 A    
