data_str_m9_o16_o22_f0_sra.sym.89
_audit_creation_date              2012-12-11T15:11:52-0500
_audit_creation_method            fapswitch 2.2
_symmetry_space_group_name_H-M    P1
_symmetry_Int_Tables_number       1
_space_group_crystal_system       triclinic
_cell_length_a                    20.154364
_cell_length_b                    7.10176
_cell_length_c                    13.530648
_cell_angle_alpha                 90.000332
_cell_angle_beta                  103.610881
_cell_angle_gamma                 89.999916
_cell_volume                      1882.2727866

loop_
_atom_site_label
_atom_site_type_symbol
_atom_type_description
_atom_site_fract_x
_atom_site_fract_y
_atom_site_fract_z
_atom_type_partial_charge
O1    O     O_R   0.449830 0.506740 0.599960 -0.543200
O2    O     O_R   0.550170 0.006740 0.400040 -0.543200
O3    O     O_R   0.588980 0.179860 0.596720 -0.554566
O4    O     O_R   0.411020 0.679860 0.403280 -0.554567
C1    C     C_R   0.616668 0.344225 0.618464 0.685555
C2    C     C_R   0.383332 0.844225 0.381535 0.685553
O5    O     O_R   0.452740 0.177340 0.612040 -0.535085
O6    O     O_R   0.547260 0.677340 0.387960 -0.535087
O7    O     O_R   0.412960 0.002070 0.415460 -0.509119
O8    O     O_R   0.587040 0.502070 0.584540 -0.509114
C3    C     C_R   0.436701 0.345717 0.638600 0.706368
C4    C     C_R   0.563299 0.845717 0.361400 0.706369
O9    O     O_3   0.487110 0.337570 0.435490 -0.375994
O10   O     O_3   0.512890 0.837570 0.564510 -0.375991
V1    V     V_3+5 0.502390 0.064650 0.511970 1.468878
V2    V     V_3+5 0.497610 0.564650 0.488030 1.468877
C5    C     C_R   0.607420 0.852608 0.107445 -0.132006
C6    C     C_R   0.392580 0.352610 0.892555 -0.132006
H1    H     H_    0.514178 0.848291 0.157876 0.095919
H2    H     H_    0.485822 0.348296 0.842124 0.095920
H3    H     H_    0.689258 0.853498 0.980984 0.138861
H4    H     H_    0.310742 0.353494 0.019016 0.138860
H5    H     H_    0.580740 0.851376 0.027905 0.110792
H6    H     H_    0.419260 0.351379 0.972095 0.110791
C7    C     C_R   0.602623 0.853114 0.283777 -0.043041
C8    C     C_R   0.397377 0.353116 0.716223 -0.043040
C9    C     C_R   0.931322 0.860248 0.317374 -0.240640
C10   C     C_R   0.068678 0.360243 0.682626 -0.240641
C11   C     C_R   0.896046 0.856730 0.393897 0.720077
C12   C     C_R   0.103953 0.356724 0.606103 0.720078
C13   C     C_R   0.824971 0.854690 0.369803 -0.231407
C14   C     C_R   0.175029 0.354686 0.630197 -0.231403
C15   C     C_R   0.786918 0.855737 0.267290 -0.076902
C16   C     C_R   0.213082 0.355734 0.732710 -0.076902
C17   C     C_R   0.823428 0.857221 0.188644 -0.033628
C18   C     C_R   0.176571 0.357217 0.811356 -0.033628
C19   C     C_R   0.713904 0.855355 0.240447 0.099410
C20   C     C_R   0.286096 0.355353 0.759553 0.099410
C21   C     C_R   0.679068 0.854388 0.136058 0.061807
C22   C     C_R   0.320932 0.354387 0.863942 0.061808
C23   C     C_R   0.715706 0.854608 0.060682 -0.290311
C24   C     C_R   0.284294 0.354604 0.939318 -0.290313
C25   C     C_R   0.786501 0.856268 0.085825 0.552654
C26   C     C_R   0.213499 0.356262 0.914175 0.552652
C27   C     C_R   0.673906 0.855609 0.313495 -0.177656
C28   C     C_R   0.326094 0.355608 0.686504 -0.177654
C29   C     C_R   0.569426 0.851259 0.180999 -0.180337
C30   C     C_R   0.430574 0.351262 0.819001 -0.180337
C31   C     C_R   0.896014 0.860313 0.215330 -0.179107
C32   C     C_R   0.103986 0.360310 0.784670 -0.179107
H7    H     H_    0.696146 0.856381 0.394100 0.131220
H8    H     H_    0.303854 0.356379 0.605900 0.131224
H9    H     H_    0.801554 0.852100 0.433529 0.157531
H10   H     H_    0.198446 0.352095 0.566471 0.157536
C33   C     C_3   0.214461 0.652992 0.205514 -0.312956
C34   C     C_3   0.785544 0.152990 0.794471 -0.312967
H11   H     H_    0.179022 0.564883 0.237791 0.174889
H12   H     H_    0.820984 0.064902 0.762183 0.174879
H13   H     H_    0.217236 0.590498 0.131377 0.221292
H14   H     H_    0.782773 0.090470 0.868604 0.221303
C35   C     C_3   0.286197 0.648097 0.277805 -0.421633
C36   C     C_3   0.713806 0.148097 0.722184 -0.421617
H15   H     H_    0.284346 0.561357 0.345658 0.187630
H16   H     H_    0.715656 0.061368 0.654327 0.187630
H17   H     H_    0.151523 0.859679 0.330073 0.106761
H18   H     H_    0.848479 0.359729 0.669927 0.106757
C37   C     C_3   0.186795 0.942224 0.294680 -0.348141
C38   C     C_3   0.813203 0.442251 0.705325 -0.348130
C39   C     C_3   0.238634 0.973404 0.143671 -0.297753
C40   C     C_3   0.761364 0.473378 0.856336 -0.297773
C41   C     C_3   0.187232 0.857922 0.188880 0.005579
C42   C     C_3   0.812768 0.357922 0.811119 0.005585
H19   H     H_    0.239616 0.918693 0.066956 0.147067
H20   H     H_    0.760382 0.418640 0.933045 0.147067
C43   C     C_3   0.312028 0.850367 0.311608 0.013854
C44   C     C_3   0.687973 0.350367 0.688391 0.013845
C45   C     C_3   0.259724 0.940320 0.366028 0.522578
C46   C     C_3   0.740275 0.440338 0.633975 0.522576
C47   C     C_3   0.311623 0.965415 0.213950 -0.328675
C48   C     C_3   0.688376 0.465397 0.786054 -0.328676
H21   H     H_    0.347134 0.899971 0.172156 0.120301
H22   H     H_    0.652864 0.399944 0.827842 0.120301
H23   H     H_    0.330189 0.111170 0.234209 0.184173
H24   H     H_    0.669810 0.611153 0.765802 0.184175
O11   O     O_R   0.912980 0.203550 0.915410 -0.533238
O12   O     O_R   0.087020 0.703550 0.084590 -0.533239
O13   O     O_R   0.047270 0.535570 0.887960 -0.539228
O14   O     O_R   0.952730 0.035570 0.112040 -0.539227
C49   C     C_R   0.063443 0.368127 0.861279 0.844066
C50   C     C_R   0.936557 0.868128 0.138721 0.844068
O15   O     O_R   0.911030 0.532970 0.903270 -0.535461
O16   O     O_R   0.088970 0.032970 0.096730 -0.535460
O17   O     O_R   0.949820 0.708150 0.099970 -0.528803
O18   O     O_R   0.050180 0.208150 0.900030 -0.528801
C51   C     C_R   0.883822 0.364749 0.881696 0.674180
C52   C     C_R   0.116178 0.864749 0.118304 0.674180
O19   O     O_3   0.012900 0.375230 0.064480 -0.373433
O20   O     O_3   0.987100 0.875230 0.935520 -0.373433
V3    V     V_3+5 0.997610 0.648190 0.988040 1.534544
V4    V     V_3+5 0.002390 0.148190 0.011960 1.534549
H25   H     H_    0.322190 0.577733 0.238519 0.173161
H26   H     H_    0.677816 0.077723 0.761469 0.173171
H27   H     H_    0.258757 0.857395 0.435463 0.041274
H28   H     H_    0.741244 0.357422 0.564538 0.041276
H29   H     H_    0.221952 0.122786 0.134469 0.216354
H30   H     H_    0.778045 0.622760 0.865553 0.216352
H31   H     H_    0.167059 0.089121 0.285726 0.193725
H32   H     H_    0.832934 0.589152 0.714289 0.193728
F1    F     F_    0.278968 0.122763 0.396553 -0.706814
F2    F     F_    0.721026 0.622779 0.603455 -0.706815
H33   H     H_    0.986655 0.863063 0.337737 0.146860
H34   H     H_    0.013344 0.363059 0.662263 0.146860
F3    F     F_    0.931053 0.856021 0.492667 -0.667227
F4    F     F_    0.068947 0.356014 0.507333 -0.667226
F5    F     F_    0.818130 0.856087 0.007858 -0.741014
F6    F     F_    0.181870 0.356076 0.992142 -0.741014

loop_
_geom_bond_atom_site_label_1
_geom_bond_atom_site_label_2
_ccdc_geom_bond_type
H18   C38   S    
C33   H13   S    
C9    C11   A    
O1    C3    A    
C31   C50   S    
C48   H24   S    
O2    C4    A    
C2    O7    A    
O3    V1    S    
C2    C43   S    
C21   C23   A    
C10   H34   S    
O5    C3    A    
C5    H5    S    
C6    H6    S    
C44   C46   S    
H1    C29   S    
C27   H7    S    
C28   H8    S    
O16   C52   A    
C35   H15   S    
C5    C21   A    
C49   O18   A    
C39   C41   S    
C6    C22   A    
C36   H16   S    
C25   F5    S    
C42   C51   S    
C10   C32   A    
C35   C43   S    
H17   C37   S    
C37   C45   S    
C17   C31   A    
C13   C15   A    
C39   H19   S    
C12   C14   A    
C17   C25   A    
O17   V3    S    
C16   C18   A    
C8    C30   A    
C22   C24   A    
C9    H33   S    
O6    V2    S    
C23   C25   A    
C36   C44   S    
C24   C26   A    
C14   H10   S    
O19   V3    S    
O13   V3    S    
C38   C46   S    
C46   H28   S    
C45   H27   S    
C44   C48   S    
C48   H22   S    
C40   H30   S    
C47   H21   S    
C39   H29   S    
C41   C52   S    
C3    C8    S    
C34   C42   S    
C40   C48   S    
C15   C19   A    
C34   H14   S    
C38   C42   S    
C14   C16   A    
O4    V2    S    
C35   H25   S    
C40   H20   S    
O12   V3    S    
C32   C49   S    
O18   V4    S    
O6    C4    A    
C46   F2    S    
O1    V2    S    
H2    C30   S    
C13   H9    S    
C45   F1    S    
O2    V1    S    
C43   C45   S    
O14   V4    S    
O12   C52   A    
H3    C23   S    
O4    C2    A    
O14   C50   A    
O20   V4    S    
C33   H11   S    
C34   C36   S    
C18   C26   A    
C19   C27   A    
C7    C27   A    
O19   V4    S    
C18   C32   A    
O16   V4    S    
C50   O17   A    
C12   F4    S    
C11   F3    S    
C7    C29   A    
C16   C20   A    
C5    C29   A    
O3    C1    A    
C6    C30   A    
C4    C7    S    
C1    C44   S    
C10   C12   A    
O7    V1    S    
C1    O8    A    
C11   C13   A    
O11   V4    S    
O8    V2    S    
C20   C22   A    
O11   C51   A    
C37   H31   S    
H4    C24   S    
C33   C35   S    
O5    V1    S    
C15   C17   A    
C34   H12   S    
C37   C41   S    
C20   C28   A    
C39   C47   S    
C8    C28   A    
O15   C51   A    
C47   H23   S    
C26   F6    S    
C19   C21   A    
O20   V3    S    
O9    V2    S    
O13   C49   A    
O10   V1    S    
C40   C42   S    
C38   H32   S    
O15   V3    S    
C43   C47   S    
C33   C41   S    
C9    C31   A    
C36   H26   S    
