data_str_m3_o14_o16_f0_pcu.sym.97
_audit_creation_date              2012-12-10T17:42:45-0500
_audit_creation_method            fapswitch 2.2
_symmetry_space_group_name_H-M    P1
_symmetry_Int_Tables_number       1
_space_group_crystal_system       triclinic
_cell_length_a                    9.897825
_cell_length_b                    10.731275
_cell_length_c                    13.189393
_cell_angle_alpha                 92.63112
_cell_angle_beta                  72.057436
_cell_angle_gamma                 88.121419
_cell_volume                      1329.76639379

loop_
_atom_site_label
_atom_site_type_symbol
_atom_type_description
_atom_site_fract_x
_atom_site_fract_y
_atom_site_fract_z
_atom_type_partial_charge
Br1   Br    Br    0.488862 0.221664 0.250250 -0.578731
Br2   Br    Br    0.036675 0.874545 0.793430 -0.542869
C1    C     C_R   0.495152 0.740720 0.503086 0.870901
C2    C     C_R   0.391151 0.437081 0.808756 -0.115675
C3    C     C_R   0.275150 0.890948 0.434185 -0.146769
C4    C     C_R   0.425874 0.481688 0.700366 0.877925
C5    C     C_R   0.209326 0.952984 0.370255 -0.196420
C6    C     C_R   0.265818 0.060381 0.323253 -0.157573
C7    C     C_R   0.378466 0.112904 0.349405 0.247610
C8    C     C_R   0.429676 0.061769 0.428401 0.053756
C9    C     C_R   0.394700 0.940387 0.457584 0.076470
C10   C     C_R   0.485136 0.874810 0.505102 -0.088566
C11   C     C_R   0.583314 0.937434 0.542772 -0.189967
C12   C     C_R   0.456352 0.427549 0.971235 0.105084
C13   C     C_R   0.594295 0.063529 0.533574 -0.205293
C14   C     C_R   0.516221 0.126239 0.478358 -0.088335
C15   C     C_R   0.797308 0.667659 0.641386 -0.220119
C16   C     C_R   0.505827 0.259921 0.491314 0.925496
C17   C     C_R   0.838274 0.752747 0.707914 -0.231911
C18   C     C_R   0.979020 0.753646 0.706086 0.288747
C19   C     C_R   0.078736 0.667400 0.639412 -0.256854
C20   C     C_R   0.041487 0.582240 0.569342 0.100038
C21   C     C_R   0.896712 0.582336 0.569629 0.176754
C22   C     C_R   0.958585 0.421165 0.433414 -0.130463
C23   C     C_R   0.497979 0.423755 0.859488 0.083392
C24   C     C_R   0.101794 0.421226 0.433421 -0.098253
C25   C     C_R   0.576684 0.506947 0.297340 0.948283
C26   C     C_R   0.798149 0.527235 0.010933 0.178749
C27   C     C_R   0.620210 0.509673 0.181908 -0.077147
C28   C     C_R   0.250924 0.411641 0.864747 -0.176687
C29   C     C_R   0.214996 0.386092 0.972060 -0.145064
C30   C     C_R   0.314404 0.399622 0.026571 -0.167798
C31   C     C_3   0.932091 0.589080 0.952072 -0.876540
C32   C     C_R   0.558489 0.460861 0.021823 0.049668
C33   C     C_R   0.702337 0.477414 0.960509 0.164720
C34   C     C_R   0.745432 0.440033 0.852092 -0.219711
C35   C     C_R   0.644900 0.408195 0.803425 -0.185486
C36   C     C_R   0.519186 0.484807 0.131291 -0.199718
C37   C     C_R   0.757845 0.536253 0.122363 -0.208660
H1    H     H_    0.832121 0.567839 0.162519 0.163669
H2    H     H_    0.855976 0.432202 0.804183 0.156125
H3    H     H_    0.180234 0.357020 0.378965 0.164283
H4    H     H_    0.409921 0.480396 0.179336 0.172536
H5    H     H_    0.169644 0.411056 0.825527 0.167611
H6    H     H_    0.278165 0.384531 0.110776 0.141840
H7    H     H_    0.107562 0.362616 0.014685 0.160840
H8    H     H_    0.684535 0.370796 0.721652 0.188419
H9    H     H_    0.649583 0.889223 0.581820 0.162814
H10   H     H_    0.971783 0.563939 0.865569 0.239113
H11   H     H_    0.910293 0.691705 0.962568 0.284459
H12   H     H_    0.225232 0.808108 0.466474 0.188624
H13   H     H_    0.017543 0.567303 0.987148 0.241690
H14   H     H_    0.119433 0.913552 0.352271 0.161784
H15   H     H_    0.225288 0.100335 0.263824 0.164631
H16   H     H_    0.661992 0.112318 0.571311 0.167539
H17   H     H_    0.929276 0.356849 0.379057 0.152079
H18   H     H_    0.687284 0.672525 0.648090 0.218991
H19   H     H_    0.760001 0.818677 0.760734 0.185508
H20   H     H_    0.184498 0.670603 0.643351 0.232774
N1    N     N_R   0.856860 0.501200 0.500990 -0.118762
N2    N     N_R   0.142450 0.501280 0.501020 -0.113123
O1    O     O_R   0.385310 0.683220 0.500000 -0.654903
O2    O     O_R   0.614640 0.683250 0.500010 -0.631132
O3    O     O_R   0.328400 0.499950 0.653610 -0.629160
O4    O     O_R   0.557730 0.499970 0.653620 -0.650362
O5    O     O_R   0.385360 0.316750 0.499990 -0.600183
O6    O     O_R   0.614690 0.316780 0.500000 -0.628788
O7    O     O_R   0.442270 0.500030 0.346380 -0.605514
O8    O     O_R   0.671600 0.500050 0.346390 -0.612376
Zn1   Zn    Zn3+2 0.346880 0.499980 0.499990 0.948122
Zn2   Zn    Zn3+2 0.653120 0.500020 0.500010 0.937865

loop_
_geom_bond_atom_site_label_1
_geom_bond_atom_site_label_2
_ccdc_geom_bond_type
C27   C36   A    
N2    Zn1   S    
C11   H9    S    
C9    C10   A    
C12   C32   A    
C1    C10   S    
O3    Zn1   S    
C35   H8    S    
C22   H17   S    
C30   H6    S    
N1    Zn2   S    
C33   C34   A    
C25   O8    A    
C6    H15   S    
C28   C29   A    
C22   N1    A    
C27   C37   A    
C17   C18   A    
C2    C23   A    
C31   H11   S    
O8    Zn2   S    
C36   H4    S    
C12   C23   A    
C12   C30   A    
C15   C21   A    
C19   C20   A    
C10   C11   A    
C31   H13   S    
C3    C9    A    
O1    Zn1   S    
C28   H5    S    
C34   H2    S    
O5    Zn1   S    
C13   H16   S    
C1    O2    A    
O7    Zn1   S    
C34   C35   A    
C15   C17   A    
C24   N2    A    
C22   C24   A    
C26   C31   S    
C19   H20   S    
O6    Zn2   S    
C11   C13   A    
C17   H19   S    
C21   N1    A    
C2    C4    S    
C25   C27   S    
C8    C9    A    
C5    H14   S    
C31   H10   S    
C13   C14   A    
C5    C6    A    
Br1   C7    S    
C18   C19   A    
C24   H3    S    
C14   C16   S    
C32   C33   A    
C7    C8    A    
C1    O1    A    
C4    O3    A    
C37   H1    S    
C3    C5    A    
C16   O5    A    
C3    H12   S    
C8    C14   A    
C25   O7    A    
C26   C37   A    
C23   C35   A    
C16   O6    A    
O4    Zn2   S    
Br2   C18   S    
O2    Zn2   S    
C4    O4    A    
C2    C28   A    
C20   C21   A    
C29   C30   A    
C26   C33   A    
C15   H18   S    
C6    C7    A    
C20   N2    A    
C29   H7    S    
C32   C36   A    
