data_str_m2_o12_o29_f0_pcu.sym.244
_audit_creation_date              2013-03-05T15:47:15-0500
_audit_creation_method            fapswitch 2.2
_symmetry_space_group_name_H-M    P1
_symmetry_Int_Tables_number       1
_space_group_crystal_system       triclinic
_cell_length_a                    27.716736
_cell_length_b                    11.055945
_cell_length_c                    9.807045
_cell_angle_alpha                 111.85948
_cell_angle_beta                  97.589817
_cell_angle_gamma                 91.368996
_cell_volume                      2755.97331985

loop_
_atom_site_label
_atom_site_type_symbol
_atom_site_description
_atom_site_fract_x
_atom_site_fract_y
_atom_site_fract_z
_atom_type_partial_charge
O1    O     O_R   0.504520 0.332330 0.577400 -0.614087
O2    O     O_R   0.495480 0.667670 0.422600 -0.610565
O3    O     O_R   0.490210 0.295500 0.332650 -0.504990
O4    O     O_R   0.509790 0.704500 0.667350 -0.501790
C1    C     C_R   0.496429 0.253475 0.439181 0.762338
C2    C     C_R   0.503971 0.746589 0.560766 0.767583
O5    O     O_R   0.437420 0.518430 0.622370 -0.572202
O6    O     O_R   0.562580 0.481570 0.377630 -0.573569
O7    O     O_R   0.423110 0.481600 0.377610 -0.581659
O8    O     O_R   0.576890 0.518400 0.622390 -0.580360
C3    C     C_R   0.407373 0.501270 0.502276 0.804780
C4    C     C_R   0.592283 0.492865 0.496463 0.803029
Cu1   Cu    Cu3+1 0.508480 0.521810 0.644910 1.000671
Cu2   Cu    Cu3+1 0.491520 0.478190 0.355090 0.998480
C5    C     C_R   0.175614 0.370647 0.468366 0.573681
C6    C     C_R   0.826372 0.599117 0.540066 0.593509
O9    O     O_2   0.196476 0.267222 0.380071 -0.448026
O10   O     O_2   0.805461 0.711901 0.600576 -0.472797
N1    N     N_R   0.203878 0.484138 0.548006 -0.482842
N2    N     N_R   0.797900 0.483837 0.480797 -0.479876
C7    C     C_R   0.184795 0.594551 0.633657 0.590286
C8    C     C_R   0.818034 0.366299 0.434731 0.594658
C9    C     C_R   0.270318 0.527900 0.428846 -0.086501
C10   C     C_R   0.725640 0.434186 0.572954 -0.124402
C11   C     C_R   0.319909 0.535009 0.413027 0.110042
C12   C     C_R   0.675240 0.426119 0.573821 0.119463
C13   C     C_R   0.338389 0.459800 0.618181 -0.194701
C14   C     C_R   0.665232 0.531445 0.394070 -0.242592
C15   C     C_R   0.288935 0.454888 0.634510 0.182155
C16   C     C_R   0.715410 0.531444 0.386542 0.187098
C17   C     C_R   0.255003 0.488757 0.537398 0.240410
C18   C     C_R   0.745975 0.484972 0.480352 0.265219
C19   C     C_R   0.104197 0.478363 0.558562 -0.117714
C20   C     C_R   0.898979 0.479302 0.511084 -0.123594
C21   C     C_R   0.125185 0.363041 0.475601 -0.106484
C22   C     C_R   0.877342 0.599670 0.543815 -0.107281
C23   C     C_R   0.094667 0.246406 0.397156 0.333959
C24   C     C_R   0.907432 0.716266 0.583022 0.336787
C25   C     C_R   0.134225 0.595179 0.640604 -0.157081
C26   C     C_R   0.869170 0.360924 0.458521 -0.154803
C27   C     C_R   0.354323 0.498563 0.509019 -0.128098
C28   C     C_R   0.644892 0.483022 0.489408 -0.092335
H1    H     H_    0.365165 0.432312 0.689742 0.169248
H2    H     H_    0.641729 0.569216 0.324311 0.161133
C29   C     C_R   0.972194 0.357461 0.491352 -0.062153
C30   C     C_R   0.031498 0.595152 0.626695 -0.064588
C31   C     C_R   0.980124 0.596864 0.593218 0.050016
C32   C     C_R   0.023113 0.358986 0.483833 0.055156
C33   C     C_R   0.950445 0.477722 0.531814 0.050864
C34   C     C_R   0.052975 0.477329 0.557388 0.051909
C35   C     C_R   0.942298 0.240916 0.459205 0.203791
C36   C     C_R   0.062068 0.706907 0.724418 0.202005
C37   C     C_R   0.891074 0.242193 0.437871 0.274359
C38   C     C_R   0.112979 0.707632 0.728627 0.269133
O11   O     O_2   0.788333 0.255560 0.366957 -0.465204
O12   O     O_2   0.214946 0.703313 0.709403 -0.458588
C39   C     C_R   0.044482 0.247185 0.398555 -0.160489
C40   C     C_R   0.958031 0.713424 0.608152 -0.150102
H3    H     H_    0.749603 0.396474 0.641784 0.164926
H4    H     H_    0.242503 0.552819 0.357760 0.164323
H5    H     H_    0.022317 0.158709 0.328537 0.215647
H6    H     H_    0.980032 0.802503 0.629995 0.218906
H7    H     H_    0.484943 0.861816 0.375696 0.209305
H8    H     H_    0.520093 0.137600 0.621674 0.206432
C41   C     C_2   0.494073 0.112520 0.401298 0.159400
C42   C     C_2   0.507299 0.887633 0.598170 0.153901
C43   C     C_2   0.505756 0.068662 0.510686 -0.227816
C44   C     C_2   0.497948 0.931066 0.487523 -0.225454
H9    H     H_    0.466988 0.417168 0.845371 0.161629
H10   H     H_    0.532918 0.583051 0.154665 0.160996
N3    N     N_2   0.478780 0.445430 0.137360 -0.271956
N4    N     N_2   0.521220 0.554570 0.862640 -0.271290
C45   C     C_2   0.504292 0.510622 0.081423 -0.034725
C46   C     C_2   0.495643 0.489523 0.918597 -0.037377
H11   H     H_    0.548200 0.622588 0.934758 0.221208
H12   H     H_    0.451772 0.377472 0.065273 0.219592
N5    N     N_R   0.520715 0.975352 0.750913 0.141402
O13   O     O_R   0.556299 0.950808 0.835118 -0.306523
O14   O     O_R   0.492738 0.067076 0.811625 -0.333178
N6    N     N_R   0.478969 0.025219 0.249178 0.142726
O15   O     O_R   0.441685 0.049031 0.170040 -0.299821
O16   O     O_R   0.507039 0.935849 0.183178 -0.335528
C47   C     C_3   0.270806 0.414612 0.752710 -0.357347
C48   C     C_3   0.309957 0.380109 0.854738 -0.821969
H13   H     H_    0.328823 0.294974 0.789289 0.266748
H14   H     H_    0.336842 0.465267 0.917367 0.245967
H15   H     H_    0.292473 0.353391 0.936286 0.268285
H16   H     H_    0.251489 0.495818 0.823926 0.222811
H17   H     H_    0.243951 0.328248 0.696799 0.241344
C49   C     C_3   0.734556 0.574605 0.272747 -0.409439
C50   C     C_3   0.728964 0.719560 0.305602 -0.659402
H18   H     H_    0.689814 0.738977 0.295044 0.220535
H19   H     H_    0.747221 0.780704 0.419305 0.309378
H20   H     H_    0.745952 0.748458 0.224727 0.266343
H21   H     H_    0.773549 0.556337 0.266792 0.227836
H22   H     H_    0.714033 0.515905 0.160887 0.201337
N7    N     N_R   0.113692 0.124223 0.319509 0.181107
O17   O     O_R   0.094751 0.054566 0.182794 -0.221595
O18   O     O_R   0.141505 0.069895 0.394277 -0.250750
N8    N     N_R   0.887762 0.835987 0.585593 0.184253
O19   O     O_R   0.906935 0.947271 0.685943 -0.239687
O20   O     O_R   0.857605 0.835845 0.471932 -0.256468
C51   C     C_3   0.656217 0.349647 0.659174 -0.427934
C52   C     C_3   0.665739 0.205212 0.590832 -0.744679
H23   H     H_    0.648455 0.162214 0.472442 0.263344
H24   H     H_    0.705492 0.192619 0.598060 0.277382
H25   H     H_    0.649724 0.151221 0.651785 0.251876
H26   H     H_    0.674454 0.392092 0.776664 0.213633
H27   H     H_    0.616556 0.351772 0.660939 0.232466
C53   C     C_3   0.336527 0.582769 0.298050 -0.388963
C54   C     C_3   0.297910 0.641618 0.219896 -0.774103
H28   H     H_    0.268444 0.565900 0.149285 0.253283
H29   H     H_    0.282333 0.723915 0.302624 0.280304
H30   H     H_    0.315099 0.679983 0.146479 0.263485
H31   H     H_    0.367071 0.659671 0.354083 0.219991
H32   H     H_    0.350173 0.499701 0.210964 0.228344
N9    N     N_R   0.861828 0.125119 0.412741 0.206944
O21   O     O_R   0.841305 0.114055 0.519866 -0.253483
O22   O     O_R   0.852541 0.034306 0.280142 -0.236327
N10   N     N_R   0.142820 0.821454 0.829192 0.203330
O23   O     O_R   0.152534 0.917064 0.787590 -0.231008
O24   O     O_R   0.158015 0.832504 0.964935 -0.241873
N11   N     N_R   0.963284 0.127488 0.473350 0.138287
O25   O     O_R   0.994810 0.140083 0.589521 -0.276955
O26   O     O_R   0.950669 0.011467 0.372005 -0.248447
N12   N     N_R   0.042411 0.813324 0.833344 0.145267
O27   O     O_R   0.013401 0.789794 0.916163 -0.275982
O28   O     O_R   0.053399 0.933713 0.850467 -0.226485

loop_
_geom_bond_atom_site_label_1
_geom_bond_atom_site_label_2
_geom_bond_distance
_ccdc_geom_bond_type
C40   H6    1.080441 S    
O5    Cu1   1.950568 S    
C42   C44   1.339737 D    
N12   O27   1.301445 A    
C38   N10   1.432109 S    
C13   C15   1.402951 A    
C35   N11   1.439894 S    
C45   C46   1.510175 S    
C54   H28   1.110656 S    
C48   H15   1.110480 S    
C16   C49   1.515147 S    
N1    C17   1.435536 S    
C23   N7    1.434149 S    
N7    O17   1.300843 A    
N11   O25   1.301519 A    
C31   C33   1.414601 A    
N5    O13   1.301079 A    
C5    N1    1.363735 A    
C19   C25   1.416336 A    
O1    C1    1.295428 A    
C21   C23   1.416832 A    
C10   C12   1.398984 A    
C15   C47   1.523825 S    
N9    O22   1.300902 A    
N3    H12   1.030749 S    
C37   N9    1.432745 S    
N11   O26   1.301104 A    
C25   C38   1.416947 A    
C29   C35   1.422574 A    
C30   C36   1.420103 A    
Cu2   N3    2.008513 S    
C5    C21   1.410924 A    
O4    Cu1   1.947503 S    
C53   C54   1.531114 S    
C4    C28   1.473598 S    
C24   C40   1.394672 A    
C36   C38   1.405987 A    
C41   C43   1.339365 D    
O6    Cu2   1.950568 S    
C51   H26   1.111533 S    
C6    N2    1.365342 A    
C32   C34   1.415983 A    
C47   H16   1.111445 S    
C41   N6    1.440808 S    
Cu1   Cu2   2.673498 S    
O2    C2    1.295482 A    
N4    H11   1.030682 S    
C52   H24   1.110145 S    
C52   H23   1.111185 S    
N7    O18   1.301350 A    
N10   O24   1.301081 A    
N5    O14   1.301579 A    
C9    H4    1.080486 S    
C47   H17   1.111198 S    
C43   C44   1.458296 S    
H8    C43   1.084928 S    
C32   C39   1.405039 A    
C48   H13   1.110703 S    
N4    C46   1.301220 D    
C11   C27   1.421995 A    
C50   H18   1.110062 S    
N3    C45   1.301135 D    
C36   N12   1.438987 S    
C19   C34   1.417961 A    
C14   H2    1.083892 S    
C35   C37   1.408677 A    
C9    C17   1.398020 A    
O5    C3    1.297553 A    
O7    Cu2   1.937324 S    
C10   C18   1.399092 A    
C12   C51   1.521766 S    
C50   H19   1.108931 S    
C13   C27   1.407958 A    
C47   C48   1.530159 S    
C7    C25   1.412294 A    
C29   C33   1.413246 A    
O6    C4    1.297995 A    
C8    C26   1.411994 A    
H10   C45   1.085116 S    
N8    O20   1.301414 A    
H9    C46   1.085176 S    
C54   H29   1.110902 S    
C49   H22   1.111551 S    
O7    C3    1.296038 A    
O3    Cu2   1.947501 S    
O8    C4    1.293128 A    
C11   C53   1.526880 S    
C1    C41   1.458926 S    
N2    C8    1.366854 A    
C20   C26   1.412342 A    
O4    C2    1.287009 A    
O1    Cu1   1.943170 S    
C53   H32   1.110747 S    
N10   O23   1.301111 A    
C12   C28   1.420501 A    
N2    C18   1.438994 S    
C29   C32   1.422956 A    
C5    O9    1.348420 S    
C42   N5    1.441018 S    
C30   C34   1.413452 A    
C30   C31   1.420582 A    
C20   C33   1.415502 A    
N12   O28   1.301237 A    
C14   C28   1.405773 A    
N1    C7    1.363877 A    
C48   H14   1.110806 S    
N6    O15   1.301087 A    
O3    C1    1.286397 A    
O8    Cu1   1.937330 S    
C49   H21   1.109323 S    
C7    O12   1.348688 S    
C39   H5    1.079555 S    
C8    O11   1.348987 S    
Cu1   N4    2.008515 S    
H7    C44   1.084417 S    
C51   H27   1.102369 S    
C22   C24   1.414195 A    
C15   C17   1.406259 A    
N9    O21   1.300958 A    
C6    C22   1.408147 A    
C50   H20   1.110409 S    
C16   C18   1.412437 A    
C24   N8    1.436360 S    
C49   C50   1.528648 S    
C10   H3    1.083972 S    
C14   C16   1.402410 A    
N8    O19   1.301403 A    
C19   C21   1.419154 A    
N6    O16   1.301563 A    
C3    C27   1.480647 S    
C54   H30   1.110721 S    
C20   C22   1.415821 A    
C9    C11   1.407027 A    
O2    Cu2   1.943171 S    
C13   H1    1.080599 S    
C2    C42   1.460468 S    
C6    O10   1.348078 S    
C26   C37   1.416104 A    
C51   C52   1.529288 S    
C53   H31   1.111915 S    
C52   H25   1.110775 S    
C23   C39   1.393057 A    
C31   C40   1.406401 A    
