data_str_m9_o16_o23_f0_sra.sym.52
_audit_creation_date              2012-12-11T15:12:45-0500
_audit_creation_method            fapswitch 2.2
_symmetry_space_group_name_H-M    P1
_symmetry_Int_Tables_number       1
_space_group_crystal_system       triclinic
_cell_length_a                    22.33088
_cell_length_b                    6.939793
_cell_length_c                    19.351694
_cell_angle_alpha                 89.991319
_cell_angle_beta                  99.202082
_cell_angle_gamma                 89.99883
_cell_volume                      2960.36927307

loop_
_atom_site_label
_atom_site_type_symbol
_atom_type_description
_atom_site_fract_x
_atom_site_fract_y
_atom_site_fract_z
_atom_type_partial_charge
O1    O     O_R   0.448420 0.506120 0.415750 -0.535117
O2    O     O_R   0.551580 0.006120 0.584250 -0.535191
O3    O     O_R   0.436490 0.174470 0.555610 -0.536902
O4    O     O_R   0.563510 0.674470 0.444390 -0.535893
C1    C     C_R   0.420900 0.344672 0.575565 0.720066
C2    C     C_R   0.579098 0.844708 0.424446 0.719258
O5    O     O_R   0.441310 0.176330 0.414520 -0.536720
O6    O     O_R   0.558690 0.676330 0.585480 -0.536552
O7    O     O_R   0.556430 0.007110 0.442150 -0.536412
O8    O     O_R   0.443570 0.507110 0.557850 -0.534833
C3    C     C_R   0.426611 0.345190 0.388458 0.687086
C4    C     C_R   0.573407 0.845171 0.611523 0.687177
O9    O     O_3   0.537770 0.339560 0.509230 -0.365020
O10   O     O_3   0.462230 0.839560 0.490770 -0.364652
V1    V     V_3+5 0.492990 0.064280 0.498290 1.425207
V2    V     V_3+5 0.507010 0.564280 0.501710 1.427243
C5    C     C_R   0.868308 0.959302 0.693441 -0.232689
C6    C     C_R   0.131655 0.457883 0.306565 -0.232069
H1    H     H_    0.786058 0.944805 0.578631 0.123690
H2    H     H_    0.213854 0.442179 0.421380 0.121275
H3    H     H_    0.886575 0.975277 0.645130 0.123892
H4    H     H_    0.113364 0.473141 0.354892 0.124581
C7    C     C_R   0.885564 0.940995 0.820186 -0.142345
C8    C     C_R   0.114436 0.440907 0.179804 -0.142666
C9    C     C_R   0.590408 0.829489 0.740103 -0.163677
C10   C     C_R   0.409657 0.330728 0.259849 -0.164092
C11   C     C_R   0.627131 0.832232 0.805246 -0.125931
C12   C     C_R   0.372950 0.333923 0.194697 -0.125903
C13   C     C_R   0.689626 0.857557 0.810792 -0.159600
C14   C     C_R   0.310430 0.358687 0.189155 -0.159523
C15   C     C_R   0.717426 0.880985 0.750556 0.095356
C16   C     C_R   0.282587 0.381018 0.249407 0.095035
C17   C     C_R   0.679218 0.878892 0.683531 0.064830
C18   C     C_R   0.320776 0.378324 0.316441 0.065955
C19   C     C_R   0.781715 0.906883 0.754639 0.080581
C20   C     C_R   0.218282 0.406525 0.245334 0.080099
C21   C     C_R   0.805867 0.930740 0.691589 0.078491
C22   C     C_R   0.194099 0.429485 0.308401 0.079261
C23   C     C_R   0.767660 0.927026 0.626807 -0.182109
C24   C     C_R   0.232279 0.425058 0.373190 -0.179569
C25   C     C_R   0.705456 0.901676 0.622732 -0.189856
C26   C     C_R   0.294494 0.399962 0.377253 -0.191042
C27   C     C_R   0.823092 0.910014 0.818832 -0.289232
C28   C     C_R   0.176917 0.410120 0.181139 -0.288792
C29   C     C_R   0.907842 0.970351 0.757045 0.392157
C30   C     C_R   0.092143 0.469752 0.242968 0.391974
C31   C     C_R   0.615420 0.852993 0.678905 -0.085292
C32   C     C_R   0.384601 0.353110 0.321066 -0.085036
H5    H     H_    0.808350 0.890350 0.868725 0.113923
H6    H     H_    0.191673 0.390883 0.131234 0.113937
H7    H     H_    0.541978 0.808825 0.737367 0.101054
H8    H     H_    0.458110 0.310624 0.262578 0.100903
H9    H     H_    0.714836 0.858217 0.863095 0.104792
H10   H     H_    0.285236 0.359866 0.136845 0.104822
H11   H     H_    0.606932 0.814246 0.852110 0.113647
H12   H     H_    0.393181 0.316809 0.147819 0.113606
H13   H     H_    0.677967 0.900463 0.571281 0.107831
H14   H     H_    0.321968 0.398127 0.428707 0.104429
C33   C     C_3   0.801231 0.724724 0.252209 -0.325645
C34   C     C_3   0.200076 0.219948 0.749902 -0.328611
C35   C     C_3   0.801169 0.084007 0.263996 -0.372002
C36   C     C_3   0.198477 0.579737 0.735173 -0.330930
C37   C     C_3   0.751058 0.077953 0.312441 0.027957
C38   C     C_3   0.245792 0.563521 0.683519 0.028756
H15   H     H_    0.778227 0.691873 0.357607 0.136143
H16   H     H_    0.226213 0.170962 0.646638 0.137508
H17   H     H_    0.847932 0.715644 0.282477 0.144316
H18   H     H_    0.153992 0.209692 0.718170 0.142750
H19   H     H_    0.798643 0.224365 0.235834 0.127863
H20   H     H_    0.204042 0.721397 0.762395 0.123123
H21   H     H_    0.847492 0.074690 0.295082 0.143890
H22   H     H_    0.151169 0.575603 0.706515 0.153628
H23   H     H_    0.720497 0.202688 0.296553 0.128823
H24   H     H_    0.275137 0.694263 0.690330 0.123226
C39   C     C_1   0.625802 0.855357 0.380267 -0.203409
C40   C     C_1   0.374316 0.354816 0.619946 -0.192611
C41   C     C_3   0.793363 0.916101 0.210377 0.270138
C42   C     C_3   0.206839 0.414620 0.789965 0.258494
C43   C     C_3   0.754174 0.709822 0.303189 -0.340408
C44   C     C_3   0.248756 0.200002 0.701053 -0.336418
C45   C     C_3   0.711915 0.889491 0.296980 0.262999
C46   C     C_3   0.288228 0.384953 0.703542 0.240200
C47   C     C_3   0.680401 0.900750 0.219408 -0.380216
C48   C     C_3   0.319677 0.412015 0.780573 -0.365519
C49   C     C_3   0.727865 0.922941 0.169231 -0.338050
C50   C     C_3   0.272227 0.427009 0.831002 -0.338369
C51   C     C_1   0.664763 0.869293 0.343205 -0.074287
C52   C     C_1   0.335535 0.366600 0.657319 -0.106573
C53   C     C_1   0.838676 0.930184 0.161665 -0.088727
C54   C     C_1   0.161457 0.429684 0.838540 -0.090485
C55   C     C_1   0.875877 0.940301 0.122229 -0.199572
C56   C     C_1   0.124202 0.440214 0.877891 -0.198952
H25   H     H_    0.721365 0.805657 0.129519 0.143735
H26   H     H_    0.279906 0.308736 0.870272 0.144751
H27   H     H_    0.720345 0.062101 0.140563 0.140222
H28   H     H_    0.278516 0.565589 0.860204 0.138933
H29   H     H_    0.653056 0.768248 0.205339 0.150995
H30   H     H_    0.350628 0.288644 0.796723 0.150225
H31   H     H_    0.795480 0.600373 0.215436 0.140082
H32   H     H_    0.204743 0.098165 0.787801 0.141252
H33   H     H_    0.726435 0.577459 0.290621 0.137595
H34   H     H_    0.278130 0.073368 0.717720 0.141905
H35   H     H_    0.648404 0.024772 0.212099 0.135730
H36   H     H_    0.348069 0.544630 0.785123 0.135143
O11   O     O_R   0.056480 0.288780 0.942210 -0.540749
O12   O     O_R   0.943520 0.788780 0.057790 -0.540803
O13   O     O_R   0.058700 0.616820 0.085490 -0.549486
O14   O     O_R   0.941300 0.116820 0.914510 -0.549376
C57   C     C_R   0.072661 0.448463 0.112264 0.743308
C58   C     C_R   0.927338 0.948485 0.887732 0.743573
O15   O     O_R   0.063520 0.618570 0.944410 -0.531601
O16   O     O_R   0.936480 0.118570 0.055590 -0.531534
O17   O     O_R   0.948420 0.787670 0.915740 -0.533013
O18   O     O_R   0.051580 0.287670 0.084260 -0.533017
C59   C     C_R   0.078927 0.449874 0.923984 0.717248
C60   C     C_R   0.921097 0.949872 0.076052 0.717663
O19   O     O_3   0.962260 0.453430 0.990800 -0.368286
O20   O     O_3   0.037740 0.953430 0.009200 -0.368312
V3    V     V_3+5 0.007000 0.728750 0.001710 1.421912
V4    V     V_3+5 0.993000 0.228750 0.998290 1.422075
O21   O     O_3   0.969130 0.998500 0.756704 -0.583659
C61   C     C_3   0.983130 0.197260 0.764460 0.093161
H37   H     H_    0.027363 0.209413 0.799598 0.143556
H38   H     H_    0.949825 0.282281 0.789439 0.110776
C62   C     C_3   0.989781 0.286261 0.693697 -0.350482
H39   H     H_    0.026198 0.209813 0.671646 0.197841
H40   H     H_    0.946635 0.270365 0.656697 0.193483
C63   C     C_3   0.005438 0.500182 0.701085 -0.798094
H41   H     H_    0.968319 0.580278 0.720357 0.251791
H42   H     H_    0.011419 0.559741 0.649371 0.228183
H43   H     H_    0.048208 0.521255 0.738232 0.229854
O22   O     O_3   0.030841 0.497525 0.243356 -0.583729
C64   C     C_3   0.016686 0.696145 0.235435 0.092923
H44   H     H_    0.971736 0.707603 0.201685 0.143787
H45   H     H_    0.049131 0.780163 0.208828 0.111417
C65   C     C_3   0.012029 0.787227 0.306435 -0.352590
H46   H     H_    0.976899 0.710332 0.330584 0.198828
H47   H     H_    0.056164 0.774087 0.341813 0.193417
C66   C     C_3   0.995366 0.000334 0.298617 -0.798068
H48   H     H_    0.031011 0.080716 0.276633 0.252651
H49   H     H_    0.991420 0.061840 0.350659 0.226922
H50   H     H_    0.951305 0.018554 0.263550 0.230043
C67   C     C_3   0.778933 0.107837 0.390934 -0.358488
C68   C     C_3   0.739363 0.233028 0.430694 -0.781638
H51   H     H_    0.732656 0.377765 0.406241 0.220054
H52   H     H_    0.694535 0.166253 0.431727 0.240109
H53   H     H_    0.762219 0.251472 0.485627 0.219506
H54   H     H_    0.787624 0.968259 0.418576 0.182980
H55   H     H_    0.823335 0.182948 0.395299 0.183419
C69   C     C_3   0.213722 0.560160 0.606110 -0.351956
C70   C     C_3   0.188603 0.757867 0.581587 -0.798693
H56   H     H_    0.156144 0.811165 0.615070 0.230739
H57   H     H_    0.226292 0.862851 0.582965 0.224532
H58   H     H_    0.164576 0.747236 0.526856 0.221400
H59   H     H_    0.245928 0.516398 0.570836 0.185527
H60   H     H_    0.175982 0.453964 0.599234 0.185858

loop_
_geom_bond_atom_site_label_1
_geom_bond_atom_site_label_2
_ccdc_geom_bond_type
C22   C24   A    
H15   C43   S    
O12   V3    S    
C11   C13   A    
C33   H31   S    
O14   V4    S    
O1    C3    A    
O2    C4    A    
C63   H41   S    
C33   C41   S    
C2    O7    A    
C12   H12   S    
C2    C39   S    
C23   C25   A    
C42   C54   S    
O5    C3    A    
C14   H10   S    
C41   C53   S    
C47   H35   S    
C37   C45   S    
C7    C29   A    
C16   C20   A    
C19   C21   A    
C5    C29   A    
O19   V3    S    
C30   O22   S    
H2    C24   S    
C66   H50   S    
C11   H11   S    
C17   C31   A    
C67   C68   S    
C7    C27   A    
C55   C60   S    
C36   H20   S    
O15   V3    S    
C70   H58   S    
C35   C37   S    
O20   V3    S    
C36   C38   S    
C50   H26   S    
C33   H17   S    
O17   V3    S    
C49   H25   S    
C35   C41   S    
O22   C64   S    
C18   C26   A    
C62   C63   S    
C70   H56   S    
C15   C17   A    
O11   V4    S    
C53   C55   T    
C19   C27   A    
C9    C31   A    
C10   C32   A    
C42   C50   S    
C24   C26   A    
C41   C49   S    
O6    V2    S    
C69   H60   S    
O13   C57   A    
C26   H14   S    
C3    C32   S    
C4    C31   S    
C6    C30   A    
O13   V3    S    
C45   C47   S    
C36   C42   S    
C34   H32   S    
C67   H54   S    
C66   H49   S    
C68   H53   S    
C44   C46   S    
O19   V4    S    
C33   C43   S    
C43   C45   S    
C27   H5    S    
O5    V1    S    
C37   H23   S    
C29   O21   S    
C5    H3    S    
O12   C60   A    
C16   C18   A    
O4    V2    S    
C9    H7    S    
C10   H8    S    
C64   C65   S    
C54   C56   T    
O6    C4    A    
C34   C42   S    
C36   H22   S    
O1    V2    S    
C5    C21   A    
C50   H28   S    
C62   H40   S    
O2    V1    S    
C58   O17   A    
C38   C46   S    
O21   C61   S    
C45   C51   S    
H1    C23   S    
C57   O18   A    
C68   H52   S    
C47   C49   S    
C46   C48   S    
C69   H59   S    
O9    V1    S    
C64   H44   S    
C8    C28   A    
C15   C19   A    
C20   C28   A    
O4    C2    A    
C18   C32   A    
C61   H38   S    
C63   H43   S    
O16   C60   A    
O3    V1    S    
C65   H47   S    
O16   V4    S    
C35   H19   S    
C7    C58   S    
C40   C52   T    
C34   C44   S    
C38   H24   S    
C6    H4    S    
O11   C59   A    
C8    C57   S    
C48   C50   S    
C65   H46   S    
O3    C1    A    
C63   H42   S    
C66   H48   S    
C44   H34   S    
C9    C11   A    
H16   C44   S    
C10   C12   A    
C69   C70   S    
C68   H51   S    
C48   H30   S    
C61   C62   S    
C20   C22   A    
C6    C22   A    
C17   C25   A    
C1    O8    A    
C13   C15   A    
O8    V2    S    
C65   C66   S    
C14   C16   A    
C49   H27   S    
C48   H36   S    
C35   H21   S    
C62   H39   S    
C13   H9    S    
C1    C40   S    
C46   C52   S    
C12   C14   A    
O14   C58   A    
O10   V2    S    
C70   H57   S    
O7    V1    S    
C56   C59   S    
O20   V4    S    
C25   H13   S    
C67   H55   S    
C34   H18   S    
C28   H6    S    
C21   C23   A    
C47   H29   S    
O9    V2    S    
C38   C69   S    
C64   H45   S    
C37   C67   S    
O10   V1    S    
C43   H33   S    
O15   C59   A    
C61   H37   S    
O18   V4    S    
C39   C51   T    
C8    C30   A    
