data_str_m9_o11_o16_f0_sra.sym.95
_audit_creation_date              2012-12-11T14:17:50-0500
_audit_creation_method            fapswitch 2.2
_symmetry_space_group_name_H-M    P1
_symmetry_Int_Tables_number       1
_space_group_crystal_system       triclinic
_cell_length_a                    6.94433
_cell_length_b                    13.634476
_cell_length_c                    20.41526
_cell_angle_alpha                 102.106543
_cell_angle_beta                  89.92066
_cell_angle_gamma                 90.866466
_cell_volume                      1889.75403819

loop_
_atom_site_label
_atom_site_type_symbol
_atom_type_description
_atom_site_fract_x
_atom_site_fract_y
_atom_site_fract_z
_atom_type_partial_charge
O1    O     O_R   0.506860 0.599390 0.449240 -0.539727
O2    O     O_R   0.180220 0.594600 0.586780 -0.552836
O3    O     O_R   0.004500 0.400610 0.550760 -0.539093
C1    C     C_R   0.350031 0.618960 0.612303 0.716862
O4    O     O_R   0.177490 0.611290 0.451970 -0.540978
O5    O     O_R   0.001750 0.417420 0.414990 -0.539448
C2    C     C_R   0.347388 0.638092 0.435335 0.705384
O6    O     O_R   0.509610 0.582580 0.585010 -0.535419
O7    O     O_3   0.337420 0.436370 0.488020 -0.371910
V1    V     V_3+5 0.064680 0.511800 0.502220 1.416773
O8    O     O_R   0.671710 0.405400 0.413220 -0.546679
C3    C     C_R   0.839673 0.384017 0.386537 0.741282
O9    O     O_R   0.674440 0.388710 0.548030 -0.540487
C4    C     C_R   0.842171 0.361785 0.564589 0.697564
V2    V     V_3+5 0.564010 0.488200 0.497780 1.418970
O10   O     O_3   0.841140 0.563630 0.511980 -0.371455
C5    C     C_R   0.815646 0.110891 0.612532 -0.158060
H1    H     H_    0.807309 0.161279 0.519845 0.108993
H2    H     H_    0.805824 0.985781 0.695895 0.124504
H3    H     H_    0.797601 0.032838 0.587696 0.113909
C6    C     C_R   0.846222 0.284556 0.604505 -0.032060
C7    C     C_R   0.885330 0.314945 0.928006 -0.167411
C8    C     C_R   0.890734 0.390911 0.892139 -0.119847
C9    C     C_R   0.879375 0.368126 0.822453 -0.158454
C10   C     C_R   0.861576 0.267468 0.786505 0.077778
C11   C     C_R   0.853176 0.189922 0.823770 0.068054
C12   C     C_R   0.851823 0.241215 0.714986 0.072185
C13   C     C_R   0.830069 0.138549 0.682623 0.143391
C14   C     C_R   0.821800 0.064159 0.720290 -0.206886
C15   C     C_R   0.833969 0.089191 0.789662 -0.197810
C16   C     C_R   0.861935 0.313222 0.674208 -0.214791
C17   C     C_R   0.821921 0.183618 0.573779 -0.172842
C18   C     C_R   0.866061 0.214809 0.894637 -0.074823
H4    H     H_    0.878957 0.392349 0.694787 0.092800
H5    H     H_    0.896823 0.334262 0.982141 0.102081
H6    H     H_    0.884799 0.431268 0.798460 0.105387
H7    H     H_    0.905036 0.468306 0.918557 0.117872
H8    H     H_    0.827377 0.028524 0.816391 0.118688
C19   C     C_2   0.005224 0.288683 0.285167 -0.134004
C20   C     C_2   0.841923 0.315597 0.319783 -0.311225
H9    H     H_    0.142474 0.317282 0.307234 0.134184
H10   H     H_    0.703155 0.287481 0.299396 0.126475
C21   C     C_2   0.013766 0.220663 0.217556 -0.132996
C22   C     C_2   0.858723 0.183152 0.180394 -0.308786
H11   H     H_    0.156694 0.201645 0.197668 0.132333
H12   H     H_    0.714537 0.201364 0.198736 0.126245
C23   C     C_2   0.210431 0.793778 0.780952 -0.135500
C24   C     C_2   0.360099 0.808217 0.823605 -0.318855
H13   H     H_    0.077532 0.833807 0.794878 0.134923
H14   H     H_    0.488235 0.763606 0.811553 0.148509
C25   C     C_2   0.212974 0.717911 0.716762 -0.138515
C26   C     C_2   0.365435 0.698379 0.674340 0.019741
H15   H     H_    0.078369 0.677026 0.703418 0.109005
C27   C     C_R   0.432655 0.887958 0.388885 0.181652
H16   H     H_    0.428678 0.832768 0.480644 0.104744
H17   H     H_    0.467651 0.011733 0.301220 0.137585
C28   C     C_R   0.361254 0.715770 0.395831 -0.073774
C29   C     C_R   0.310777 0.687229 0.073069 -0.168993
C30   C     C_R   0.289146 0.612440 0.109429 -0.121141
C31   C     C_R   0.306766 0.635011 0.178970 -0.155443
C32   C     C_R   0.347347 0.734321 0.214394 0.090009
C33   C     C_R   0.372069 0.810292 0.176520 0.069753
C34   C     C_R   0.364469 0.760519 0.285888 0.037827
C35   C     C_R   0.410333 0.861633 0.318060 0.124638
C36   C     C_R   0.433790 0.934239 0.278918 -0.197788
C37   C     C_R   0.414251 0.909253 0.209817 -0.204142
C38   C     C_R   0.338217 0.689257 0.326531 -0.222278
C39   C     C_R   0.409163 0.814055 0.426743 -0.169794
C40   C     C_R   0.352622 0.785793 0.105795 -0.074807
H18   H     H_    0.302178 0.611799 0.306125 0.102794
H19   H     H_    0.294364 0.668258 0.019078 0.102272
H20   H     H_    0.288121 0.572565 0.203122 0.106671
H21   H     H_    0.257452 0.536158 0.083519 0.118593
H22   H     H_    0.433695 0.968798 0.182577 0.119721
O11   O     O_R   0.203230 0.917310 0.915020 -0.538102
O12   O     O_R   0.535500 0.888690 0.048040 -0.541620
O13   O     O_R   0.711080 0.082610 0.085000 -0.545009
C41   C     C_R   0.365807 0.862593 0.065273 0.686698
O14   O     O_R   0.532630 0.905370 0.913230 -0.547930
O15   O     O_R   0.708190 0.099410 0.949230 -0.538656
C42   C     C_R   0.363732 0.882681 0.887309 0.745059
O16   O     O_R   0.206120 0.900510 0.050790 -0.538263
O17   O     O_3   0.375360 0.063570 0.011990 -0.372500
V3    V     V_3+5 0.648170 0.988200 0.997780 1.413511
O18   O     O_R   0.038240 0.111390 0.951940 -0.540672
C43   C     C_R   0.870533 0.137435 0.934742 0.688003
O19   O     O_R   0.041120 0.094710 0.086750 -0.542157
C44   C     C_R   0.872611 0.115682 0.113548 0.743797
V4    V     V_3+5 0.148810 0.011930 0.002180 1.422185
O20   O     O_3   0.871750 0.936430 0.988010 -0.372213
C45   C     C_3   0.548789 0.761534 0.683761 -0.770866
H23   H     H_    0.610638 0.766864 0.634392 0.196986
H24   H     H_    0.521848 0.839821 0.710352 0.221629
H25   H     H_    0.657358 0.726601 0.711157 0.197817
C46   C     C_3   0.483509 0.993500 0.425150 -0.817791
H26   H     H_    0.369899 0.045750 0.416383 0.210142
H27   H     H_    0.495968 0.999651 0.480124 0.211686
H28   H     H_    0.624130 0.016955 0.406964 0.207170

loop_
_geom_bond_atom_site_label_1
_geom_bond_atom_site_label_2
_ccdc_geom_bond_type
O19   C44   A    
C46   H26   S    
O15   V3    S    
O12   V3    S    
H16   C39   S    
C46   H28   S    
C19   H9    S    
O18   C43   A    
C7    H5    S    
C6    C16   A    
C9    H6    S    
O16   V4    S    
C1    C26   S    
C4    C6    S    
C13   C14   A    
O12   C41   A    
O5    C3    A    
O14   V3    S    
C29   H19   S    
C27   C39   A    
C31   H20   S    
H17   C36   S    
C37   H22   S    
C5    H3    S    
C24   C42   S    
C15   H8    S    
C32   C34   A    
O15   C43   A    
O8    V2    S    
C23   C24   D    
O13   C44   A    
C8    C9    A    
O1    V2    S    
O7    V1    S    
C30   H21   S    
C1    O6    A    
C20   H10   S    
C30   C31   A    
O9    C4    A    
C40   C41   S    
V3    O20   S    
C28   C38   A    
C22   H12   S    
O17   V4    S    
C6    C17   A    
C34   C38   A    
C33   C37   A    
C12   C16   A    
C25   C26   D    
C9    C10   A    
C23   H13   S    
C45   H23   S    
O14   C42   A    
O18   V4    S    
O11   C42   A    
C23   C25   S    
O13   V3    S    
C10   C11   A    
C8    H7    S    
C33   C40   A    
C31   C32   A    
C25   H15   S    
C3    C20   S    
O2    C1    A    
C21   C22   D    
C14   C15   A    
C45   H24   S    
C41   O16   A    
C11   C18   A    
O17   V3    S    
C16   H4    S    
C21   H11   S    
C27   C46   S    
O3    C4    A    
C11   C15   A    
O6    V2    S    
O19   V4    S    
H1    C17   S    
C28   C39   A    
O2    V1    S    
C19   C20   D    
O4    C2    A    
C7    C18   A    
O1    C2    A    
C5    C13   A    
O5    V1    S    
C19   C21   S    
O8    C3    A    
C46   H27   S    
C29   C40   A    
C10   C12   A    
C38   H18   S    
C35   C36   A    
O9    V2    S    
C29   C30   A    
O4    V1    S    
O3    V1    S    
V1    O10   S    
C45   H25   S    
C27   C35   A    
C24   H14   S    
O7    V2    S    
C32   C33   A    
O11   V4    S    
C34   C35   A    
C36   C37   A    
C12   C13   A    
C5    C17   A    
C7    C8    A    
C26   C45   S    
V4    O20   S    
C22   C44   S    
C2    C28   S    
C18   C43   S    
V2    O10   S    
H2    C14   S    
