data_str_m12_o30_o30_f0_the.sym.19
_audit_creation_date              2012-12-11T14:05:39-0500
_audit_creation_method            fapswitch 2.2
_symmetry_space_group_name_H-M    P1
_symmetry_Int_Tables_number       1
_space_group_crystal_system       monoclinic
_cell_length_a                    17.649479
_cell_length_b                    17.649477
_cell_length_c                    17.649475
_cell_angle_alpha                 90.0
_cell_angle_beta                  90.000016
_cell_angle_gamma                 90.0
_cell_volume                      5497.88336068

loop_
_atom_site_label
_atom_site_type_symbol
_atom_type_description
_atom_site_fract_x
_atom_site_fract_y
_atom_site_fract_z
_atom_type_partial_charge
C1    C     C_R   0.681739 0.778221 0.219486 0.117985
C2    C     C_R   0.318261 0.780514 0.221778 0.117984
C3    C     C_R   0.905542 0.816382 0.617239 0.433265
C4    C     C_R   0.100870 0.393093 0.814514 0.403593
C5    C     C_R   0.905542 0.617239 0.183618 0.433265
C6    C     C_R   0.100870 0.814514 0.606906 0.403594
C7    C     C_R   0.905542 0.183618 0.382761 0.433265
C8    C     C_R   0.814514 0.899130 0.606906 0.403593
C9    C     C_R   0.183618 0.094458 0.382761 0.433266
C10   C     C_R   0.606906 0.899130 0.185486 0.403593
C11   C     C_R   0.382761 0.094458 0.816382 0.433265
C12   C     C_R   0.185486 0.899130 0.393093 0.403594
C13   C     C_R   0.221778 0.318261 0.780514 0.117985
C14   C     C_R   0.816382 0.094458 0.617239 0.433265
C15   C     C_R   0.393093 0.899130 0.814514 0.403593
C16   C     C_R   0.617239 0.094458 0.183618 0.433266
C17   C     C_R   0.185486 0.100870 0.606906 0.403593
C18   C     C_R   0.816382 0.905542 0.382761 0.433265
C19   C     C_R   0.393093 0.100870 0.185486 0.403594
C20   C     C_R   0.617239 0.905542 0.816382 0.433265
C21   C     C_R   0.814514 0.100870 0.393093 0.403594
C22   C     C_R   0.183618 0.905542 0.617239 0.433266
C23   C     C_R   0.606906 0.100870 0.814514 0.403594
C24   C     C_R   0.780514 0.681739 0.221778 0.117985
C25   C     C_R   0.382761 0.905542 0.183618 0.433265
C26   C     C_R   0.318261 0.778221 0.780514 0.117985
C27   C     C_R   0.681739 0.219486 0.221778 0.117985
C28   C     C_R   0.778221 0.681739 0.780514 0.117984
C29   C     C_R   0.219486 0.318261 0.221778 0.117985
C30   C     C_R   0.219486 0.221778 0.681739 0.117985
C31   C     C_R   0.778221 0.780514 0.318261 0.117985
C32   C     C_R   0.219486 0.778221 0.318261 0.117985
C33   C     C_R   0.318261 0.219486 0.778221 0.117985
C34   C     C_R   0.778221 0.219486 0.681739 0.117985
C35   C     C_R   0.780514 0.221778 0.318261 0.117984
C36   C     C_R   0.221778 0.780514 0.681739 0.117985
C37   C     C_R   0.780514 0.778221 0.681739 0.117985
C38   C     C_R   0.221779 0.219486 0.318261 0.117985
C39   C     C_R   0.633541 0.829873 0.826553 -0.245656
C40   C     C_R   0.366459 0.173447 0.170127 -0.245656
C41   C     C_R   0.170127 0.633541 0.826553 -0.245654
C42   C     C_R   0.826553 0.366459 0.170127 -0.245655
C43   C     C_R   0.366458 0.170127 0.826553 -0.245655
C44   C     C_R   0.221778 0.681739 0.219486 0.117985
C45   C     C_R   0.633541 0.826553 0.170127 -0.245656
C46   C     C_R   0.829873 0.366459 0.826553 -0.245655
C47   C     C_R   0.173447 0.633541 0.170127 -0.245656
C48   C     C_R   0.633541 0.170127 0.173447 -0.245656
C49   C     C_R   0.366459 0.826553 0.829873 -0.245656
C50   C     C_R   0.170127 0.366459 0.173447 -0.245655
C51   C     C_R   0.826553 0.633541 0.829873 -0.245655
C52   C     C_R   0.366458 0.829873 0.173447 -0.245655
C53   C     C_R   0.633541 0.173447 0.829873 -0.245655
C54   C     C_R   0.829873 0.633541 0.173447 -0.245656
C55   C     C_R   0.780514 0.318261 0.778221 0.117985
C56   C     C_R   0.173447 0.366459 0.829873 -0.245655
C57   C     C_R   0.826553 0.170127 0.633541 -0.245655
C58   C     C_R   0.170127 0.826553 0.366459 -0.245656
C59   C     C_R   0.826553 0.829873 0.366459 -0.245656
C60   C     C_R   0.170127 0.173447 0.633541 -0.245655
C61   C     C_R   0.173447 0.170127 0.366459 -0.245656
C62   C     C_R   0.829873 0.826553 0.633541 -0.245655
C63   C     C_R   0.173447 0.829873 0.633541 -0.245656
C64   C     C_R   0.829873 0.173447 0.366459 -0.245656
C65   C     C_R   0.714192 0.711875 0.190742 -0.195947
C66   C     C_R   0.318261 0.221779 0.219486 0.117985
C67   C     C_R   0.288124 0.285808 0.809257 -0.195948
C68   C     C_R   0.288124 0.714192 0.190742 -0.195947
C69   C     C_R   0.714192 0.288124 0.809257 -0.195948
C70   C     C_R   0.285808 0.288124 0.190742 -0.195947
C71   C     C_R   0.711876 0.714192 0.809257 -0.195947
C72   C     C_R   0.711876 0.285808 0.190742 -0.195947
C73   C     C_R   0.285808 0.711875 0.809257 -0.195947
C74   C     C_R   0.190742 0.714192 0.711875 -0.195948
C75   C     C_R   0.809257 0.288125 0.285808 -0.195946
C76   C     C_R   0.190742 0.288124 0.714192 -0.195947
C77   C     C_R   0.681739 0.780514 0.778221 0.117985
C78   C     C_R   0.809257 0.714192 0.288124 -0.195947
C79   C     C_R   0.190742 0.285808 0.288124 -0.195948
C80   C     C_R   0.809257 0.711875 0.714191 -0.195947
C81   C     C_R   0.190742 0.711875 0.285808 -0.195947
C82   C     C_R   0.809257 0.285808 0.711876 -0.195947
C83   C     C_R   0.711876 0.190742 0.714192 -0.195947
C84   C     C_R   0.285808 0.809257 0.288124 -0.195947
C85   C     C_R   0.714192 0.190742 0.288124 -0.195947
C86   C     C_R   0.288124 0.809257 0.714192 -0.195947
C87   C     C_R   0.288124 0.190742 0.285808 -0.195947
C88   C     C_R   0.778221 0.318261 0.219486 0.117984
C89   C     C_R   0.714192 0.809258 0.711876 -0.195948
C90   C     C_R   0.285808 0.190742 0.711875 -0.195947
C91   C     C_R   0.711875 0.809257 0.285808 -0.195947
C92   C     C_R   0.606907 0.814514 0.899130 0.403593
C93   C     C_R   0.382761 0.183618 0.094458 0.433266
C94   C     C_R   0.185486 0.606906 0.899130 0.403593
C95   C     C_R   0.816382 0.382761 0.094458 0.433265
C96   C     C_R   0.393093 0.185486 0.899130 0.403594
C97   C     C_R   0.617239 0.816382 0.094458 0.433266
C98   C     C_R   0.814514 0.393093 0.899130 0.403593
C99   C     C_R   0.219486 0.681739 0.778221 0.117984
C100  C     C_R   0.183618 0.617239 0.094458 0.433266
C101  C     C_R   0.606906 0.185486 0.100870 0.403594
C102  C     C_R   0.382761 0.816382 0.905542 0.433266
C103  C     C_R   0.185486 0.393093 0.100870 0.403593
C104  C     C_R   0.816382 0.617239 0.905541 0.433265
C105  C     C_R   0.393093 0.814514 0.100870 0.403593
C106  C     C_R   0.617239 0.183618 0.905542 0.433265
C107  C     C_R   0.814514 0.606906 0.100870 0.403593
C108  C     C_R   0.183618 0.382761 0.905542 0.433265
C109  C     C_R   0.899130 0.606906 0.814514 0.403594
C110  C     C_R   0.681739 0.221778 0.780514 0.117985
C111  C     C_R   0.094458 0.382761 0.183618 0.433266
C112  C     C_R   0.899130 0.185486 0.606907 0.403593
C113  C     C_R   0.094458 0.816382 0.382761 0.433265
C114  C     C_R   0.899130 0.393093 0.185486 0.403593
C115  C     C_R   0.094458 0.617239 0.816382 0.433265
C116  C     C_R   0.899130 0.814514 0.393093 0.403594
C117  C     C_R   0.094458 0.183618 0.617239 0.433265
C118  C     C_R   0.100870 0.606906 0.185486 0.403593
C119  C     C_R   0.905542 0.382761 0.816382 0.433265
C120  C     C_R   0.100870 0.185486 0.393093 0.403594
H1    H     H_    0.693933 0.688971 0.138726 0.175243
H2    H     H_    0.861274 0.311029 0.306067 0.175243
H3    H     H_    0.138726 0.311029 0.693933 0.175243
H4    H     H_    0.861274 0.693933 0.311029 0.175243
H5    H     H_    0.138726 0.306067 0.311029 0.175243
H6    H     H_    0.861274 0.688971 0.693933 0.175243
H7    H     H_    0.138726 0.688971 0.306067 0.175243
H8    H     H_    0.861274 0.306066 0.688971 0.175243
H9    H     H_    0.688971 0.138726 0.693933 0.175243
H10   H     H_    0.306066 0.861274 0.311029 0.175243
H11   H     H_    0.693933 0.138726 0.311029 0.175243
H12   H     H_    0.311029 0.306067 0.861274 0.175244
H13   H     H_    0.311029 0.861274 0.693933 0.175243
H14   H     H_    0.311029 0.138726 0.306067 0.175243
H15   H     H_    0.693934 0.861274 0.688971 0.175243
H16   H     H_    0.306067 0.138726 0.688971 0.175243
H17   H     H_    0.688971 0.861274 0.306067 0.175243
H18   H     H_    0.565959 0.716181 0.872367 0.342464
H19   H     H_    0.348501 0.261754 0.031562 0.302450
H20   H     H_    0.283819 0.565959 0.872367 0.342464
H21   H     H_    0.738245 0.348501 0.031562 0.302450
H22   H     H_    0.434041 0.283819 0.872367 0.342464
H23   H     H_    0.311029 0.693933 0.138726 0.175243
H24   H     H_    0.651499 0.738245 0.031562 0.302451
H25   H     H_    0.716181 0.434041 0.872367 0.342465
H26   H     H_    0.261754 0.651499 0.031562 0.302450
H27   H     H_    0.565959 0.283819 0.127633 0.342464
H28   H     H_    0.348501 0.738245 0.968438 0.302450
H29   H     H_    0.283819 0.434041 0.127633 0.342465
H30   H     H_    0.738246 0.651499 0.968438 0.302450
H31   H     H_    0.434041 0.716181 0.127633 0.342464
H32   H     H_    0.651499 0.261754 0.968438 0.302450
H33   H     H_    0.716181 0.565959 0.127633 0.342464
H34   H     H_    0.693933 0.311029 0.861274 0.175244
H35   H     H_    0.261754 0.348501 0.968438 0.302451
H36   H     H_    0.872367 0.565959 0.716181 0.342464
H37   H     H_    0.031562 0.348501 0.261754 0.302450
H38   H     H_    0.872367 0.283819 0.565959 0.342464
H39   H     H_    0.031562 0.738245 0.348501 0.302450
H40   H     H_    0.872367 0.434041 0.283819 0.342464
H41   H     H_    0.031562 0.651499 0.738245 0.302451
H42   H     H_    0.872367 0.716181 0.434041 0.342464
H43   H     H_    0.031562 0.261754 0.651499 0.302450
H44   H     H_    0.127633 0.565959 0.283819 0.342464
H45   H     H_    0.306067 0.311029 0.138726 0.175243
H46   H     H_    0.968438 0.348501 0.738245 0.302451
H47   H     H_    0.127633 0.283819 0.434041 0.342464
H48   H     H_    0.968438 0.738245 0.651499 0.302450
H49   H     H_    0.127633 0.434041 0.716181 0.342464
H50   H     H_    0.968438 0.651499 0.261754 0.302451
H51   H     H_    0.127633 0.716181 0.565959 0.342464
H52   H     H_    0.968438 0.261754 0.348501 0.302450
H53   H     H_    0.716181 0.872367 0.565959 0.342464
H54   H     H_    0.261754 0.031562 0.348501 0.302451
H55   H     H_    0.565959 0.872367 0.283819 0.342464
H56   H     H_    0.688971 0.693933 0.861274 0.175243
H57   H     H_    0.348501 0.031562 0.738245 0.302451
H58   H     H_    0.283819 0.872367 0.434041 0.342464
H59   H     H_    0.738246 0.031562 0.651499 0.302450
H60   H     H_    0.434041 0.872367 0.716181 0.342464
H61   H     H_    0.651499 0.031562 0.261755 0.302451
H62   H     H_    0.283819 0.127633 0.565959 0.342465
H63   H     H_    0.738245 0.968438 0.348501 0.302450
H64   H     H_    0.434041 0.127633 0.283819 0.342464
H65   H     H_    0.651499 0.968438 0.738245 0.302451
H66   H     H_    0.716181 0.127633 0.434041 0.342464
H67   H     H_    0.688971 0.306067 0.138726 0.175243
H68   H     H_    0.261755 0.968438 0.651499 0.302451
H69   H     H_    0.565959 0.127633 0.716181 0.342464
H70   H     H_    0.348501 0.968438 0.261755 0.302451
H71   H     H_    0.306067 0.688971 0.861274 0.175243
H72   H     H_    0.138726 0.693933 0.688971 0.175244
N1    N     N_R   0.584840 0.879720 0.932190 -0.112481
N2    N     N_R   0.415160 0.879720 0.932190 -0.113797
N3    N     N_R   0.120280 0.415160 0.067810 -0.112482
N4    N     N_R   0.879720 0.584840 0.932190 -0.113797
N5    N     N_R   0.415160 0.879720 0.067810 -0.112482
N6    N     N_R   0.584840 0.120280 0.932190 -0.113797
N7    N     N_R   0.879720 0.584840 0.067810 -0.112482
N8    N     N_R   0.120280 0.415160 0.932190 -0.113797
N9    N     N_R   0.932190 0.584840 0.879720 -0.112481
N10   N     N_R   0.067810 0.415160 0.120280 -0.113797
N11   N     N_R   0.932190 0.120280 0.584840 -0.112481
N12   N     N_R   0.415160 0.120280 0.067810 -0.113797
N13   N     N_R   0.067810 0.879720 0.415160 -0.113797
N14   N     N_R   0.932190 0.415160 0.120280 -0.112481
N15   N     N_R   0.067810 0.584840 0.879720 -0.113797
N16   N     N_R   0.932190 0.879720 0.415160 -0.112482
N17   N     N_R   0.067810 0.120280 0.584840 -0.113797
N18   N     N_R   0.067810 0.584840 0.120280 -0.112482
N19   N     N_R   0.932190 0.415160 0.879720 -0.113797
N20   N     N_R   0.067810 0.120280 0.415160 -0.112482
N21   N     N_R   0.932190 0.879720 0.584840 -0.113797
N22   N     N_R   0.067810 0.415160 0.879720 -0.112481
N23   N     N_R   0.120280 0.584840 0.932190 -0.112482
N24   N     N_R   0.932190 0.584840 0.120280 -0.113797
N25   N     N_R   0.067810 0.879720 0.584840 -0.112482
N26   N     N_R   0.932190 0.120280 0.415160 -0.113797
N27   N     N_R   0.879720 0.932190 0.584840 -0.112482
N28   N     N_R   0.120280 0.067810 0.415160 -0.113797
N29   N     N_R   0.584840 0.932190 0.120280 -0.112482
N30   N     N_R   0.415160 0.067810 0.879720 -0.113797
N31   N     N_R   0.120280 0.932190 0.415160 -0.112482
N32   N     N_R   0.879720 0.067810 0.584840 -0.113797
N33   N     N_R   0.415160 0.932190 0.879720 -0.112482
N34   N     N_R   0.879720 0.415160 0.067810 -0.113797
N35   N     N_R   0.584840 0.067810 0.120280 -0.113797
N36   N     N_R   0.120280 0.067810 0.584840 -0.112482
N37   N     N_R   0.879720 0.932190 0.415160 -0.113797
N38   N     N_R   0.415160 0.067810 0.120280 -0.112481
N39   N     N_R   0.584840 0.932190 0.879720 -0.113797
N40   N     N_R   0.879720 0.067810 0.415160 -0.112482
N41   N     N_R   0.120280 0.932190 0.584840 -0.113797
N42   N     N_R   0.584840 0.067810 0.879720 -0.112482
N43   N     N_R   0.415160 0.932190 0.120280 -0.113797
N44   N     N_R   0.415160 0.120280 0.932190 -0.112482
N45   N     N_R   0.584840 0.879720 0.067810 -0.113797
N46   N     N_R   0.879720 0.415160 0.932190 -0.112482
N47   N     N_R   0.120280 0.584840 0.067810 -0.113797
N48   N     N_R   0.584840 0.120280 0.067810 -0.112482
Ni1   Ni    Ni4+2 0.500000 0.880920 0.000000 0.327369
Ni2   Ni    Ni4+2 0.119080 0.000000 0.500000 0.327368
Ni3   Ni    Ni4+2 0.500000 0.000000 0.119080 0.327369
Ni4   Ni    Ni4+2 0.500000 0.000000 0.880920 0.327369
Ni5   Ni    Ni4+2 0.500000 0.119080 0.000000 0.327369
Ni6   Ni    Ni4+2 0.119080 0.500000 0.000000 0.327369
Ni7   Ni    Ni4+2 0.880920 0.500000 0.000000 0.327368
Ni8   Ni    Ni4+2 0.000000 0.500000 0.880920 0.327369
Ni9   Ni    Ni4+2 0.000000 0.500000 0.119080 0.327369
Ni10  Ni    Ni4+2 1.000000 0.119080 0.500000 0.327369
Ni11  Ni    Ni4+2 0.000000 0.880920 0.500000 0.327369
Ni12  Ni    Ni4+2 0.880920 0.000000 0.500000 0.327369
O1    O     O_3   0.573020 0.747000 0.918808 -0.641663
O2    O     O_3   0.394623 0.747179 0.937704 -0.629142
O3    O     O_3   0.253000 0.426980 0.081192 -0.641662
O4    O     O_3   0.747179 0.605377 0.937703 -0.629142
O5    O     O_3   0.426980 0.747000 0.081192 -0.641663
O6    O     O_3   0.605377 0.252821 0.937704 -0.629142
O7    O     O_3   0.747000 0.573020 0.081192 -0.641662
O8    O     O_3   0.252821 0.394623 0.937704 -0.629142
O9    O     O_3   0.918808 0.573020 0.747000 -0.641663
O10   O     O_3   0.062296 0.394623 0.252821 -0.629142
O11   O     O_3   0.918808 0.253000 0.573020 -0.641662
O12   O     O_3   0.394623 0.252821 0.062296 -0.629141
O13   O     O_3   0.062296 0.747179 0.394623 -0.629142
O14   O     O_3   0.918808 0.426980 0.253000 -0.641662
O15   O     O_3   0.062296 0.605377 0.747179 -0.629142
O16   O     O_3   0.918808 0.747000 0.426980 -0.641662
O17   O     O_3   0.062296 0.252821 0.605377 -0.629142
O18   O     O_3   0.081192 0.573020 0.253000 -0.641662
O19   O     O_3   0.937703 0.394623 0.747179 -0.629142
O20   O     O_3   0.081192 0.253000 0.426980 -0.641662
O21   O     O_3   0.937703 0.747179 0.605377 -0.629142
O22   O     O_3   0.081192 0.426980 0.747000 -0.641663
O23   O     O_3   0.253000 0.573020 0.918808 -0.641663
O24   O     O_3   0.937704 0.605377 0.252821 -0.629142
O25   O     O_3   0.081192 0.747000 0.573020 -0.641662
O26   O     O_3   0.937704 0.252821 0.394623 -0.629141
O27   O     O_3   0.747000 0.918808 0.573020 -0.641662
O28   O     O_3   0.252821 0.062296 0.394623 -0.629142
O29   O     O_3   0.573020 0.918808 0.253000 -0.641662
O30   O     O_3   0.394623 0.062296 0.747179 -0.629142
O31   O     O_3   0.253000 0.918808 0.426980 -0.641663
O32   O     O_3   0.747179 0.062296 0.605377 -0.629141
O33   O     O_3   0.426980 0.918808 0.747000 -0.641662
O34   O     O_3   0.747179 0.394623 0.062296 -0.629142
O35   O     O_3   0.605377 0.062296 0.252821 -0.629142
O36   O     O_3   0.253000 0.081192 0.573020 -0.641663
O37   O     O_3   0.747179 0.937703 0.394623 -0.629142
O38   O     O_3   0.426980 0.081192 0.253000 -0.641662
O39   O     O_3   0.605377 0.937703 0.747179 -0.629142
O40   O     O_3   0.747000 0.081192 0.426980 -0.641662
O41   O     O_3   0.252821 0.937703 0.605377 -0.629142
O42   O     O_3   0.573020 0.081192 0.747000 -0.641663
O43   O     O_3   0.394623 0.937703 0.252821 -0.629142
O44   O     O_3   0.426980 0.253000 0.918808 -0.641662
O45   O     O_3   0.605377 0.747179 0.062296 -0.629142
O46   O     O_3   0.747000 0.426980 0.918808 -0.641663
O47   O     O_3   0.252821 0.605377 0.062296 -0.629142
O48   O     O_3   0.573020 0.253000 0.081192 -0.641662

loop_
_geom_bond_atom_site_label_1
_geom_bond_atom_site_label_2
_ccdc_geom_bond_type
C27   C48   S    
C1    C65   A    
C68   H23   S    
C40   C93   A    
N21   N27   A    
N34   Ni7   S    
C32   C81   A    
N30   N44   A    
C54   C107  A    
C29   C70   A    
C17   N36   A    
C24   C54   S    
C111  N10   A    
C100  N47   A    
C31   C59   S    
C23   N42   A    
C53   C106  A    
C46   C55   S    
N14   N34   A    
C58   C113  A    
N40   Ni12  S    
N18   Ni9   S    
H51   O25   S    
C92   O1    S    
C105  N5    A    
C46   C98   A    
C50   C103  A    
C1    C91   A    
C4    C56   A    
C101  N48   A    
N26   Ni10  S    
C102  N2    A    
N3    Ni6   S    
H59   O32   S    
C4    N22   A    
C42   C95   A    
C44   C81   A    
N25   N41   A    
C94   O23   S    
N20   N28   A    
C36   C86   A    
C51   C104  A    
H57   O30   S    
N13   N31   A    
N29   N45   A    
C6    C63   A    
C12   N31   A    
C6    N25   A    
C30   C76   A    
C41   C94   A    
C77   C89   A    
C43   C96   A    
C60   C117  A    
N43   Ni3   S    
C2    C52   S    
C24   C65   A    
C9    N28   A    
N27   Ni12  S    
N48   Ni5   S    
C28   C71   A    
H33   O7    S    
C97   N45   A    
C14   C57   A    
H49   O22   S    
C117  O17   S    
C3    N21   A    
C95   O34   S    
C119  O19   S    
C69   H34   S    
C120  O20   S    
C85   H11   S    
C66   C70   A    
C80   H6    S    
N35   N48   A    
C84   H10   S    
N11   N32   A    
C15   O33   S    
C15   C49   A    
C11   O30   S    
C22   O41   S    
H22   O44   S    
C8    C62   A    
C120  N20   A    
H40   O14   S    
H46   O19   S    
H65   O39   S    
H66   O40   S    
N33   Ni4   S    
C15   N33   A    
N47   Ni6   S    
C9    C61   A    
N2    N33   A    
C83   H9    S    
C2    C68   A    
C114  O14   S    
C48   C101  A    
N6    Ni5   S    
C71   H56   S    
C107  O7    S    
H60   O33   S    
C56   C108  A    
C21   C64   A    
C22   C63   A    
C42   C114  A    
N24   Ni9   S    
C19   O38   S    
N8    N22   A    
C9    O28   S    
N17   N36   A    
C23   O42   S    
N12   Ni5   S    
N17   Ni10  S    
C13   C56   S    
C79   H5    S    
C20   N39   A    
C25   O43   S    
C61   C120  A    
C87   H14   S    
C41   C115  A    
C23   C53   A    
C37   C80   A    
C5    C54   A    
H47   O20   S    
H63   O37   S    
C70   H45   S    
C112  O11   S    
C21   N40   A    
C100  O47   S    
C113  N13   A    
N46   Ni7   S    
C72   H67   S    
C69   C110  A    
N26   N40   A    
C10   C45   A    
C83   C110  A    
C21   O40   S    
C55   C69   A    
C16   O35   S    
C82   H8    S    
C116  N16   A    
C52   C105  A    
C31   C91   A    
N20   Ni10  S    
C71   C77   A    
C8    O27   S    
H31   O5    S    
N29   Ni3   S    
C3    C62   A    
N1    Ni1   S    
C116  O16   S    
H29   O3    S    
C119  N19   A    
N45   Ni1   S    
N18   N47   A    
C117  N17   A    
N39   Ni4   S    
C25   C52   A    
C8    N27   A    
C107  N7    A    
C35   C85   A    
C1    C45   S    
H41   O15   S    
H42   O16   S    
C50   C111  A    
N21   Ni11  S    
C44   C68   A    
C19   C40   A    
N32   Ni12  S    
C17   C60   A    
C18   C59   A    
N10   Ni9   S    
C51   C109  A    
N42   Ni4   S    
N25   Ni11  S    
N4    N9    A    
C118  O18   S    
C98   O46   S    
C89   H15   S    
N2    Ni1   S    
C75   H2    S    
C103  O3    S    
C2    C84   A    
C67   H12   S    
C32   C58   S    
C30   C90   A    
C37   C62   S    
N5    N43   A    
H28   O2    S    
N5    Ni1   S    
C94   N23   A    
H43   O17   S    
H20   O23   S    
C28   C51   S    
C38   C79   A    
C26   C73   A    
C27   C85   A    
C7    N26   A    
H24   O45   S    
C47   C118  A    
C59   C116  A    
C41   C99   S    
C65   H1    S    
N16   N37   A    
C106  N6    A    
C93   O12   S    
H37   O10   S    
C40   C66   S    
C81   H7    S    
C20   O39   S    
C103  N3    A    
C115  O15   S    
C3    O21   S    
C32   C84   A    
C97   O45   S    
C92   N1    A    
C26   C49   S    
C17   O36   S    
H25   O46   S    
C14   O32   S    
N28   Ni2   S    
C102  O2    S    
C111  O10   S    
C22   N41   A    
C86   H13   S    
C29   C79   A    
H58   O31   S    
N15   N23   A    
C104  N4    A    
N19   N46   A    
C36   C74   A    
C24   C78   A    
N4    Ni7   S    
N1    N39   A    
C109  O9    S    
C39   C92   A    
C49   C102  A    
C31   C78   A    
H69   O42   S    
C20   C39   A    
H44   O18   S    
C105  O5    S    
N44   Ni5   S    
C18   N37   A    
C74   C99   A    
C98   N46   A    
C37   C89   A    
C38   C87   A    
C4    O22   S    
C109  N9    A    
C19   N38   A    
H61   O35   S    
C12   O31   S    
H62   O36   S    
H36   O9    S    
H32   O6    S    
N23   Ni6   S    
H38   O11   S    
N22   Ni8   S    
C112  N11   A    
C6    O25   S    
H52   O26   S    
C27   C72   A    
H53   O27   S    
C53   C110  S    
H54   O28   S    
C16   N35   A    
C115  N15   A    
H50   O24   S    
N15   Ni8   S    
C16   C48   A    
N3    N10   A    
H26   O47   S    
C35   C75   A    
C39   C77   S    
C10   O29   S    
C14   N32   A    
N35   Ni3   S    
C57   C112  A    
N31   Ni2   S    
N11   Ni10  S    
N14   Ni9   S    
C93   N12   A    
N38   Ni3   S    
C10   N29   A    
C91   H17   S    
C30   C60   S    
C34   C57   S    
C11   C43   A    
C35   C64   S    
C36   C63   S    
C78   H4    S    
H68   O41   S    
C44   C47   S    
N7    Ni7   S    
C38   C61   S    
C12   C58   A    
H70   O43   S    
N9    Ni8   S    
H19   O12   S    
C11   N30   A    
C72   C88   A    
C29   C50   S    
C18   O37   S    
N7    N24   A    
C33   C43   S    
C101  O48   S    
N6    N42   A    
N8    Ni6   S    
C66   C87   A    
N30   Ni4   S    
C5    N24   A    
C47   C100  A    
C114  N14   A    
N16   Ni11  S    
N19   Ni8   S    
C108  N8    A    
C96   O44   S    
N13   Ni11  S    
C90   H16   S    
N41   Ni2   S    
H30   O4    S    
C13   C76   A    
C26   C86   A    
C7    O26   S    
C96   N44   A    
C5    O24   S    
C55   C82   A    
C73   H71   S    
H48   O21   S    
C74   H72   S    
C108  O8    S    
C42   C88   S    
C34   C83   A    
H18   O1    S    
H64   O38   S    
H21   O34   S    
C33   C67   A    
C13   C67   A    
C73   C99   A    
C76   H3    S    
H39   O13   S    
C34   C82   A    
C104  O4    S    
C118  N18   A    
C95   N34   A    
C45   C97   A    
C33   C90   A    
H35   O8    S    
C46   C119  A    
N12   N38   A    
C28   C80   A    
C113  O13   S    
C7    C64   A    
N37   Ni12  S    
C75   C88   A    
N36   Ni2   S    
H27   O48   S    
C25   N43   A    
C106  O6    S    
H55   O29   S    
