data_str_m3_o2_o5_f0_pcu.sym.107
_audit_creation_date              2013-03-05T16:34:42-0500
_audit_creation_method            fapswitch 2.2
_symmetry_space_group_name_H-M    P1
_symmetry_Int_Tables_number       1
_space_group_crystal_system       triclinic
_cell_length_a                    14.896767
_cell_length_b                    14.32691
_cell_length_c                    8.935894
_cell_angle_alpha                 90.093918
_cell_angle_beta                  92.3646
_cell_angle_gamma                 90.150517
_cell_volume                      1905.5065645

loop_
_atom_site_label
_atom_site_type_symbol
_atom_site_description
_atom_site_fract_x
_atom_site_fract_y
_atom_site_fract_z
_atom_type_partial_charge
O1    O     O_R   0.369060 0.579480 0.500010 -0.614841
O2    O     O_R   0.630940 0.420520 0.499990 -0.604632
O3    O     O_R   0.630940 0.579480 0.499990 -0.615047
O4    O     O_R   0.369060 0.420520 0.500010 -0.616679
C1    C     C_R   0.327733 0.499609 0.505965 0.933295
C2    C     C_R   0.671993 0.499750 0.502729 0.914991
O5    O     O_R   0.500000 0.579460 0.285340 -0.574350
O6    O     O_R   0.500000 0.420540 0.714660 -0.601468
O7    O     O_R   0.500000 0.579460 0.714660 -0.587246
O8    O     O_R   0.500000 0.420540 0.285340 -0.600735
C3    C     C_R   0.445794 0.104924 0.396232 0.323991
C4    C     C_R   0.580780 0.895339 0.513372 0.317293
C5    C     C_R   0.554829 0.105965 0.604971 0.321965
C6    C     C_R   0.419621 0.895011 0.488490 0.330756
C7    C     C_R   0.499741 0.499946 0.218833 0.934793
C8    C     C_R   0.500346 0.500046 0.781176 0.922764
Zn1   Zn    Zn3+2 0.500000 0.606140 0.500000 1.002034
Zn2   Zn    Zn3+2 0.500000 0.393860 0.500000 0.996422
N1    N     N_R   0.500000 0.252470 0.500000 -0.216372
N2    N     N_R   0.500000 0.747530 0.500000 -0.188133
C9    C     C_R   0.500132 0.053673 0.501267 -0.074972
C10   C     C_R   0.500220 0.947115 0.501682 -0.127709
C11   C     C_1   0.499945 0.499910 0.065375 -0.124290
C12   C     C_1   0.500166 0.500050 0.934629 -0.121244
C13   C     C_R   0.091077 0.577480 0.546716 0.478698
C14   C     C_R   0.908542 0.430028 0.459743 0.502126
C15   C     C_R   0.901332 0.543752 0.664692 0.464981
C16   C     C_R   0.100509 0.409226 0.592586 0.481905
C17   C     C_R   0.183044 0.579937 0.529632 -0.320819
C18   C     C_R   0.816212 0.435502 0.437234 -0.295935
C19   C     C_R   0.809321 0.548875 0.638230 -0.298390
C20   C     C_R   0.191393 0.412661 0.566946 -0.274816
H1    H     H_    0.215134 0.646306 0.512547 0.216253
H2    H     H_    0.782664 0.392520 0.351924 0.179510
H3    H     H_    0.770205 0.592016 0.710081 0.203400
H4    H     H_    0.229406 0.348414 0.574667 0.229484
C21   C     C_R   0.232427 0.497441 0.531807 -0.190105
C22   C     C_R   0.767707 0.497279 0.522688 -0.141184
C23   C     C_R   0.049231 0.491331 0.575643 -0.108194
C24   C     C_R   0.951735 0.485698 0.571708 -0.108468
C25   C     C_R   0.445286 0.203698 0.400419 -0.071066
C26   C     C_R   0.576974 0.797561 0.536830 -0.083425
C27   C     C_R   0.555457 0.204690 0.599145 -0.067608
C28   C     C_R   0.423410 0.797468 0.460495 -0.087226
C29   C     C_2   0.385024 0.253160 0.293143 1.054185
O9    O     O_2   0.410292 0.271242 0.168035 -0.637330
O10   O     O_R   0.296793 0.271924 0.330400 -0.797766
H5    H     H_    0.261160 0.304045 0.246319 0.328279
C30   C     C_2   0.654748 0.753875 0.614786 1.020749
O11   O     O_2   0.643539 0.707535 0.727151 -0.642881
O12   O     O_R   0.741481 0.771691 0.567616 -0.797690
H6    H     H_    0.790022 0.746862 0.639446 0.346378
C31   C     C_2   0.618732 0.255134 0.701021 1.054274
O13   O     O_2   0.596949 0.275013 0.827500 -0.638927
O14   O     O_R   0.705967 0.272937 0.656674 -0.782256
H7    H     H_    0.744032 0.306242 0.736994 0.326566
C32   C     C_2   0.348807 0.755543 0.368279 0.970112
O15   O     O_2   0.364949 0.697582 0.272920 -0.615659
O16   O     O_R   0.261160 0.789045 0.378179 -0.786392
H8    H     H_    0.218074 0.760193 0.300392 0.321058
O17   O     O_3   0.043612 0.660363 0.543394 -0.550588
C33   C     C_3   0.018327 0.682144 0.393799 0.096277
H9    H     H_    0.966720 0.631943 0.349579 0.127505
H10   H     H_    0.077126 0.681680 0.320945 0.127901
C34   C     C_3   0.977760 0.779408 0.388231 -0.744694
H11   H     H_    0.028158 0.831534 0.430044 0.260427
H12   H     H_    0.956540 0.797104 0.271140 0.198834
H13   H     H_    0.918245 0.782245 0.458833 0.279136
O18   O     O_3   0.956819 0.368857 0.374388 -0.545248
C35   C     C_3   0.968744 0.407122 0.231119 0.083489
H14   H     H_    0.970241 0.484843 0.230858 0.098750
H15   H     H_    0.913496 0.382996 0.152888 0.143841
C36   C     C_3   0.057940 0.373286 0.174816 -0.799017
H16   H     H_    0.057984 0.295952 0.166334 0.270093
H17   H     H_    0.069353 0.403436 0.063213 0.170851
H18   H     H_    0.113622 0.396010 0.252995 0.261915
O19   O     O_3   0.940926 0.606476 0.765442 -0.554310
C37   C     C_3   0.976495 0.558841 0.892122 0.117063
H19   H     H_    0.030749 0.510412 0.861932 0.114784
H20   H     H_    0.922863 0.519691 0.948703 0.110608
C38   C     C_3   0.018160 0.629795 0.000981 -0.810736
H21   H     H_    0.964972 0.674258 0.047193 0.245494
H22   H     H_    0.054923 0.593108 0.093768 0.183186
H23   H     H_    0.066660 0.674674 0.942919 0.280981
O20   O     O_3   0.061033 0.323136 0.615035 -0.541524
C39   C     C_3   0.052749 0.308881 0.769841 0.065452
H24   H     H_    0.998790 0.353970 0.812364 0.120519
H25   H     H_    0.117306 0.322799 0.833823 0.130815
C40   C     C_3   0.026487 0.207812 0.796383 -0.739294
H26   H     H_    0.079202 0.160463 0.755799 0.251194
H27   H     H_    0.018978 0.195791 0.917966 0.201138
H28   H     H_    0.961637 0.191788 0.735816 0.271673
O21   O     O_3   0.386695 0.060198 0.296083 -0.536779
C41   C     C_3   0.433300 0.028508 0.171915 0.124367
H29   H     H_    0.485990 0.977280 0.206276 0.110867
H30   H     H_    0.464439 0.088056 0.113381 0.145385
C42   C     C_3   0.367035 0.979683 0.063726 -0.778275
H31   H     H_    0.316833 0.030441 0.018019 0.251101
H32   H     H_    0.403084 0.948452 0.969952 0.169646
H33   H     H_    0.331694 0.923009 0.122490 0.283970
O22   O     O_3   0.663359 0.939757 0.515932 -0.517531
C43   C     C_3   0.687014 0.956404 0.366989 0.148230
H34   H     H_    0.639818 0.006697 0.311044 0.106656
H35   H     H_    0.687560 0.890219 0.301163 0.140012
C44   C     C_3   0.780749 0.998668 0.368015 -0.718462
H36   H     H_    0.829974 0.949816 0.421848 0.262605
H37   H     H_    0.800134 0.012183 0.251327 0.190914
H38   H     H_    0.782039 0.065604 0.431025 0.273914
O23   O     O_3   0.614548 0.062255 0.704597 -0.540360
C45   C     C_3   0.568857 0.031986 0.830572 0.122764
H39   H     H_    0.515422 0.980735 0.798363 0.113288
H40   H     H_    0.538898 0.092288 0.888865 0.147885
C46   C     C_3   0.635641 0.983808 0.937940 -0.775115
H41   H     H_    0.687154 0.034536 0.980463 0.252444
H42   H     H_    0.600354 0.954369 0.033955 0.168597
H43   H     H_    0.669302 0.925904 0.879539 0.281664
O24   O     O_3   0.337361 0.939506 0.487622 -0.503199
C47   C     C_3   0.313512 0.953685 0.637111 0.150687
H44   H     H_    0.361608 0.002058 0.696305 0.102795
H45   H     H_    0.311247 0.886235 0.698963 0.133525
C48   C     C_3   0.220737 0.997649 0.637610 -0.723822
H46   H     H_    0.170579 0.950750 0.580611 0.268783
H47   H     H_    0.201234 0.009294 0.754787 0.184936
H48   H     H_    0.221201 0.065789 0.578462 0.269593

loop_
_geom_bond_atom_site_label_1
_geom_bond_atom_site_label_2
_geom_bond_distance
_ccdc_geom_bond_type
O14   H7    1.014012 S    
O21   C41   1.408129 S    
C1    C21   1.448045 S    
O2    Zn2   1.986646 S    
C36   H16   1.110432 S    
O3    C2    1.296892 A    
C38   H23   1.110939 S    
C42   H31   1.110655 S    
C29   O9    1.222194 D    
C44   H37   1.110558 S    
O22   C43   1.411293 S    
O1    C1    1.300187 A    
C20   H4    1.082771 S    
O7    C8    1.284442 A    
O8    C7    1.284322 A    
O20   C39   1.409049 S    
C39   H25   1.115677 S    
C32   O16   1.398440 S    
C4    C10   1.412787 A    
Zn1   N2    2.025682 S    
C18   C22   1.391132 A    
C43   C44   1.520194 S    
Zn2   N1    2.025682 S    
C29   O10   1.395824 S    
C47   H44   1.112811 S    
C48   H48   1.111025 S    
C33   H10   1.112726 S    
N2    C28   1.382070 A    
C45   H39   1.110386 S    
C27   C31   1.470715 S    
C17   H1    1.077073 S    
C34   H12   1.110387 S    
C5    O23   1.384024 S    
C11   C12   1.168480 T    
C2    C22   1.430160 S    
C3    C25   1.415611 A    
C35   H14   1.113676 S    
C40   H27   1.110446 S    
C28   C32   1.481285 S    
O17   C33   1.409480 S    
C46   H43   1.111020 S    
O4    Zn2   1.988617 S    
C3    O21   1.384454 S    
O5    C7    1.283955 A    
O16   H8    1.013328 S    
C8    C12   1.371351 S    
C9    C10   1.526664 S    
C36   H17   1.106827 S    
O2    C2    1.287682 A    
C4    C26   1.418128 A    
C38   H22   1.108657 S    
N1    C27   1.371330 A    
C38   H21   1.110359 S    
C45   H40   1.112047 S    
C31   O14   1.397107 S    
O18   C35   1.411268 S    
C13   C17   1.385103 A    
C44   H38   1.110978 S    
C18   H2    1.084212 S    
C15   C19   1.383425 A    
O12   H6    1.012524 S    
C16   C20   1.383188 A    
C34   H13   1.109933 S    
C42   H32   1.108116 S    
C23   C24   1.453365 S    
C39   H24   1.111270 S    
C41   C42   1.521116 S    
C30   O12   1.398493 S    
O19   C37   1.408148 S    
C3    C9    1.420556 A    
O6    Zn2   1.955279 S    
C47   C48   1.520485 S    
C43   H35   1.115261 S    
C33   H9    1.111552 S    
O10   H5    1.013683 S    
C15   C24   1.413657 A    
C6    O24   1.382537 S    
C35   C36   1.520334 S    
C5    C9    1.419916 A    
C41   H29   1.110358 S    
C13   O17   1.383360 S    
C20   C21   1.400270 A    
C40   H28   1.110924 S    
C41   H30   1.111765 S    
C45   C46   1.521093 S    
C48   H46   1.110874 S    
O7    Zn1   1.956508 S    
C14   C18   1.384261 A    
C36   H18   1.110000 S    
C19   H3    1.079467 S    
C5    C27   1.415492 A    
C42   H33   1.110921 S    
C6    C28   1.420972 A    
C46   H41   1.110650 S    
C33   C34   1.520417 S    
C37   H19   1.108011 S    
O4    C1    1.293027 A    
C15   O19   1.384453 S    
C39   C40   1.520466 S    
O5    Zn1   1.955279 S    
N2    C26   1.378666 A    
C31   O13   1.222077 D    
C44   H36   1.110714 S    
O1    Zn1   1.986648 S    
C16   C23   1.409227 A    
C19   C22   1.392483 A    
C6    C10   1.412818 A    
C4    O22   1.382856 S    
O24   C47   1.410867 S    
C13   C23   1.410347 A    
C37   C38   1.519368 S    
C14   C24   1.411639 A    
C32   O15   1.220295 D    
O8    Zn2   1.956508 S    
C7    C11   1.371407 S    
O3    Zn1   1.988615 S    
C37   H20   1.113769 S    
C34   H11   1.110853 S    
C43   H34   1.112764 S    
C47   H45   1.115155 S    
C48   H47   1.110594 S    
C26   C30   1.468986 S    
O6    C8    1.283871 A    
C30   O11   1.221585 D    
C17   C21   1.393528 A    
C16   O20   1.383504 S    
C14   O18   1.383252 S    
C25   C29   1.470209 S    
C35   H15   1.111638 S    
C40   H26   1.110804 S    
O23   C45   1.407768 S    
N1    C25   1.370964 A    
C46   H42   1.107962 S    
