data_str_m4_o14_o24_f0_acs.sym.116
_audit_creation_date              2012-12-11T14:24:43-0500
_audit_creation_method            fapswitch 2.2
_symmetry_space_group_name_H-M    P1
_symmetry_Int_Tables_number       1
_space_group_crystal_system       triclinic
_cell_length_a                    19.481755
_cell_length_b                    11.093501
_cell_length_c                    18.664644
_cell_angle_alpha                 89.873731
_cell_angle_beta                  91.833519
_cell_angle_gamma                 88.872361
_cell_volume                      4030.95679851

loop_
_atom_site_label
_atom_site_type_symbol
_atom_type_description
_atom_site_fract_x
_atom_site_fract_y
_atom_site_fract_z
_atom_type_partial_charge
C1    C     C_R   0.729128 0.379278 0.147537 0.582767
C2    C     C_R   0.272705 0.374740 0.854372 0.515238
C3    C     C_R   0.229128 0.879278 0.147537 0.582767
C4    C     C_R   0.772706 0.874740 0.854372 0.515237
C5    C     C_3   0.446805 0.087096 0.043687 -0.142042
C6    C     C_3   0.491917 0.051255 0.980147 -0.125121
C7    C     C_3   0.946805 0.587096 0.043687 -0.142043
C8    C     C_3   0.991916 0.551255 0.980147 -0.125121
C9    C     C_R   0.761218 0.913499 0.928687 -0.036937
C10   C     C_R   0.249608 0.939844 0.081109 -0.014174
C11   C     C_R   0.261219 0.413499 0.928687 -0.036936
C12   C     C_R   0.749608 0.439844 0.081109 -0.014174
C13   C     C_R   0.699257 0.885997 0.960028 -0.027247
C14   C     C_R   0.313073 0.910224 0.052375 -0.031222
C15   C     C_R   0.199257 0.385997 0.960028 -0.027247
C16   C     C_R   0.813072 0.410224 0.052375 -0.031222
C17   C     C_R   0.696695 0.872714 0.035297 -0.003606
C18   C     C_R   0.321981 0.926272 0.977704 0.002696
C19   C     C_R   0.196695 0.372714 0.035297 -0.003606
C20   C     C_R   0.821981 0.426272 0.977704 0.002696
C21   C     C_R   0.813416 0.938432 0.047648 -0.140860
C22   C     C_R   0.219472 0.052724 0.972991 -0.136681
C23   C     C_R   0.313416 0.438432 0.047648 -0.140861
C24   C     C_R   0.719472 0.552724 0.972991 -0.136681
C25   C     C_R   0.818363 0.945885 0.974008 0.176123
C26   C     C_R   0.200730 0.007622 0.038143 0.238060
C27   C     C_R   0.318363 0.445884 0.974008 0.176123
C28   C     C_R   0.700730 0.507622 0.038143 0.238060
C29   C     C_R   0.640463 0.864065 0.917222 -0.105365
C30   C     C_R   0.365811 0.854664 0.095207 -0.094877
C31   C     C_R   0.140463 0.364065 0.917222 -0.105365
C32   C     C_R   0.865811 0.354664 0.095207 -0.094876
C33   C     C_R   0.088806 0.297691 0.944290 -0.133907
C34   C     C_R   0.919571 0.296352 0.064367 -0.077699
C35   C     C_R   0.588806 0.797691 0.944290 -0.133907
C36   C     C_R   0.419571 0.796352 0.064367 -0.077699
C37   C     C_R   0.588111 0.774931 0.017555 -0.086403
C38   C     C_R   0.423889 0.799765 0.990754 -0.062317
C39   C     C_R   0.088110 0.274931 0.017555 -0.086403
C40   C     C_R   0.923889 0.299765 0.990754 -0.062315
C41   C     C_R   0.640191 0.814679 0.063405 -0.066369
C42   C     C_R   0.378804 0.867428 0.948226 -0.086635
C43   C     C_R   0.140191 0.314678 0.063405 -0.066370
C44   C     C_R   0.878803 0.367428 0.948226 -0.086633
C45   C     C_R   0.532462 0.156520 0.144557 0.565536
C46   C     C_R   0.438033 0.151342 0.862322 0.538539
C47   C     C_R   0.032462 0.656520 0.144557 0.565536
C48   C     C_R   0.938033 0.651342 0.862322 0.538539
C49   C     C_R   0.751972 0.912755 0.079066 -0.054411
C50   C     C_R   0.273145 0.998254 0.937239 -0.055472
C51   C     C_R   0.251972 0.412755 0.079066 -0.054410
C52   C     C_R   0.773144 0.498254 0.937239 -0.055472
C53   C     C_R   0.466004 0.161178 0.565150 -0.001365
C54   C     C_R   0.536077 0.152564 0.436047 -0.002072
C55   C     C_R   0.966004 0.661179 0.565150 -0.001365
C56   C     C_R   0.036077 0.652564 0.436047 -0.002072
C57   C     C_R   0.464844 0.056913 0.522781 0.025045
C58   C     C_R   0.510441 0.045458 0.466890 0.049196
C59   C     C_R   0.964844 0.556913 0.522781 0.025045
C60   C     C_R   0.010441 0.545458 0.466890 0.049196
C61   C     C_R   0.529813 0.261240 0.473567 -0.158280
C62   C     C_R   0.498115 0.264072 0.539626 -0.134990
C63   C     C_R   0.029813 0.761240 0.473567 -0.158280
C64   C     C_R   0.998115 0.764072 0.539626 -0.134990
C65   C     C_R   0.419401 0.962977 0.534784 -0.087663
C66   C     C_R   0.523321 0.927748 0.440474 -0.083467
C67   C     C_R   0.919401 0.462977 0.534784 -0.087663
C68   C     C_R   0.023321 0.427748 0.440474 -0.083467
C69   C     C_R   0.925455 0.355070 0.498240 -0.120845
C70   C     C_R   0.977274 0.336909 0.451180 -0.134690
C71   C     C_R   0.425455 0.855070 0.498240 -0.120845
C72   C     C_R   0.477274 0.836909 0.451180 -0.134690
C73   C     C_R   0.761563 0.903027 0.566489 -0.001909
C74   C     C_R   0.222459 0.858072 0.440735 -0.003056
C75   C     C_R   0.261563 0.403027 0.566489 -0.001909
C76   C     C_R   0.722459 0.358072 0.440735 -0.003056
C77   C     C_R   0.817204 0.949866 0.527388 0.032355
C78   C     C_R   0.178564 0.940182 0.476895 0.023869
C79   C     C_R   0.317204 0.449866 0.527388 0.032355
C80   C     C_R   0.678564 0.440182 0.476895 0.023869
C81   C     C_R   0.822165 0.920305 0.454797 0.030361
C82   C     C_R   0.170528 0.922428 0.550372 0.036910
C83   C     C_R   0.322165 0.420305 0.454797 0.030361
C84   C     C_R   0.670528 0.422428 0.550372 0.036910
C85   C     C_R   0.707481 0.844980 0.454062 -0.153878
C86   C     C_R   0.271940 0.798485 0.557181 -0.173540
C87   C     C_R   0.207481 0.344980 0.454062 -0.153878
C88   C     C_R   0.771940 0.298485 0.557181 -0.173540
C89   C     C_R   0.741657 0.967883 0.149696 0.541170
C90   C     C_R   0.272585 0.018963 0.858891 0.542690
C91   C     C_R   0.241657 0.467883 0.149696 0.541170
C92   C     C_R   0.772585 0.518963 0.858891 0.542690
C93   C     C_R   0.707745 0.847642 0.528460 -0.147128
C94   C     C_R   0.264118 0.778529 0.482876 -0.167552
C95   C     C_R   0.207745 0.347642 0.528460 -0.147128
C96   C     C_R   0.764118 0.278529 0.482876 -0.167552
C97   C     C_R   0.867288 0.027321 0.556600 -0.101132
C98   C     C_R   0.146456 0.044147 0.445989 -0.099220
C99   C     C_R   0.367288 0.527321 0.556600 -0.101132
C100  C     C_R   0.646456 0.544147 0.445989 -0.099220
C101  C     C_R   0.924360 0.056363 0.518167 -0.158470
C102  C     C_R   0.102426 0.115238 0.486057 -0.159018
C103  C     C_R   0.424360 0.556363 0.518167 -0.158470
C104  C     C_R   0.602426 0.615238 0.486057 -0.159018
C105  C     C_R   0.934551 0.008100 0.450735 -0.121660
C106  C     C_R   0.086421 0.081792 0.555065 -0.115066
C107  C     C_R   0.434551 0.508100 0.450735 -0.121660
C108  C     C_R   0.586421 0.581792 0.555065 -0.115066
C109  C     C_R   0.883801 0.938474 0.419103 -0.068030
C110  C     C_R   0.114436 0.976698 0.584042 -0.083354
C111  C     C_R   0.383801 0.438474 0.419103 -0.068030
C112  C     C_R   0.614436 0.476698 0.584042 -0.083354
C113  C     C_R   0.761613 0.893445 0.417179 -0.005993
C114  C     C_R   0.229207 0.882397 0.589785 0.001367
C115  C     C_R   0.261613 0.393445 0.417179 -0.005993
C116  C     C_R   0.729206 0.382397 0.589785 0.001367
C117  C     C_R   0.714299 0.337791 0.362750 0.538683
C118  C     C_R   0.271559 0.375309 0.643239 0.532299
C119  C     C_R   0.214299 0.837791 0.362750 0.538683
C120  C     C_R   0.771559 0.875309 0.643239 0.532299
C121  C     C_R   0.560123 0.151943 0.361787 0.533038
C122  C     C_R   0.440982 0.154790 0.638448 0.541812
C123  C     C_R   0.060123 0.651943 0.361787 0.533038
C124  C     C_R   0.940982 0.654790 0.638448 0.541812
C125  C     C_R   0.744690 0.964053 0.352454 0.522490
C126  C     C_R   0.253740 0.959734 0.650132 0.547191
C127  C     C_R   0.244690 0.464053 0.352454 0.522490
C128  C     C_R   0.753740 0.459734 0.650132 0.547190
C129  C     C_3   0.518220 0.239433 0.965392 0.015861
C130  C     C_3   0.473379 0.275223 0.029897 -0.017581
C131  C     C_3   0.018220 0.739432 0.965392 0.015860
C132  C     C_3   0.973379 0.775223 0.029897 -0.017580
C133  C     C_3   0.549212 0.131732 0.008388 -0.092807
C134  C     C_3   0.415542 0.194209 0.000566 -0.157643
C135  C     C_3   0.049212 0.631732 0.008388 -0.092807
C136  C     C_3   0.915542 0.694209 0.000566 -0.157643
C137  C     C_3   0.503963 0.166786 0.071192 0.032407
C138  C     C_3   0.460916 0.158437 0.937867 0.025708
C139  C     C_3   0.003963 0.666786 0.071192 0.032407
C140  C     C_3   0.960916 0.658437 0.937867 0.025708
Cr1   Cr    Cr6+3 0.772820 0.169820 0.252640 1.010628
Cr2   Cr    Cr6+3 0.227180 0.169820 0.747360 1.010227
Cr3   Cr    Cr6+3 0.272820 0.669820 0.252640 1.010628
Cr4   Cr    Cr6+3 0.727180 0.669820 0.747360 1.010227
Cr5   Cr    Cr6+3 0.615040 0.323610 0.249150 1.047692
Cr6   Cr    Cr6+3 0.384960 0.323610 0.750850 1.085175
Cr7   Cr    Cr6+3 0.115040 0.823610 0.249150 1.047693
Cr8   Cr    Cr6+3 0.884960 0.823610 0.750850 1.085174
Cr9   Cr    Cr6+3 0.616720 0.011130 0.250660 0.993995
Cr10  Cr    Cr6+3 0.383280 0.011130 0.749340 1.002341
Cr11  Cr    Cr6+3 0.116720 0.511130 0.250660 0.993995
Cr12  Cr    Cr6+3 0.883280 0.511130 0.749340 1.002341
H1    H     H_    0.604538 0.105855 0.013084 0.146316
H2    H     H_    0.359640 0.213849 0.995502 0.106068
H3    H     H_    0.104538 0.605855 0.013084 0.146316
H4    H     H_    0.859640 0.713849 0.995502 0.106068
H5    H     H_    0.549749 0.343368 0.451951 0.145788
H6    H     H_    0.497527 0.346750 0.570072 0.154216
H7    H     H_    0.049749 0.843368 0.451951 0.145788
H8    H     H_    0.997527 0.846750 0.570072 0.154216
H9    H     H_    0.377683 0.974980 0.569806 0.154044
H10   H     H_    0.566325 0.905566 0.408175 0.142729
H11   H     H_    0.877683 0.474980 0.569806 0.154044
H12   H     H_    0.066325 0.405566 0.408175 0.142729
H13   H     H_    0.892085 0.283131 0.507787 0.120645
H14   H     H_    0.981275 0.252656 0.422585 0.107101
H15   H     H_    0.392085 0.783131 0.507787 0.120645
H16   H     H_    0.481275 0.752656 0.422585 0.107101
H17   H     H_    0.663798 0.812002 0.424340 0.113730
H18   H     H_    0.312800 0.755180 0.588504 0.115042
H19   H     H_    0.163798 0.312002 0.424340 0.113730
H20   H     H_    0.812800 0.255180 0.588504 0.115042
H21   H     H_    0.861703 0.072050 0.607399 0.143648
H22   H     H_    0.159833 0.079953 0.394629 0.155114
H23   H     H_    0.361703 0.572050 0.607399 0.143648
H24   H     H_    0.659833 0.579953 0.394629 0.155114
H25   H     H_    0.665660 0.808333 0.556171 0.152001
H26   H     H_    0.294305 0.708460 0.457724 0.154448
H27   H     H_    0.165660 0.308333 0.556171 0.152001
H28   H     H_    0.794305 0.208460 0.457724 0.154448
H29   H     H_    0.958737 0.120714 0.540410 0.112907
H30   H     H_    0.082917 0.198397 0.464460 0.096180
H31   H     H_    0.458737 0.620714 0.540410 0.112907
H32   H     H_    0.582917 0.698397 0.464460 0.096180
H33   H     H_    0.979665 0.029719 0.421387 0.116807
H34   H     H_    0.056854 0.141413 0.588436 0.113099
H35   H     H_    0.479665 0.529719 0.421387 0.116807
H36   H     H_    0.556854 0.641413 0.588436 0.113099
H37   H     H_    0.889988 0.907296 0.364654 0.130544
H38   H     H_    0.102875 0.953532 0.638766 0.139397
H39   H     H_    0.389988 0.407296 0.364654 0.130544
H40   H     H_    0.602875 0.453532 0.638766 0.139397
H41   H     H_    0.547915 0.298889 0.930492 0.212506
H42   H     H_    0.467326 0.363678 0.056040 0.188282
H43   H     H_    0.047915 0.798888 0.930492 0.212506
H44   H     H_    0.967326 0.863678 0.056040 0.188282
H45   H     H_    0.420634 0.042748 0.086849 0.132077
H46   H     H_    0.502044 0.964983 0.954121 0.137755
H47   H     H_    0.920633 0.542749 0.086849 0.132077
H48   H     H_    0.002044 0.464983 0.954121 0.137755
H49   H     H_    0.856685 0.963364 0.081748 0.176666
H50   H     H_    0.183465 0.111183 0.943773 0.194335
H51   H     H_    0.356685 0.463364 0.081748 0.176666
H52   H     H_    0.683465 0.611183 0.943773 0.194335
H53   H     H_    0.635931 0.890379 0.861405 0.150107
H54   H     H_    0.368935 0.862783 0.152872 0.133153
H55   H     H_    0.135931 0.390379 0.861405 0.150107
H56   H     H_    0.868935 0.362783 0.152872 0.133153
H57   H     H_    0.050349 0.264408 0.906936 0.146138
H58   H     H_    0.956793 0.248138 0.098247 0.131734
H59   H     H_    0.550349 0.764407 0.906936 0.146138
H60   H     H_    0.456793 0.748138 0.098246 0.131735
H61   H     H_    0.048586 0.222419 0.038975 0.200691
H62   H     H_    0.962159 0.249207 0.964471 0.191407
H63   H     H_    0.548586 0.722419 0.038975 0.200691
H64   H     H_    0.462159 0.749207 0.964471 0.191407
H65   H     H_    0.638506 0.789160 0.119204 0.168697
H66   H     H_    0.392282 0.868248 0.893318 0.189588
H67   H     H_    0.138506 0.289160 0.119204 0.168697
H68   H     H_    0.892282 0.368248 0.893318 0.189588
O1    O     O_R   0.788190 0.043000 0.172520 -0.512861
O2    O     O_R   0.211810 0.043000 0.827480 -0.489918
O3    O     O_R   0.288190 0.543000 0.172520 -0.512861
O4    O     O_R   0.711810 0.543000 0.827480 -0.489918
O5    O     O_R   0.556550 0.253260 0.323480 -0.519915
O6    O     O_R   0.443450 0.253260 0.676520 -0.497127
O7    O     O_R   0.056550 0.753260 0.323480 -0.519915
O8    O     O_R   0.943450 0.753260 0.676520 -0.497127
O9    O     O_R   0.545830 0.051610 0.330160 -0.524299
O10   O     O_R   0.454170 0.051610 0.669840 -0.507605
O11   O     O_R   0.045830 0.551610 0.330160 -0.524299
O12   O     O_R   0.954170 0.551610 0.669840 -0.507605
O13   O     O_R   0.681920 0.959720 0.327070 -0.532427
O14   O     O_R   0.318080 0.959720 0.672930 -0.527362
O15   O     O_R   0.181920 0.459720 0.327070 -0.532427
O16   O     O_R   0.818080 0.459720 0.672930 -0.527362
O17   O     O_3   0.668190 0.168190 0.250820 -0.289522
O18   O     O_3   0.331810 0.168190 0.749180 -0.323149
O19   O     O_3   0.168190 0.668190 0.250820 -0.289522
O20   O     O_3   0.831810 0.668190 0.749180 -0.323149
O21   O     O_R   0.766240 0.292300 0.176860 -0.511179
O22   O     O_R   0.233760 0.292300 0.823140 -0.537077
O23   O     O_R   0.266240 0.792300 0.176860 -0.511180
O24   O     O_R   0.733760 0.792300 0.823140 -0.537076
O25   O     O_R   0.670310 0.409160 0.168720 -0.413968
O26   O     O_R   0.329690 0.409160 0.831280 -0.427025
O27   O     O_R   0.170310 0.909160 0.168720 -0.413968
O28   O     O_R   0.829690 0.909160 0.831280 -0.427026
O29   O     O_R   0.556160 0.251900 0.173380 -0.465712
O30   O     O_R   0.443840 0.251900 0.826620 -0.442452
O31   O     O_R   0.056160 0.751900 0.173380 -0.465712
O32   O     O_R   0.943840 0.751900 0.826620 -0.442452
O33   O     O_R   0.545410 0.050140 0.168240 -0.521786
O34   O     O_R   0.454590 0.050140 0.831760 -0.543128
O35   O     O_R   0.045410 0.550140 0.168240 -0.521786
O36   O     O_R   0.954590 0.550140 0.831760 -0.543128
O37   O     O_R   0.681530 0.958350 0.176970 -0.510689
O38   O     O_R   0.318470 0.958350 0.823030 -0.525958
O39   O     O_R   0.181530 0.458350 0.176970 -0.510688
O40   O     O_R   0.818470 0.458350 0.823030 -0.525958
O41   O     O_R   0.788610 0.044480 0.334450 -0.530178
O42   O     O_R   0.211390 0.044480 0.665550 -0.511397
O43   O     O_R   0.288610 0.544480 0.334450 -0.530177
O44   O     O_R   0.711390 0.544480 0.665550 -0.511397
O45   O     O_R   0.766630 0.293670 0.326970 -0.496081
O46   O     O_R   0.233370 0.293670 0.673030 -0.497999
O47   O     O_R   0.266630 0.793670 0.326970 -0.496081
O48   O     O_R   0.733370 0.793670 0.673030 -0.497999
O49   O     O_R   0.670730 0.410640 0.330640 -0.546126
O50   O     O_R   0.329270 0.410640 0.669360 -0.531929
O51   O     O_R   0.170730 0.910640 0.330640 -0.546126
O52   O     O_R   0.829270 0.910640 0.669360 -0.531929
S1    S     S_3+6 0.893144 0.017772 0.944484 0.001888
O53   O     O_2   0.934022 0.060502 0.008385 -0.341899
O54   O     O_2   0.939395 0.935678 0.904218 -0.212428
O55   O     O_3   0.869170 0.131618 0.889001 -0.514313
H69   H     H_    0.820690 0.150749 0.899696 0.333251
S2    S     S_3+6 0.111771 0.985510 0.043462 -0.018082
O56   O     O_2   0.073275 0.020884 0.975331 -0.270668
O57   O     O_2   0.106721 0.852891 0.053867 -0.326722
O58   O     O_3   0.078466 0.057028 0.114287 -0.556223
H70   H     H_    0.033918 0.018242 0.121815 0.359388
S3    S     S_3+6 0.393144 0.517772 0.944484 0.001888
O59   O     O_2   0.434022 0.560503 0.008385 -0.341899
O60   O     O_2   0.439395 0.435678 0.904218 -0.212428
O61   O     O_3   0.369170 0.631618 0.889001 -0.514312
H71   H     H_    0.320691 0.650751 0.899698 0.333251
S4    S     S_3+6 0.611771 0.485510 0.043462 -0.018082
O62   O     O_2   0.573275 0.520884 0.975331 -0.270667
O63   O     O_2   0.606721 0.352891 0.053867 -0.326722
O64   O     O_3   0.578466 0.557029 0.114287 -0.556226
H72   H     H_    0.533919 0.518242 0.121816 0.359389

loop_
_geom_bond_atom_site_label_1
_geom_bond_atom_site_label_2
_ccdc_geom_bond_type
C128  O16   A    
C99   C103  A    
C111  H39   S    
C55   C59   A    
Cr8   O52   S    
O64   H72   S    
C73   C93   A    
C136  C140  S    
C75   C95   A    
C133  C137  S    
C84   C112  A    
C103  H31   S    
C79   C99   A    
C5    C6    S    
Cr10  O34   S    
C123  O7    A    
C100  C104  A    
S1    O55   S    
C121  O5    A    
C94   H26   S    
C9    C13   A    
C46   O30   A    
C131  C140  S    
C92   O40   A    
C11   C15   A    
C50   C90   S    
C66   C72   A    
C12   C16   A    
Cr9   O17   S    
C87   C115  A    
C59   C60   A    
C8    C135  S    
C130  C134  S    
C68   H12   S    
Cr8   O32   S    
C97   H21   S    
C102  H30   S    
S4    O64   S    
C21   H49   S    
Cr6   O50   S    
C106  H34   S    
Cr12  O36   S    
C48   C140  S    
Cr10  O14   S    
Cr5   O5    S    
C110  H38   S    
C85   H17   S    
C32   C34   A    
C48   O32   A    
C135  C139  S    
C31   H55   S    
C78   C82   A    
C11   C27   A    
C16   C20   A    
C87   H19   S    
C96   H28   S    
C124  O12   A    
C36   H60   S    
C129  C133  S    
C90   O38   A    
C26   S2    S    
C93   H25   S    
Cr8   O20   S    
Cr1   O41   S    
C108  H36   S    
C131  H43   S    
C42   H66   S    
Cr10  O10   S    
C117  O49   A    
C5    C137  S    
Cr12  O16   S    
C54   C61   A    
C30   C36   A    
C119  O51   A    
C29   C35   A    
C127  O15   A    
C120  O52   A    
Cr5   O25   S    
C8    C140  S    
C1    O25   A    
C76   C96   A    
Cr4   O24   S    
C69   C70   A    
C65   H9    S    
C73   C77   A    
C103  C107  A    
C75   C79   A    
Cr1   O1    S    
C88   C116  A    
Cr8   O8    S    
C63   H7    S    
C21   C49   A    
Cr11  O39   S    
C7    C8    S    
C132  C139  S    
Cr5   O29   S    
C53   C122  S    
C18   C42   A    
C89   O1    A    
C114  C126  S    
Cr9   O33   S    
C29   H53   S    
Cr4   O20   S    
C34   H58   S    
C59   C67   A    
C85   C93   A    
Cr11  O11   S    
Cr6   O18   S    
C87   C95   A    
Cr7   O51   S    
C77   C97   A    
C32   H56   S    
C47   O31   A    
C84   C116  A    
C71   H15   S    
S3    O61   S    
C72   H16   S    
C1    C12   S    
C2    C11   S    
C20   C44   A    
C121  O9    A    
C39   H61   S    
C83   C115  A    
C10   C14   A    
C17   C49   A    
Cr7   O7    S    
C5    H45   S    
Cr2   O22   S    
Cr9   O13   S    
S4    O63   D    
C132  C136  S    
Cr11  O15   S    
C2    O22   A    
Cr9   O37   S    
C61   H5    S    
C54   C121  S    
C74   C78   A    
Cr3   O23   S    
C8    H48   S    
C47   C139  S    
C101  H29   S    
C129  C130  S    
C21   C25   A    
C40   H62   S    
C86   H18   S    
C107  C111  A    
Cr2   O46   S    
C41   H65   S    
C15   C31   A    
Cr7   O19   S    
C16   C32   A    
C13   C17   A    
Cr9   O9    S    
C85   C113  A    
C71   C72   A    
C57   C58   A    
S1    O54   D    
C46   O34   A    
C37   C41   A    
C61   C62   A    
C126  O14   A    
C69   H13   S    
C91   O39   A    
C63   C64   A    
C67   H11   S    
C40   C44   A    
C99   H23   S    
O55   H69   S    
C125  O41   A    
S3    O59   D    
S2    O56   D    
C4    C9    S    
C4    O24   A    
C117  O45   A    
Cr12  O12   S    
C24   C52   A    
C88   C96   A    
C120  O48   A    
C74   C94   A    
C80   C84   A    
C9    C25   A    
C15   C19   A    
Cr7   O31   S    
C12   C28   A    
C13   C29   A    
C6    C133  S    
C54   C58   A    
C122  O6    A    
C66   H10   S    
C25   S1    S    
C51   C91   S    
S2    O58   S    
C44   H68   S    
C100  H24   S    
C62   H6    S    
C27   S3    S    
C22   C50   A    
C73   C120  S    
Cr4   O48   S    
C75   C118  S    
C3    O27   A    
C19   C43   A    
C22   H50   S    
C24   C28   A    
C38   H64   S    
C53   C57   A    
Cr6   O6    S    
Cr1   O21   S    
C108  C112  A    
C56   C123  S    
C47   O35   A    
Cr3   O19   S    
C112  H40   S    
C92   O4    A    
C64   H8    S    
C104  H32   S    
C81   C109  A    
C83   C111  A    
C52   C92   S    
Cr3   O43   S    
C91   O3    A    
C131  C132  S    
Cr4   O44   S    
C104  C108  A    
C18   C50   A    
Cr2   O18   S    
C55   C124  S    
C43   H67   S    
C57   C65   A    
C130  H42   S    
C38   C42   A    
Cr11  O19   S    
Cr6   O26   S    
C76   C117  S    
C36   C38   A    
C2    O26   A    
C98   C102  A    
C79   C83   A    
C134  H2    S    
C105  C109  A    
C136  H4    S    
C127  O43   A    
C128  O44   A    
C56   C60   A    
C7    C136  S    
C123  O11   A    
C60   C68   A    
C77   C81   A    
C22   C26   A    
C81   C113  A    
Cr2   O42   S    
C130  C137  S    
C37   H63   S    
C88   H20   S    
S3    O60   D    
C14   C18   A    
C135  H3    S    
C74   C119  S    
C33   C39   A    
Cr6   O30   S    
C133  H1    S    
C82   C110  A    
C35   C37   A    
C90   O2    A    
C131  C135  S    
C70   H14   S    
Cr3   O3    S    
O61   H71   S    
C98   H22   S    
C113  C125  S    
C30   H54   S    
C107  H35   S    
Cr8   O28   S    
C115  C127  S    
C126  O42   A    
Cr5   O49   S    
C105  H33   S    
C35   H59   S    
C4    O28   A    
C86   C94   A    
C118  O46   A    
C33   H57   S    
C58   C66   A    
C129  C138  S    
C109  H37   S    
Cr10  O18   S    
Cr5   O17   S    
C78   C98   A    
C31   C33   A    
C23   C27   A    
C48   O36   A    
C46   C138  S    
C45   O29   A    
C10   C26   A    
Cr7   O27   S    
C80   C100  A    
C14   C30   A    
C124  O8    A    
C101  C105  A    
C5    C134  S    
C122  O10   A    
C89   O37   A    
C82   C114  A    
C6    H46   S    
C39   C43   A    
O58   H70   S    
C65   C71   A    
C23   H51   S    
C67   C69   A    
Cr1   O45   S    
C6    C138  S    
C53   C62   A    
Cr12  O40   S    
C23   C51   A    
Cr12  O20   S    
C28   S4    S    
C119  O47   A    
C55   C64   A    
C45   C137  S    
S1    O53   D    
C56   C63   A    
C3    O23   A    
C1    O21   A    
C95   H27   S    
S2    O57   D    
C76   C80   A    
Cr11  O35   S    
C106  C110  A    
C24   H52   S    
Cr1   O17   S    
C49   C89   S    
C134  C138  S    
C129  H41   S    
C86   C114  A    
S4    O62   D    
C20   C52   A    
C3    C10   S    
Cr10  O38   S    
C7    C139  S    
C102  C106  A    
Cr3   O47   S    
C7    H47   S    
C17   C41   A    
Cr4   O4    S    
C125  O13   A    
C19   C51   A    
C68   C70   A    
C116  C128  S    
C132  H44   S    
C34   C40   A    
C118  O50   A    
Cr2   O2    S    
C97   C101  A    
C45   O33   A    
