data_str_m2_o10_o17_f0_pcu.sym.35
_audit_creation_date              2012-10-26T19:40:06-0400
_audit_creation_method            fapswitch 2.2
_symmetry_space_group_name_H-M    P1
_symmetry_Int_Tables_number       1
_space_group_crystal_system       triclinic
_cell_length_a                    15.044012
_cell_length_b                    8.787089
_cell_length_c                    7.436032
_cell_angle_alpha                 102.856469
_cell_angle_beta                  93.915217
_cell_angle_gamma                 93.1563
_cell_volume                      953.614988383

loop_
_atom_site_label
_atom_site_type_symbol
_atom_type_description
_atom_site_fract_x
_atom_site_fract_y
_atom_site_fract_z
_atom_type_partial_charge
C1    C     C_R   0.496164 0.200422 0.454031 0.550265
C2    C     C_R   0.180747 0.356916 0.448330 -0.040579
C3    C     C_R   0.766829 0.501077 0.491194 -0.018822
C4    C     C_R   0.233171 0.498924 0.508807 -0.018822
C5    C     C_R   0.805861 0.358886 0.431134 -0.035974
C6    C     C_R   0.194139 0.641115 0.568867 -0.035972
C7    C     C_R   0.899398 0.357764 0.435511 0.005492
C8    C     C_R   0.100602 0.642237 0.564494 0.005492
C9    C     C_R   0.952955 0.500276 0.497489 0.044092
C10   C     C_R   0.047046 0.499725 0.502517 0.044092
C11   C     C_R   0.912748 0.643343 0.554538 0.005597
C12   C     C_R   0.503836 0.799577 0.545969 0.550266
C13   C     C_R   0.087252 0.356659 0.445467 0.005597
C14   C     C_R   0.940748 0.217185 0.380737 -0.124760
C15   C     C_R   0.059253 0.782817 0.619270 -0.124759
C16   C     C_1   0.776332 0.788129 0.609494 0.194408
C17   C     C_1   0.223666 0.211872 0.390499 0.194407
C18   C     C_1   0.749252 0.214573 0.368373 0.220861
C19   C     C_1   0.250748 0.785426 0.631617 0.220863
C20   C     C_1   0.443893 0.948107 0.251856 0.275133
C21   C     C_1   0.556102 0.051893 0.748146 0.275132
C22   C     C_R   0.032916 0.216613 0.385805 -0.128507
C23   C     C_R   0.967084 0.783388 0.614202 -0.128507
C24   C     C_2   0.486976 0.033911 0.430011 -0.048023
C25   C     C_2   0.513023 0.966089 0.569990 -0.048022
C26   C     C_R   0.329388 0.499302 0.502762 0.552971
C27   C     C_R   0.670612 0.500698 0.497238 0.552970
C28   C     C_R   0.819253 0.643085 0.551671 -0.040579
Cu1   Cu    Cu3+1 0.510010 0.517380 0.684380 1.040155
Cu2   Cu    Cu3+1 0.489990 0.482620 0.315620 1.040156
H1    H     H_    0.902285 0.105848 0.333560 0.137611
H2    H     H_    0.097715 0.894153 0.666447 0.137611
H3    H     H_    0.061049 0.104842 0.341955 0.135620
H4    H     H_    0.938951 0.895160 0.658053 0.135619
H5    H     H_    0.430286 0.377717 0.948353 0.248559
H6    H     H_    0.569713 0.622283 0.051647 0.248559
N1    N     N_2   0.474890 0.456420 0.038520 -0.242548
N2    N     N_2   0.525110 0.543580 0.961480 -0.242549
N3    N     N_1   0.742455 0.903915 0.655609 -0.283415
N4    N     N_1   0.257543 0.096085 0.344378 -0.283411
N5    N     N_1   0.704245 0.099677 0.318211 -0.273649
N6    N     N_1   0.295755 0.900322 0.681769 -0.273655
N7    N     N_1   0.409676 0.880764 0.110131 -0.222384
N8    N     N_1   0.590316 0.119235 0.889873 -0.222384
O1    O     O_R   0.506510 0.286130 0.619770 -0.514851
O2    O     O_R   0.493490 0.713870 0.380230 -0.514851
O3    O     O_R   0.489600 0.256770 0.308360 -0.480584
O4    O     O_R   0.510400 0.743230 0.691640 -0.480585
O5    O     O_R   0.378710 0.514640 0.655720 -0.501750
O6    O     O_R   0.621290 0.485360 0.344280 -0.501750
O7    O     O_R   0.361800 0.485290 0.344300 -0.494916
O8    O     O_R   0.638200 0.514710 0.655700 -0.494916

loop_
_geom_bond_atom_site_label_1
_geom_bond_atom_site_label_2
_ccdc_geom_bond_type
Cu1   N2    S    
C16   C28   S    
C2    C4    A    
Cu2   O7    S    
C19   N6    T    
N1    N2    D    
C21   N8    T    
C9    C10   A    
C14   H1    S    
C4    C26   S    
C27   O6    A    
C12   C25   S    
C12   O4    A    
C23   H4    S    
C14   C22   A    
C15   C23   A    
Cu2   O6    S    
C15   H2    S    
Cu1   O8    S    
Cu1   O5    S    
C26   O7    A    
C27   O8    A    
C2    C17   S    
C6    C19   S    
C9    C11   A    
C1    O1    A    
Cu1   Cu2   S    
C11   C28   A    
C10   C13   A    
C11   C23   A    
C3    C28   A    
H5    N1    S    
C13   C22   A    
C8    C15   A    
C3    C27   S    
C8    C10   A    
C18   N5    T    
C4    C6    A    
Cu1   O4    S    
H6    N2    S    
C7    C9    A    
Cu2   O3    S    
C20   N7    T    
C24   C25   D    
C1    C24   S    
C12   O2    A    
C26   O5    A    
C5    C7    A    
C22   H3    S    
C21   C25   S    
C1    O3    A    
C6    C8    A    
C5    C18   S    
C16   N3    T    
Cu2   O2    S    
C7    C14   A    
C20   C24   S    
Cu2   N1    S    
Cu1   O1    S    
C2    C13   A    
C3    C5    A    
C17   N4    T    
