data_str_m4_o7_o7_f0_acs.sym.162
_audit_creation_date              2012-12-11T16:26:16-0500
_audit_creation_method            fapswitch 2.2
_symmetry_space_group_name_H-M    P1
_symmetry_Int_Tables_number       1
_space_group_crystal_system       triclinic
_cell_length_a                    13.961806
_cell_length_b                    13.936921
_cell_length_c                    31.89561
_cell_angle_alpha                 90.416561
_cell_angle_beta                  89.525108
_cell_angle_gamma                 119.941622
_cell_volume                      5377.83409021

loop_
_atom_site_label
_atom_site_type_symbol
_atom_type_description
_atom_site_fract_x
_atom_site_fract_y
_atom_site_fract_z
_atom_type_partial_charge
C1    C     C_R   0.566016 0.445256 0.810229 0.555154
C2    C     C_R   0.877441 0.432486 0.689297 0.584058
C3    C     C_R   0.555044 0.121963 0.810409 0.557072
C4    C     C_R   0.566125 0.445367 0.689787 0.588076
C5    C     C_R   0.876993 0.433186 0.810845 0.558127
C6    C     C_R   0.555806 0.122114 0.690109 0.580032
C7    C     C_R   0.445749 0.565662 0.309910 0.558203
C8    C     C_R   0.433155 0.876844 0.189060 0.560556
C9    C     C_R   0.119541 0.554688 0.309886 0.564589
C10   C     C_R   0.445138 0.565555 0.189881 0.556874
C11   C     C_R   0.433420 0.879026 0.310132 0.564382
C12   C     C_R   0.121922 0.555399 0.189484 0.562112
C13   C     C_1   0.007163 0.501073 0.018609 0.048176
C14   C     C_1   0.533583 0.983654 0.481794 -0.054025
C15   C     C_1   0.497399 0.497599 0.019176 0.046854
C16   C     C_1   0.009740 0.534375 0.480955 -0.044903
C17   C     C_1   0.518334 0.035548 0.021639 0.041581
C18   C     C_1   0.484704 0.486264 0.480666 -0.044014
C19   C     C_1   0.542938 0.000594 0.518836 -0.054278
C20   C     C_1   0.005588 0.499556 0.981087 0.054840
C21   C     C_1   0.486950 0.487297 0.518413 -0.042658
C22   C     C_1   0.519998 0.040172 0.984115 0.054125
C23   C     C_1   0.009996 0.532826 0.518737 -0.050345
C24   C     C_1   0.499860 0.496521 0.981606 0.052461
C25   C     C_R   0.937880 0.473923 0.851515 0.012871
C26   C     C_R   0.549001 0.085750 0.646693 0.019888
C27   C     C_R   0.524801 0.466792 0.850567 0.019198
C28   C     C_R   0.935961 0.469608 0.648089 -0.003582
C29   C     C_R   0.535777 0.066087 0.851868 0.023048
C30   C     C_R   0.525563 0.467922 0.649574 0.002573
C31   C     C_R   0.472088 0.937007 0.351143 0.000251
C32   C     C_R   0.060247 0.535023 0.149072 0.013715
C33   C     C_R   0.469516 0.524040 0.349527 -0.005291
C34   C     C_R   0.476858 0.941006 0.149004 0.008529
C35   C     C_R   0.053589 0.534302 0.349398 -0.000634
C36   C     C_R   0.465693 0.521926 0.149929 0.018574
C37   C     C_R   0.936750 0.559810 0.876245 -0.061229
C38   C     C_R   0.501063 0.973324 0.635562 -0.009642
C39   C     C_R   0.434769 0.380507 0.873036 -0.047589
C40   C     C_R   0.985781 0.581288 0.633995 0.008503
C41   C     C_R   0.622844 0.063846 0.873948 -0.046426
C42   C     C_R   0.425604 0.388429 0.629842 0.001643
C43   C     C_R   0.580362 0.972377 0.365964 0.005439
C44   C     C_R   0.059497 0.622571 0.125900 -0.034585
C45   C     C_R   0.391610 0.421634 0.368147 0.008452
C46   C     C_R   0.557890 0.933725 0.123274 -0.045291
C47   C     C_R   0.034437 0.617080 0.367318 0.019606
C48   C     C_R   0.376866 0.436085 0.126938 -0.044494
C49   C     C_R   0.974845 0.575498 0.918056 0.226596
C50   C     C_R   0.502283 0.944459 0.593257 0.239250
C51   C     C_R   0.430188 0.391268 0.917016 0.221552
C52   C     C_R   0.009766 0.603927 0.590794 0.249088
C53   C     C_R   0.617745 0.059792 0.918276 0.225055
C54   C     C_R   0.409598 0.399097 0.586852 0.229407
C55   C     C_R   0.599580 0.981351 0.409516 0.231920
C56   C     C_R   0.034806 0.606372 0.082668 0.223880
C57   C     C_R   0.394324 0.408975 0.411981 0.239280
C58   C     C_R   0.578486 0.977840 0.082345 0.226347
C59   C     C_R   0.025542 0.621355 0.411312 0.238976
C60   C     C_R   0.387058 0.434895 0.082917 0.220003
C61   C     C_R   0.998913 0.499312 0.936268 0.034716
C62   C     C_R   0.549808 0.029094 0.562474 -0.010413
C63   C     C_R   0.501711 0.492142 0.936623 0.033245
C64   C     C_R   0.004914 0.520525 0.563837 -0.009887
C65   C     C_R   0.521065 0.040711 0.939093 0.033880
C66   C     C_R   0.492384 0.488509 0.563685 -0.003753
C67   C     C_R   0.515005 0.969688 0.437398 -0.006087
C68   C     C_R   0.009468 0.506221 0.063520 0.020879
C69   C     C_R   0.485603 0.488835 0.435360 -0.004782
C70   C     C_R   0.515422 0.020937 0.066228 0.024754
C71   C     C_R   0.008592 0.529506 0.435617 -0.004776
C72   C     C_R   0.491100 0.497061 0.064130 0.023672
C73   C     C_R   0.010101 0.421348 0.911700 -0.032078
C74   C     C_R   0.596214 0.142300 0.573758 -0.014540
C75   C     C_R   0.576525 0.585345 0.913142 -0.028250
C76   C     C_R   0.982261 0.417995 0.580464 -0.018628
C77   C     C_R   0.426287 0.020564 0.916642 -0.029642
C78   C     C_R   0.584054 0.575126 0.584416 -0.002718
C79   C     C_R   0.413435 0.953561 0.422014 -0.005347
C80   C     C_R   0.985464 0.412751 0.087559 -0.025784
C81   C     C_R   0.577623 0.574697 0.414511 0.000534
C82   C     C_R   0.445568 0.041166 0.092236 -0.017516
C83   C     C_R   0.992484 0.431935 0.415402 -0.003061
C84   C     C_R   0.586521 0.558796 0.088599 -0.024935
C85   C     C_R   0.988364 0.415820 0.868251 0.217305
C86   C     C_R   0.598760 0.169894 0.616584 0.230768
C87   C     C_R   0.585443 0.572825 0.869442 0.207882
C88   C     C_R   0.932955 0.387757 0.620494 0.216504
C89   C     C_R   0.433094 0.029723 0.872455 0.215029
C90   C     C_R   0.595491 0.567883 0.628073 0.221828
C91   C     C_R   0.393967 0.941388 0.378450 0.221174
C92   C     C_R   0.013854 0.428053 0.130504 0.214785
C93   C     C_R   0.566886 0.595813 0.372150 0.214670
C94   C     C_R   0.426898 0.001337 0.133912 0.215518
C95   C     C_R   0.024404 0.437852 0.372942 0.211869
C96   C     C_R   0.572474 0.577326 0.131407 0.209951
Cr1   Cr    Cr6+3 0.504240 0.249200 0.750000 1.013357
Cr2   Cr    Cr6+3 0.744960 0.495760 0.750000 1.043368
Cr3   Cr    Cr6+3 0.750800 0.255040 0.750000 1.061006
Cr4   Cr    Cr6+3 0.249200 0.504240 0.250000 1.025872
Cr5   Cr    Cr6+3 0.495760 0.744960 0.250000 1.025191
Cr6   Cr    Cr6+3 0.255040 0.750800 0.250000 1.025518
O1    O     O_R   0.480350 0.140770 0.796330 -0.456601
O2    O     O_R   0.660420 0.519650 0.703670 -0.426308
O3    O     O_R   0.859230 0.339580 0.796330 -0.454348
O4    O     O_R   0.480350 0.140770 0.703670 -0.523068
O5    O     O_R   0.660420 0.519650 0.796330 -0.461181
O6    O     O_R   0.859230 0.339580 0.703670 -0.423781
O7    O     O_R   0.140770 0.480350 0.296330 -0.438408
O8    O     O_R   0.519650 0.660420 0.203670 -0.468198
O9    O     O_R   0.339580 0.859230 0.296330 -0.431056
O10   O     O_R   0.140770 0.480350 0.203670 -0.463534
O11   O     O_R   0.519650 0.660420 0.296330 -0.436321
O12   O     O_R   0.339580 0.859230 0.203670 -0.473147
O13   O     O_R   0.514930 0.348530 0.793250 -0.527441
O14   O     O_R   0.833600 0.485070 0.706750 -0.511030
O15   O     O_R   0.651470 0.166400 0.793250 -0.532039
O16   O     O_R   0.514930 0.348530 0.706750 -0.503825
O17   O     O_R   0.833600 0.485070 0.793250 -0.536162
O18   O     O_R   0.651470 0.166400 0.706750 -0.457669
O19   O     O_R   0.348530 0.514930 0.293250 -0.522056
O20   O     O_R   0.485070 0.833600 0.206750 -0.526286
O21   O     O_R   0.166400 0.651470 0.293250 -0.514916
O22   O     O_R   0.348530 0.514930 0.206750 -0.524665
O23   O     O_R   0.485070 0.833600 0.293250 -0.520475
O24   O     O_R   0.166400 0.651470 0.206750 -0.530327
O25   O     O_3   0.666667 0.333333 0.750000 -0.238972
O26   O     O_3   0.333333 0.666667 0.250000 -0.246140
C97   C     C_3   0.888072 0.629455 0.860838 -0.245612
C98   C     C_3   0.965691 0.718453 0.830067 -0.408154
H1    H     H_    0.042869 0.778717 0.846299 0.127761
H2    H     H_    0.987789 0.681996 0.803258 0.162860
H3    H     H_    0.924890 0.763378 0.817799 0.159478
H4    H     H_    0.805335 0.576451 0.847724 0.216033
H5    H     H_    0.869537 0.671106 0.886809 0.161264
C99   C     C_3   0.451226 0.883803 0.668768 -0.257159
C100  C     C_3   0.538744 0.861158 0.686947 -0.414609
H6    H     H_    0.574825 0.833058 0.661831 0.180737
H7    H     H_    0.605636 0.937059 0.701933 0.148184
H8    H     H_    0.500401 0.795212 0.711014 0.142728
H9    H     H_    0.413009 0.907864 0.694424 0.122562
H10   H     H_    0.383403 0.805678 0.655471 0.199236
C101  C     C_3   0.339295 0.282260 0.850853 -0.263318
C102  C     C_3   0.285047 0.320044 0.818386 -0.423148
H11   H     H_    0.258181 0.374853 0.833448 0.146723
H12   H     H_    0.342293 0.365549 0.792219 0.160767
H13   H     H_    0.211379 0.246745 0.805093 0.140825
H14   H     H_    0.366202 0.226955 0.836522 0.215291
H15   H     H_    0.272082 0.229533 0.873029 0.156683
C103  C     C_3   0.016613 0.678435 0.663712 -0.221948
C104  C     C_3   0.141983 0.754621 0.665734 -0.429233
H16   H     H_    0.181791 0.707132 0.676299 0.137519
H17   H     H_    0.177019 0.792480 0.634845 0.211523
H18   H     H_    0.161967 0.822533 0.688564 0.128607
H19   H     H_    0.976792 0.726108 0.653338 0.198686
H20   H     H_    0.990134 0.652795 0.696367 0.143154
C105  C     C_3   0.715367 0.056074 0.851141 -0.265948
C106  C     C_3   0.669816 0.958043 0.820603 -0.425469
H21   H     H_    0.613207 0.880147 0.837352 0.147728
H22   H     H_    0.624351 0.968986 0.794455 0.158057
H23   H     H_    0.739139 0.950271 0.807016 0.144929
H24   H     H_    0.772139 0.134466 0.834924 0.206391
H25   H     H_    0.767692 0.041642 0.873263 0.156715
C107  C     C_3   0.331367 0.294294 0.653760 -0.221519
C108  C     C_3   0.322960 0.183050 0.643465 -0.362080
H26   H     H_    0.273402 0.121516 0.667954 0.127128
H27   H     H_    0.281895 0.151149 0.612803 0.184690
H28   H     H_    0.406231 0.191877 0.641734 0.203636
H29   H     H_    0.338093 0.309092 0.688042 0.132428
H30   H     H_    0.252094 0.289988 0.645498 0.164577
C109  C     C_3   0.677659 0.005185 0.336091 -0.233793
C110  C     C_3   0.762720 0.128456 0.339676 -0.396856
H31   H     H_    0.722526 0.179083 0.334869 0.145755
H32   H     H_    0.803171 0.148378 0.370666 0.216799
H33   H     H_    0.827864 0.151139 0.315359 0.168689
H34   H     H_    0.717476 0.954968 0.342621 0.185428
H35   H     H_    0.652809 0.992428 0.302800 0.145112
C111  C     C_3   0.087803 0.733906 0.145421 -0.264422
C112  C     C_3   0.999505 0.721649 0.176999 -0.419619
H36   H     H_    0.919037 0.690559 0.160874 0.163244
H37   H     H_    0.989127 0.663296 0.202434 0.169278
H38   H     H_    0.023663 0.803523 0.191244 0.134512
H39   H     H_    0.170843 0.775164 0.159339 0.201145
H40   H     H_    0.095614 0.795534 0.121932 0.145383
C113  C     C_3   0.308325 0.323008 0.342292 -0.221314
C114  C     C_3   0.328447 0.224902 0.345349 -0.418969
H41   H     H_    0.415179 0.250934 0.336516 0.150790
H42   H     H_    0.311695 0.189984 0.377392 0.192887
H43   H     H_    0.272342 0.158240 0.323539 0.143515
H44   H     H_    0.223018 0.297547 0.352921 0.186791
H45   H     H_    0.313893 0.341214 0.308462 0.151235
C115  C     C_3   0.615394 0.870565 0.136284 -0.254364
C116  C     C_3   0.710653 0.938537 0.166396 -0.402258
H46   H     H_    0.777853 0.010754 0.149702 0.134300
H47   H     H_    0.683601 0.969730 0.193465 0.173614
H48   H     H_    0.744160 0.886689 0.178377 0.152320
H49   H     H_    0.554876 0.789193 0.148868 0.195207
H50   H     H_    0.648974 0.846385 0.109134 0.146280
C117  C     C_3   0.020470 0.699419 0.340522 -0.225150
C118  C     C_3   0.907389 0.689918 0.347256 -0.408890
H51   H     H_    0.840329 0.602687 0.343220 0.161006
H52   H     H_    0.900836 0.719736 0.378835 0.208069
H53   H     H_    0.895646 0.741794 0.323879 0.157354
H54   H     H_    0.086741 0.785079 0.347728 0.222736
H55   H     H_    0.023838 0.684348 0.306601 0.143964
C119  C     C_3   0.276410 0.341135 0.148333 -0.278529
C120  C     C_3   0.310231 0.280635 0.179532 -0.409137
H56   H     H_    0.358890 0.248110 0.163242 0.179141
H57   H     H_    0.360373 0.335987 0.205446 0.163422
H58   H     H_    0.235079 0.209838 0.193325 0.137046
H59   H     H_    0.223936 0.370040 0.163594 0.194061
H60   H     H_    0.222033 0.277058 0.125435 0.146878
O27   O     O_3   0.038238 0.688766 0.057904 -0.690294
H61   H     H_    0.986312 0.709867 0.070629 0.314122
O28   O     O_3   0.701209 0.999549 0.423310 -0.735876
H62   H     H_    0.701847 0.994557 0.454189 0.324957
O29   O     O_3   0.296982 0.373395 0.057363 -0.697815
H63   H     H_    0.231534 0.371947 0.070360 0.311317
O30   O     O_3   0.033934 0.716373 0.428924 -0.736176
H64   H     H_    0.024592 0.709107 0.459690 0.321393
O31   O     O_3   0.655851 0.973876 0.056187 -0.701067
H65   H     H_    0.724007 0.997926 0.072689 0.316576
O32   O     O_3   0.305704 0.318304 0.430612 -0.728179
H66   H     H_    0.323370 0.310326 0.459884 0.326021
O33   O     O_3   0.454731 0.832925 0.583430 -0.724184
H67   H     H_    0.462445 0.822251 0.553198 0.329456
O34   O     O_3   0.981694 0.660095 0.943049 -0.693950
H68   H     H_    0.013257 0.728143 0.925840 0.313251
O35   O     O_3   0.314271 0.317066 0.568189 -0.744908
H69   H     H_    0.304074 0.341450 0.540373 0.325921
O36   O     O_3   0.706892 0.076902 0.942288 -0.702026
H70   H     H_    0.775071 0.135105 0.928597 0.314716
O37   O     O_3   0.037393 0.708190 0.576383 -0.718273
H71   H     H_    0.064089 0.717689 0.547054 0.326761
O38   O     O_3   0.359037 0.303376 0.942004 -0.705787
H72   H     H_    0.355245 0.235389 0.930452 0.315294
O39   O     O_3   0.996789 0.339674 0.154965 -0.680823
H73   H     H_    0.030030 0.300772 0.140003 0.300855
O40   O     O_3   0.297560 0.929750 0.361940 -0.690492
H74   H     H_    0.276174 0.977167 0.378037 0.317652
O41   O     O_3   0.661411 0.646707 0.156065 -0.688355
H75   H     H_    0.708616 0.714653 0.139800 0.304198
O42   O     O_3   0.028367 0.350607 0.354034 -0.694911
H76   H     H_    0.067324 0.326360 0.373355 0.320316
O43   O     O_3   0.359926 0.020671 0.160447 -0.687951
H77   H     H_    0.286886 0.989267 0.146738 0.306286
O44   O     O_3   0.651187 0.686996 0.352502 -0.687080
H78   H     H_    0.666183 0.752587 0.369695 0.323146
O45   O     O_3   0.645999 0.278406 0.630562 -0.686320
H79   H     H_    0.704726 0.328155 0.610993 0.324427
O46   O     O_3   0.011125 0.350731 0.841740 -0.696062
H80   H     H_    0.075959 0.348008 0.852506 0.317193
O47   O     O_3   0.676946 0.656348 0.650146 -0.681822
H81   H     H_    0.686477 0.725853 0.638048 0.316513
O48   O     O_3   0.341499 0.005531 0.848605 -0.702958
H82   H     H_    0.275477 0.943365 0.861831 0.316473
O49   O     O_3   0.878441 0.278020 0.632823 -0.670476
H83   H     H_    0.850753 0.229647 0.607768 0.317559
O50   O     O_3   0.653909 0.662014 0.844434 -0.700298
H84   H     H_    0.655729 0.729215 0.855687 0.318510
C121  C     C_3   0.927817 0.298326 0.067183 -0.274182
C122  C     C_3   0.809172 0.263985 0.054908 -0.423468
H85   H     H_    0.758316 0.252077 0.083452 0.166117
H86   H     H_    0.805871 0.326596 0.034652 0.146859
H87   H     H_    0.772794 0.185054 0.037100 0.201706
H88   H     H_    0.975095 0.298566 0.038980 0.135283
H89   H     H_    0.922755 0.232460 0.087820 0.154582
C123  C     C_3   0.322568 0.940785 0.452267 -0.270510
C124  C     C_3   0.338706 0.053384 0.465510 -0.439023
H90   H     H_    0.274392 0.041840 0.488846 0.158964
H91   H     H_    0.421158 0.104796 0.479830 0.164760
H92   H     H_    0.331952 0.097969 0.438069 0.151841
H93   H     H_    0.239289 0.890217 0.438415 0.204105
H94   H     H_    0.320771 0.893832 0.480546 0.159792
C125  C     C_3   0.700797 0.603273 0.068839 -0.269063
C126  C     C_3   0.722575 0.509259 0.056981 -0.431996
H95   H     H_    0.718630 0.461553 0.085336 0.161516
H96   H     H_    0.661762 0.452320 0.033742 0.149527
H97   H     H_    0.806163 0.544172 0.042786 0.177032
H98   H     H_    0.708071 0.652519 0.040563 0.138864
H99   H     H_    0.768766 0.659079 0.089915 0.147662
C127  C     C_3   0.941746 0.322435 0.438827 -0.256866
C128  C     C_3   0.822331 0.283361 0.451789 -0.434358
H100  H     H_    0.816916 0.344162 0.472815 0.149361
H101  H     H_    0.770865 0.270545 0.423653 0.163279
H102  H     H_    0.788554 0.203651 0.468772 0.150345
H103  H     H_    0.939880 0.254618 0.419988 0.171090
H104  H     H_    0.992005 0.330880 0.466479 0.137557
C129  C     C_3   0.392732 0.105676 0.075268 -0.261839
C130  C     C_3   0.478915 0.227085 0.068027 -0.423692
H105  H     H_    0.515588 0.268301 0.098352 0.164868
H106  H     H_    0.545840 0.235519 0.046694 0.142154
H107  H     H_    0.438505 0.269576 0.053399 0.190894
H108  H     H_    0.349797 0.067629 0.045398 0.140267
H109  H     H_    0.329022 0.104472 0.096479 0.160725
C131  C     C_3   0.686189 0.644841 0.437554 -0.261906
C132  C     C_3   0.740295 0.576673 0.449324 -0.430137
H110  H     H_    0.686666 0.507609 0.470523 0.145971
H111  H     H_    0.757927 0.542155 0.420704 0.166106
H112  H     H_    0.819238 0.630447 0.465775 0.156439
H113  H     H_    0.747931 0.715430 0.418762 0.167574
H114  H     H_    0.671087 0.682104 0.465770 0.144157
C133  C     C_3   0.637717 0.233038 0.540463 -0.287890
C134  C     C_3   0.566991 0.288496 0.539182 -0.417105
H115  H     H_    0.477664 0.225578 0.539459 0.174483
H116  H     H_    0.584709 0.344911 0.566282 0.180576
H117  H     H_    0.585700 0.338066 0.510118 0.130145
H118  H     H_    0.725738 0.295655 0.545904 0.126920
H119  H     H_    0.636546 0.201269 0.508532 0.150686
C135  C     C_3   0.037097 0.339487 0.932250 -0.301257
C136  C     C_3   0.160489 0.392564 0.941349 -0.412869
H120  H     H_    0.209225 0.420477 0.911795 0.154972
H121  H     H_    0.187814 0.464585 0.962791 0.164287
H122  H     H_    0.177067 0.331020 0.956602 0.208838
H123  H     H_    0.989465 0.308067 0.961887 0.143230
H124  H     H_    0.010557 0.264371 0.912616 0.158367
C137  C     C_3   0.675684 0.669713 0.559670 -0.274383
C138  C     C_3   0.643682 0.755821 0.547693 -0.443213
H125  H     H_    0.567574 0.717792 0.528407 0.167917
H126  H     H_    0.629531 0.792886 0.576331 0.178354
H127  H     H_    0.711591 0.822789 0.529215 0.137749
H128  H     H_    0.754553 0.711240 0.577283 0.178093
H129  H     H_    0.695634 0.636659 0.531351 0.148610
C139  C     C_3   0.321957 0.999140 0.940031 -0.300593
C140  C     C_3   0.254381 0.878465 0.953770 -0.421117
H130  H     H_    0.228592 0.822655 0.926024 0.152689
H131  H     H_    0.303228 0.856612 0.974958 0.171222
H132  H     H_    0.179388 0.865584 0.970933 0.185420
H133  H     H_    0.343633 0.054055 0.967934 0.146126
H134  H     H_    0.269444 0.020657 0.920841 0.152963
C141  C     C_3   0.009775 0.340951 0.555654 -0.283390
C142  C     C_3   0.079345 0.304929 0.580718 -0.410604
H135  H     H_    0.156429 0.378699 0.591708 0.180387
H136  H     H_    0.033799 0.253447 0.608100 0.187865
H137  H     H_    0.101476 0.254169 0.560222 0.168456
H138  H     H_    0.933109 0.267467 0.544247 0.128073
H139  H     H_    0.061559 0.384540 0.528119 0.156831
C143  C     C_3   0.653278 0.694280 0.935188 -0.290226
C144  C     C_3   0.595661 0.761374 0.943290 -0.418274
H140  H     H_    0.569331 0.780823 0.913289 0.150679
H141  H     H_    0.522044 0.714526 0.963743 0.163600
H142  H     H_    0.653483 0.840361 0.959214 0.202831
H143  H     H_    0.682099 0.678865 0.965390 0.145457
H144  H     H_    0.730385 0.744912 0.916966 0.159489

loop_
_geom_bond_atom_site_label_1
_geom_bond_atom_site_label_2
_ccdc_geom_bond_type
C105  C106  S    
C82   C94   A    
C130  H107  S    
Cr5   O11   S    
O32   H66   S    
C35   C47   A    
C29   C89   A    
C113  H44   S    
C5    O3    A    
C45   C57   A    
C127  C128  S    
C5    O17   A    
C10   O22   A    
C12   O24   A    
C28   C40   A    
C101  C102  S    
C18   C21   T    
C117  H55   S    
Cr5   O26   S    
C33   C45   A    
C51   O38   S    
C2    O14   A    
C134  H117  S    
C125  C126  S    
C139  C140  S    
C120  H58   S    
C38   C99   S    
Cr1   O13   S    
C54   O35   S    
C138  H127  S    
C110  H33   S    
C8    O12   A    
C76   C141  S    
Cr4   O7    S    
O43   H77   S    
C7    C33   S    
Cr6   O9    S    
C16   C71   S    
C100  H8    S    
C65   C77   A    
C67   C79   A    
C87   O50   S    
C119  C120  S    
C58   C70   A    
C135  H124  S    
Cr5   O8    S    
Cr4   O22   S    
C80   C92   A    
O28   H62   S    
O35   H69   S    
Cr6   O12   S    
O34   H68   S    
C77   C89   A    
C6    O4    A    
C40   C103  S    
C74   C133  S    
C73   C135  S    
C72   C84   A    
C88   O49   S    
C5    C25   S    
Cr2   O25   S    
C24   C63   S    
C124  H91   S    
C106  H21   S    
Cr6   O21   S    
C57   O32   S    
C3    O1    A    
C13   C20   T    
C14   C19   T    
C34   C94   A    
C102  H11   S    
C129  H108  S    
Cr5   O20   S    
C125  H98   S    
O29   H63   S    
C121  H88   S    
C45   C113  S    
C32   C92   A    
C4    O2    A    
C2    O6    A    
C9    O21   A    
C37   C97   S    
C98   H1    S    
C104  H17   S    
C70   C82   A    
C94   O43   S    
C47   C59   A    
C119  H60   S    
C101  H15   S    
C118  H52   S    
C116  H46   S    
C123  H94   S    
C60   C72   A    
C1    O13   A    
C114  H41   S    
C105  H24   S    
C39   C51   A    
C21   C66   S    
C107  H30   S    
C111  C112  S    
C131  H114  S    
C15   C72   S    
O45   H79   S    
C129  H109  S    
C31   C43   A    
Cr4   O19   S    
Cr6   O26   S    
C55   O28   S    
C121  C122  S    
C42   C107  S    
C143  H143  S    
O49   H83   S    
C20   C61   S    
C3    C29   S    
C137  H129  S    
C138  H126  S    
C93   O44   S    
C97   H5    S    
C137  H128  S    
Cr5   O23   S    
C14   C67   S    
C34   C46   A    
C53   C65   A    
C141  H138  S    
C79   C91   A    
C133  H119  S    
C86   O45   S    
C134  H116  S    
C127  H103  S    
C108  H27   S    
O39   H73   S    
C46   C58   A    
C128  H102  S    
C132  H111  S    
C47   C117  S    
C7    O19   A    
C102  H13   S    
C58   O31   S    
C110  H32   S    
C79   C123  S    
C71   C83   A    
C32   C44   A    
C101  H14   S    
C23   C64   S    
C142  H135  S    
C44   C111  S    
C43   C109  S    
C141  H139  S    
C139  H133  S    
C56   C68   A    
C112  H36   S    
C22   C65   S    
O31   H65   S    
C82   C129  S    
Cr3   O15   S    
C104  H16   S    
C116  H48   S    
C73   C85   A    
C25   C85   A    
C129  C130  S    
C8    C34   S    
C27   C87   A    
C41   C53   A    
C1    O5    A    
C75   C87   A    
C15   C24   T    
C85   O46   S    
C16   C23   T    
C115  H50   S    
C103  H19   S    
C136  H121  S    
C124  H92   S    
C12   O10   A    
C97   C98   S    
C43   C55   A    
C29   C41   A    
Cr4   O26   S    
C62   C74   A    
C39   C101  S    
C99   C100  S    
Cr6   O24   S    
C122  H85   S    
C54   C66   A    
C109  H34   S    
C31   C91   A    
C83   C127  S    
C8    O20   A    
C6    C26   S    
C63   C75   A    
C36   C48   A    
C125  H99   S    
C96   O41   S    
C117  C118  S    
C144  H142  S    
C126  H95   S    
C128  H100  S    
C120  H57   S    
C103  C104  S    
C109  H35   S    
O48   H82   S    
C13   C68   S    
O40   H74   S    
C142  H137  S    
C30   C90   A    
C122  H87   S    
O46   H80   S    
O27   H61   S    
C78   C90   A    
C100  H7    S    
C78   C137  S    
C107  C108  S    
C11   O23   A    
C81   C131  S    
O42   H76   S    
C130  H105  S    
C99   H10   S    
C3    O15   A    
C106  H23   S    
O38   H72   S    
C49   O34   S    
C111  H39   S    
C112  H38   S    
C124  H90   S    
C106  H22   S    
C52   O37   S    
C113  H45   S    
C135  H123  S    
C9    O7    A    
C66   C78   A    
C49   C61   A    
C11   O9    A    
C120  H56   S    
C51   C63   A    
C102  H12   S    
C52   C64   A    
O30   H64   S    
Cr3   O25   S    
C61   C73   A    
Cr2   O5    S    
C98   H2    S    
C141  C142  S    
Cr3   O6    S    
C37   C49   A    
C44   C56   A    
C144  H140  S    
C126  H97   S    
C115  H49   S    
C133  H118  S    
C41   C105  S    
Cr1   O4    S    
Cr4   O10   S    
C98   H3    S    
C114  H42   S    
C135  C136  S    
C26   C38   A    
C46   C115  S    
C33   C93   A    
C35   C95   A    
C17   C22   T    
C114  H43   S    
C42   C54   A    
C113  C114  S    
O47   H81   S    
C143  H144  S    
C10   O8    A    
C140  H130  S    
C69   C81   A    
C97   H4    S    
C123  C124  S    
C84   C125  S    
C9    C35   S    
C30   C42   A    
C50   O33   S    
C10   C36   S    
C68   C80   A    
C109  C110  S    
C127  H104  S    
C108  H26   S    
C128  H101  S    
C132  H110  S    
Cr1   O25   S    
Cr2   O17   S    
C95   O42   S    
C99   H9    S    
C142  H136  S    
C121  H89   S    
C19   C62   S    
C139  H134  S    
O41   H75   S    
C140  H131  S    
C84   C96   A    
C104  H18   S    
Cr1   O16   S    
C25   C37   A    
Cr3   O18   S    
C119  H59   S    
C133  C134  S    
C27   C39   A    
C118  H51   S    
C116  H47   S    
C123  H93   S    
C28   C88   A    
C75   C143  S    
C76   C88   A    
C11   C31   S    
C17   C70   S    
C103  H20   S    
C12   C32   S    
C4    O16   A    
C107  H29   S    
C6    O18   A    
C48   C60   A    
C131  H113  S    
Cr3   O3    S    
C92   O39   S    
C122  H86   S    
C136  H120  S    
C40   C52   A    
C140  H132  S    
C138  H125  S    
C81   C93   A    
C36   C96   A    
Cr2   O14   S    
C26   C86   A    
C83   C95   A    
O33   H67   S    
C64   C76   A    
Cr1   O1    S    
C74   C86   A    
C56   O27   S    
C53   O36   S    
C134  H115  S    
C144  H141  S    
C90   O47   S    
C126  H96   S    
C108  H28   S    
C50   C62   A    
C132  H112  S    
C91   O40   S    
O50   H84   S    
C110  H31   S    
O37   H71   S    
C105  H25   S    
C131  C132  S    
C80   C121  S    
C55   C67   A    
O44   H78   S    
C38   C50   A    
C100  H6    S    
C115  C116  S    
C7    O11   A    
C59   O30   S    
C60   O29   S    
C117  H54   S    
C18   C69   S    
C118  H53   S    
Cr2   O2    S    
C77   C139  S    
C130  H106  S    
C137  C138  S    
C4    C30   S    
C143  C144  S    
C89   O48   S    
C136  H122  S    
C48   C119  S    
O36   H70   S    
C1    C27   S    
C2    C28   S    
C57   C69   A    
C111  H40   S    
C59   C71   A    
C112  H37   S    
