data_str_m3_o10_o17_f0_pcu.sym.57
_audit_creation_date              2012-12-10T16:52:08-0500
_audit_creation_method            fapswitch 2.2
_symmetry_space_group_name_H-M    P1
_symmetry_Int_Tables_number       1
_space_group_crystal_system       triclinic
_cell_length_a                    7.769854
_cell_length_b                    8.83972
_cell_length_c                    14.996301
_cell_angle_alpha                 90.200237
_cell_angle_beta                  84.114949
_cell_angle_gamma                 93.55323
_cell_volume                      1022.59364128

loop_
_atom_site_label
_atom_site_type_symbol
_atom_type_description
_atom_site_fract_x
_atom_site_fract_y
_atom_site_fract_z
_atom_type_partial_charge
C1    C     C_R   0.545413 0.794258 0.495007 0.967314
C2    C     C_R   0.552940 0.619768 0.809672 -0.309034
C3    C     C_R   0.496439 0.509280 0.231705 -0.091990
C4    C     C_R   0.498238 0.488179 0.768410 -0.088766
C5    C     C_R   0.503053 0.647033 0.184344 0.111204
C6    C     C_R   0.438914 0.356744 0.817608 0.126608
C7    C     C_R   0.525916 0.639866 0.090193 0.078172
C8    C     C_R   0.444609 0.358592 0.911366 0.082926
C9    C     C_R   0.492145 0.499783 0.047374 -0.005864
C10   C     C_R   0.496891 0.494769 0.953604 -0.010710
C11   C     C_R   0.444741 0.366773 0.098825 0.096261
C12   C     C_R   0.453759 0.205559 0.502344 0.945804
C13   C     C_R   0.549100 0.627168 0.902385 0.107010
C14   C     C_R   0.577742 0.768943 0.038076 -0.277368
C15   C     C_R   0.389728 0.230232 0.964277 -0.273867
C16   C     C_3   0.444977 0.790973 0.232046 -0.406970
C17   C     C_3   0.585209 0.919312 0.233731 -0.935858
C18   C     C_3   0.361367 0.219911 0.771203 -0.412719
C19   C     C_3   0.164917 0.204184 0.794321 -0.883420
C20   C     C_3   0.643626 0.910984 0.894603 -0.426402
C21   C     C_3   0.828159 0.913519 0.849056 -0.878307
C22   C     C_3   0.279263 0.102524 0.107500 -0.447032
C23   C     C_R   0.592260 0.764565 0.945187 0.175093
C24   C     C_3   0.085319 0.104562 0.098210 -0.842394
C25   C     C_3   0.746135 0.020714 0.438108 -0.395900
C26   C     C_3   0.878327 0.914521 0.393325 -0.855241
C27   C     C_3   0.247172 0.977658 0.552286 -0.381083
C28   C     C_3   0.100154 0.080436 0.579433 -0.895038
C29   C     C_R   0.379689 0.234591 0.057318 0.164884
C30   C     C_2   0.567441 0.955749 0.482590 -0.125509
C31   C     C_2   0.427880 0.043447 0.509601 -0.123023
C32   C     C_R   0.499147 0.495227 0.672891 0.876549
C33   C     C_R   0.500275 0.505502 0.327071 0.887460
C34   C     C_R   0.465410 0.371410 0.189910 -0.300158
H1    H     H_    0.454852 0.269936 0.230485 0.134422
H2    H     H_    0.118256 0.091861 0.770824 0.253150
H3    H     H_    0.389584 0.225569 0.697422 0.203564
H4    H     H_    0.421243 0.116201 0.789874 0.184406
H5    H     H_    0.614057 0.874292 0.068063 0.179257
H6    H     H_    0.347119 0.124796 0.934620 0.170609
H7    H     H_    0.922331 0.932162 0.899554 0.263430
H8    H     H_    0.855505 0.806780 0.812704 0.265314
H9    H     H_    0.844475 0.007942 0.799944 0.249828
H10   H     H_    0.551153 0.927474 0.844692 0.188121
H11   H     H_    0.635312 0.010487 0.939951 0.209391
H12   H     H_    0.592887 0.717392 0.767568 0.157019
H13   H     H_    0.014809 0.008678 0.136766 0.244505
H14   H     H_    0.034784 0.212267 0.125085 0.269437
H15   H     H_    0.059675 0.092459 0.026983 0.253569
H16   H     H_    0.326846 0.994846 0.079229 0.208764
H17   H     H_    0.293041 0.101161 0.179910 0.212628
H18   H     H_    0.941698 0.854580 0.444403 0.271544
H19   H     H_    0.817485 0.829693 0.350092 0.282224
H20   H     H_    0.981747 0.981950 0.351460 0.234329
H21   H     H_    0.727482 0.103495 0.385011 0.230040
H22   H     H_    0.809740 0.080602 0.491150 0.240065
H23   H     H_    0.717030 0.877371 0.221523 0.273995
H24   H     H_    0.137573 0.168101 0.626760 0.296413
H25   H     H_    0.063828 0.136969 0.519187 0.276435
H26   H     H_    0.985506 0.012041 0.611269 0.236974
H27   H     H_    0.189884 0.904507 0.501717 0.246355
H28   H     H_    0.265634 0.911841 0.613331 0.228759
H29   H     H_    0.016061 0.384418 0.433257 0.190779
H30   H     H_    0.983992 0.615921 0.566543 0.190250
H31   H     H_    0.571382 0.008924 0.184155 0.242166
H32   H     H_    0.566107 0.976369 0.298809 0.264231
H33   H     H_    0.333754 0.830952 0.199966 0.203875
H34   H     H_    0.391130 0.767178 0.302246 0.218052
H35   H     H_    0.124475 0.210832 0.867114 0.266134
H36   H     H_    0.102649 0.295333 0.760996 0.272808
N1    N     N_2   0.950330 0.457950 0.475660 -0.181610
N2    N     N_2   0.049670 0.542050 0.524340 -0.184876
O1    O     O_R   0.389250 0.738570 0.505970 -0.665293
O2    O     O_R   0.610750 0.261430 0.494030 -0.657346
O3    O     O_R   0.678390 0.711620 0.490370 -0.613218
O4    O     O_R   0.321610 0.288380 0.509630 -0.615869
O5    O     O_R   0.355420 0.513510 0.639950 -0.613431
O6    O     O_R   0.644580 0.486490 0.360050 -0.615751
O7    O     O_R   0.644560 0.486560 0.624350 -0.625571
O8    O     O_R   0.355440 0.513440 0.375650 -0.634571
Zn1   Zn    Zn3+2 0.306940 0.517990 0.510420 0.917501
Zn2   Zn    Zn3+2 0.693060 0.482010 0.489580 0.924562

loop_
_geom_bond_atom_site_label_1
_geom_bond_atom_site_label_2
_ccdc_geom_bond_type
C22   C29   S    
C12   O2    A    
C25   H22   S    
C2    H12   S    
C17   H32   S    
C18   H3    S    
C34   H1    S    
C19   H2    S    
C30   C31   D    
C33   O6    A    
C3    C33   S    
C24   H15   S    
C13   C23   A    
C18   C19   S    
C2    C13   A    
C5    C16   S    
C27   H27   S    
C32   O5    A    
C21   H9    S    
C7    C14   A    
C16   C17   S    
C16   H34   S    
C9    C10   A    
N2    Zn1   S    
C22   H16   S    
N1    Zn2   S    
C14   H5    S    
O2    Zn2   S    
C26   H20   S    
O1    Zn1   S    
C20   H10   S    
C15   C29   A    
C28   H26   S    
C6    C18   S    
C27   C31   S    
C1    O3    A    
C4    C6    A    
C20   H11   S    
C5    C7    A    
C6    C8    A    
C3    C34   A    
C25   C26   S    
C24   H14   S    
C14   C23   A    
C2    C4    A    
C27   H28   S    
C26   H18   S    
O6    Zn2   S    
C20   C23   S    
O5    Zn1   S    
C33   O8    A    
C16   H33   S    
C9    C11   A    
C4    C32   S    
C21   H7    S    
H29   N1    S    
C8    C15   A    
C12   O4    A    
C12   C31   S    
C22   C24   S    
C19   H35   S    
C26   H19   S    
C28   H25   S    
C25   C30   S    
C7    C9    A    
C24   H13   S    
C11   C34   A    
C25   H21   S    
O8    Zn1   S    
C3    C5    A    
C10   C13   A    
O4    Zn1   S    
O7    Zn2   S    
O3    Zn2   S    
C28   H24   S    
C17   H31   S    
C1    O1    A    
C18   H4    S    
N1    N2    D    
C32   O7    A    
C1    C30   S    
H30   N2    S    
C15   H6    S    
C21   H8    S    
C20   C21   S    
C11   C29   A    
C8    C10   A    
C27   C28   S    
C19   H36   S    
C17   H23   S    
C22   H17   S    
