data_str_m2_o24_o29_f0_pcu.sym.73
_audit_creation_date              2013-03-05T16:15:22-0500
_audit_creation_method            fapswitch 2.2
_symmetry_space_group_name_H-M    P1
_symmetry_Int_Tables_number       1
_space_group_crystal_system       triclinic
_cell_length_a                    27.658987
_cell_length_b                    10.647993
_cell_length_c                    9.460179
_cell_angle_alpha                 90.093693
_cell_angle_beta                  90.554676
_cell_angle_gamma                 91.207725
_cell_volume                      2785.38867696

loop_
_atom_site_label
_atom_site_type_symbol
_atom_site_description
_atom_site_fract_x
_atom_site_fract_y
_atom_site_fract_z
_atom_type_partial_charge
O1    O     O_R   0.500020 0.316850 0.620870 -0.571897
O2    O     O_R   0.499980 0.683150 0.379130 -0.574268
O3    O     O_R   0.500000 0.316860 0.379090 -0.556160
O4    O     O_R   0.500000 0.683140 0.620910 -0.566111
C1    C     C_R   0.499999 0.259719 0.499973 0.887564
C2    C     C_R   0.500653 0.740129 0.499891 0.891208
O5    O     O_R   0.430270 0.500020 0.620880 -0.576565
O6    O     O_R   0.569730 0.499980 0.379120 -0.571295
O7    O     O_R   0.430250 0.500030 0.379090 -0.539781
O8    O     O_R   0.569750 0.499970 0.620910 -0.532988
C3    C     C_R   0.407553 0.499109 0.499552 0.887128
C4    C     C_R   0.592466 0.504010 0.500418 0.886460
Cu1   Cu    Cu3+1 0.500010 0.499990 0.643150 1.053922
Cu2   Cu    Cu3+1 0.499990 0.500010 0.356850 1.057219
C5    C     C_R   0.179116 0.505131 0.633081 0.651450
C6    C     C_R   0.822084 0.575104 0.397778 0.638750
O9    O     O_2   0.204607 0.453168 0.739524 -0.484460
O10   O     O_2   0.796150 0.643616 0.305415 -0.467309
N1    N     N_R   0.202816 0.555691 0.519587 -0.445899
N2    N     N_R   0.799025 0.489709 0.483397 -0.447093
C7    C     C_R   0.178154 0.608849 0.409738 0.635657
C8    C     C_R   0.824458 0.417322 0.576244 0.636046
C9    C     C_R   0.286123 0.642835 0.552955 0.484244
C10   C     C_R   0.718162 0.389551 0.434905 0.447091
C11   C     C_R   0.336079 0.625195 0.545600 -0.314663
C12   C     C_R   0.667694 0.396493 0.443278 -0.334463
C13   C     C_R   0.322488 0.411075 0.461122 0.325328
C14   C     C_R   0.674942 0.605147 0.548318 0.341042
C15   C     C_R   0.272748 0.430252 0.465797 -0.218707
C16   C     C_R   0.725099 0.595149 0.545313 -0.222265
C17   C     C_R   0.254311 0.544294 0.511490 0.157108
C18   C     C_R   0.747075 0.489455 0.489039 0.170590
C19   C     C_R   0.102334 0.560806 0.527325 -0.044359
C20   C     C_R   0.899122 0.520827 0.502689 -0.045619
C21   C     C_R   0.128422 0.506868 0.639089 -0.102900
C22   C     C_R   0.872423 0.593768 0.407596 -0.107086
C23   C     C_R   0.103606 0.459513 0.756182 -0.154762
C24   C     C_R   0.895834 0.689701 0.332081 -0.155533
C25   C     C_R   0.127438 0.612789 0.411676 -0.040625
C26   C     C_R   0.875076 0.429223 0.584942 -0.033405
C27   C     C_R   0.354729 0.510486 0.499999 -0.190218
C28   C     C_R   0.645617 0.502783 0.500010 -0.155845
H1    H     H_    0.247738 0.354659 0.436616 0.204837
H2    H     H_    0.747784 0.672883 0.582439 0.202461
H3    H     H_    0.123707 0.426626 0.847266 0.233315
H4    H     H_    0.874842 0.752810 0.267383 0.237160
C29   C     C_R   0.975971 0.470466 0.618391 0.093023
C30   C     C_R   0.025232 0.621372 0.420174 0.086308
C31   C     C_R   0.974060 0.627098 0.427029 -0.069925
C32   C     C_R   0.026122 0.496517 0.639318 -0.070199
C33   C     C_R   0.949811 0.539778 0.516180 0.047813
C34   C     C_R   0.051125 0.560375 0.529620 0.043855
C35   C     C_R   0.951836 0.370721 0.687645 -0.075651
C36   C     C_R   0.051079 0.665088 0.301895 -0.038913
C37   C     C_R   0.902054 0.352306 0.674172 -0.086824
C38   C     C_R   0.101327 0.663016 0.298596 -0.064840
O11   O     O_2   0.800792 0.336829 0.662619 -0.457924
O12   O     O_2   0.202611 0.656323 0.298540 -0.465298
C39   C     C_R   0.053064 0.458919 0.761127 0.386324
C40   C     C_R   0.945636 0.712230 0.346667 0.356338
H5    H     H_    0.645240 0.319312 0.403689 0.178653
H6    H     H_    0.360760 0.701183 0.575980 0.199747
H7    H     H_    0.884881 0.276784 0.733090 0.212659
H8    H     H_    0.119540 0.698824 0.205672 0.210524
H9    H     H_    0.971342 0.303256 0.749134 0.205717
H10   H     H_    0.032689 0.696008 0.207792 0.212172
C41   C     C_3   0.544631 0.046340 0.543673 -0.239386
C42   C     C_3   0.457576 0.953368 0.455120 -0.245969
C43   C     C_3   0.534902 0.963035 0.413126 0.373927
C44   C     C_3   0.467332 0.036358 0.585728 0.390653
H11   H     H_    0.580422 0.085562 0.577501 0.201827
H12   H     H_    0.421851 0.914022 0.420808 0.210632
C45   C     C_3   0.501759 0.876494 0.499195 -0.161707
C46   C     C_3   0.500325 0.123096 0.499854 -0.153378
C47   C     C_3   0.510739 0.958546 0.631873 -0.180275
C48   C     C_3   0.491461 0.041046 0.367180 -0.186231
H13   H     H_    0.517851 0.923899 0.740576 0.222550
H14   H     H_    0.484625 0.074739 0.258065 0.227122
C49   C     C_3   0.497769 0.613980 0.051256 -0.138558
C50   C     C_3   0.502240 0.386207 0.949038 -0.125246
C51   C     C_3   0.460980 0.550446 0.947809 -0.152480
C52   C     C_3   0.538982 0.449811 0.052385 -0.138285
H15   H     H_    0.428031 0.591124 0.899920 0.189561
H16   H     H_    0.571952 0.409248 0.100289 0.189601
H17   H     H_    0.496644 0.709676 0.097663 0.193684
H18   H     H_    0.504781 0.290755 0.903414 0.207834
N3    N     N_3   0.500040 0.499970 0.858290 -0.236356
N4    N     N_3   0.499960 0.500030 0.141710 -0.235673
C53   C     C_3   0.535971 0.562125 0.953309 0.456839
C54   C     C_3   0.464019 0.437985 0.046990 0.444620
S1    S     S_3+6 0.340640 0.258106 0.415875 0.108403
O13   O     O_2   0.329059 0.234909 0.262528 -0.135898
O14   O     O_2   0.393549 0.239522 0.441739 -0.280380
O15   O     O_3   0.308644 0.153288 0.511696 -0.433883
H19   H     H_    0.310117 0.185958 0.609781 0.364957
S2    S     S_3+6 0.653018 0.754097 0.596964 0.103553
O16   O     O_2   0.665267 0.845164 0.480951 -0.184478
O17   O     O_2   0.599489 0.752438 0.618573 -0.265452
O18   O     O_3   0.680968 0.804918 0.745820 -0.419737
H20   H     H_    0.687113 0.728476 0.802025 0.376838
N5    N     N_R   0.577671 0.631816 0.900312 0.166057
O19   O     O_R   0.616957 0.571820 0.872893 -0.345757
O20   O     O_R   0.579822 0.753262 0.915048 -0.280611
N6    N     N_R   0.422990 0.366809 0.101818 0.168900
O21   O     O_R   0.379410 0.406955 0.081373 -0.292679
O22   O     O_R   0.429264 0.254937 0.152491 -0.283963
S3    S     S_3+6 0.743652 0.257859 0.351899 0.104928
O23   O     O_2   0.787830 0.297053 0.270477 -0.212243
O24   O     O_2   0.757903 0.163887 0.462304 -0.204963
O25   O     O_3   0.703291 0.190256 0.239715 -0.450901
H21   H     H_    0.685201 0.127796 0.297221 0.392409
S4    S     S_3+6 0.264779 0.788640 0.613193 0.083806
O26   O     O_2   0.255788 0.871481 0.487626 -0.193840
O27   O     O_2   0.218563 0.770868 0.693676 -0.261319
O28   O     O_3   0.306526 0.857845 0.719384 -0.473056
H22   H     H_    0.292076 0.938102 0.748445 0.409079
S5    S     S_3+6 0.027644 0.438706 0.931787 0.005567
O29   O     O_2   0.020705 0.301093 0.962566 -0.260032
O30   O     O_2   0.062101 0.493755 0.040077 -0.304251
O31   O     O_3   0.974518 0.511886 0.944079 -0.510135
H23   H     H_    0.964911 0.501958 0.044183 0.380090
S6    S     S_3+6 0.966782 0.863289 0.292062 0.034967
O32   O     O_2   0.976713 0.861230 0.136122 -0.259198
O33   O     O_2   0.928286 0.957663 0.319600 -0.217812
O34   O     O_3   0.017110 0.907711 0.381832 -0.514300
H24   H     H_    0.027749 0.987730 0.337550 0.395042
N7    N     N_R   0.572459 0.926712 0.314911 0.164127
O35   O     O_R   0.580975 0.809140 0.290225 -0.282639
O36   O     O_R   0.596689 0.013163 0.247284 -0.322698
N8    N     N_R   0.430039 0.075807 0.682757 0.158277
O37   O     O_R   0.386091 0.032028 0.668069 -0.280159
O38   O     O_R   0.441574 0.142336 0.793731 -0.339785

loop_
_geom_bond_atom_site_label_1
_geom_bond_atom_site_label_2
_geom_bond_distance
_ccdc_geom_bond_type
N5    O19   1.300115 A    
C13   C15   1.396198 A    
S3    O24   1.503177 D    
N8    O38   1.298974 A    
N1    C17   1.434788 S    
C8    O11   1.348987 S    
N6    O22   1.299186 A    
C41   C47   1.558724 S    
C19   C34   1.416660 A    
C30   C36   1.408179 A    
C9    S4    1.768016 S    
C20   C33   1.416742 A    
C19   C25   1.409239 A    
C52   C53   1.523809 S    
C46   C48   1.542781 S    
O1    C1    1.294539 A    
C32   C39   1.428616 A    
C48   H14   1.109181 S    
C21   C23   1.397984 A    
C12   H5    1.083681 S    
C10   C12   1.402384 A    
C50   N3    1.487804 S    
S5    O30   1.502324 D    
O28   H22   0.990643 S    
S2    O18   1.682957 S    
C44   N8    1.455430 S    
C43   C48   1.534838 S    
C14   C28   1.417283 A    
C1    C46   1.454974 S    
O25   H21   0.990484 S    
N6    O21   1.300201 A    
C4    C28   1.470484 S    
C5    N1    1.368555 A    
C25   C38   1.398275 A    
C31   C33   1.418751 A    
C37   H7    1.083262 S    
C44   C46   1.525459 S    
C32   C34   1.419139 A    
S3    O23   1.502793 D    
C38   H8    1.083280 S    
C43   C45   1.527653 S    
C35   H9    1.075698 S    
C41   H11   1.110312 S    
O6    C4    1.303377 A    
C29   C35   1.408445 A    
N5    O20   1.300468 A    
Cu1   Cu2   2.708443 S    
C15   H1    1.083839 S    
C45   C47   1.543264 S    
C16   H2    1.083980 S    
O2    C2    1.292448 A    
N7    O36   1.300008 A    
C5    C21   1.404356 A    
C49   N4    1.487818 S    
C51   H15   1.110260 S    
C29   C32   1.420749 A    
C35   C37   1.391294 A    
C36   C38   1.391083 A    
C24   H4    1.083615 S    
C50   C52   1.548180 S    
S5    O31   1.682604 S    
C11   C27   1.404717 A    
S1    O13   1.501533 D    
C49   C51   1.549283 S    
C29   C33   1.419325 A    
C42   C45   1.539712 S    
S2    O17   1.496306 D    
C42   H12   1.110475 S    
C41   C43   1.537651 S    
C9    C17   1.407867 A    
O5    C3    1.303091 A    
O7    Cu2   1.942406 S    
C10   C18   1.409916 A    
N1    C7    1.367502 A    
S1    O14   1.498668 D    
O7    C3    1.306337 A    
C13   C27   1.415467 A    
O18   H20   0.989757 S    
C7    C25   1.404576 A    
C30   C34   1.419232 A    
C6    N2    1.370269 A    
C26   C37   1.398556 A    
C8    C26   1.404719 A    
S2    O16   1.502134 D    
Cu1   N3    2.035256 S    
C31   C40   1.427758 A    
C10   S3    1.768836 S    
C51   N3    1.487933 S    
C40   S6    1.779053 S    
C47   H13   1.110271 S    
C54   N6    1.451787 S    
C23   C39   1.399060 A    
O3    Cu2   1.961843 S    
O8    C4    1.307211 A    
C24   C40   1.398683 A    
C51   C54   1.525703 S    
O4    C2    1.296710 A    
C30   C31   1.420057 A    
N2    C8    1.368778 A    
C52   H16   1.110298 S    
N3    C53   1.478758 S    
O34   H24   0.990479 S    
S3    O25   1.682679 S    
C20   C26   1.408681 A    
C13   S1    1.767678 S    
C39   S5    1.778748 S    
C23   H3    1.083568 S    
N7    O35   1.299928 A    
C49   H17   1.110024 S    
O31   H23   0.991266 S    
C12   C28   1.405458 A    
C2    C45   1.451728 S    
N2    C18   1.438321 S    
C5    O9    1.349730 S    
O6    Cu2   1.938387 S    
C53   N5    1.452124 S    
C6    O10   1.349886 S    
N4    C54   1.476732 S    
O3    C1    1.296234 A    
O8    Cu1   1.942406 S    
C36   H10   1.076529 S    
C42   C48   1.556551 S    
S4    O26   1.502646 D    
C50   H18   1.107432 S    
C14   S2    1.771584 S    
S6    O34   1.682464 S    
C22   C24   1.398769 A    
N8    O37   1.298788 A    
Cu2   N4    2.035256 S    
C7    O12   1.349373 S    
C15   C17   1.396465 A    
S5    O29   1.503119 D    
C6    C22   1.404431 A    
C41   C46   1.541137 S    
C16   C18   1.397354 A    
C52   N4    1.485059 S    
C14   C16   1.394180 A    
C19   C21   1.404675 A    
C3    C27   1.468649 S    
C20   C22   1.404083 A    
C11   H6    1.084174 S    
C9    C11   1.400722 A    
C50   C54   1.523826 S    
O15   H19   0.990607 S    
O2    Cu2   1.961094 S    
C49   C53   1.523748 S    
S4    O27   1.502883 D    
O5    Cu1   1.938387 S    
O1    Cu1   1.961095 S    
C43   N7    1.458229 S    
C42   C44   1.536317 S    
C44   C47   1.533456 S    
S6    O32   1.503384 D    
S6    O33   1.503679 D    
S4    O28   1.680689 S    
O4    Cu1   1.961844 S    
S1    O15   1.681610 S    
