data_str_m12_o9_o22_f0_bcu.sym.33
_audit_creation_date              2012-12-11T17:45:26-0500
_audit_creation_method            fapswitch 2.2
_symmetry_space_group_name_H-M    P1
_symmetry_Int_Tables_number       1
_space_group_crystal_system       triclinic
_cell_length_a                    14.996036
_cell_length_b                    14.945191
_cell_length_c                    15.148158
_cell_angle_alpha                 110.529521
_cell_angle_beta                  109.015933
_cell_angle_gamma                 108.672561
_cell_volume                      2619.16432565

loop_
_atom_site_label
_atom_site_type_symbol
_atom_type_description
_atom_site_fract_x
_atom_site_fract_y
_atom_site_fract_z
_atom_type_partial_charge
C1    C     C_R   0.976244 0.250814 0.063300 -0.124534
C2    C     C_R   0.701298 0.198153 0.790107 -0.161661
C3    C     C_R   0.776372 0.591790 0.025589 -0.130405
C4    C     C_R   0.313345 0.750193 0.223264 -0.095638
C5    C     C_R   0.943772 0.410073 0.685777 -0.130712
C6    C     C_R   0.674704 0.499415 0.950153 -0.013316
C7    C     C_R   0.961983 0.504549 0.679384 0.053053
C8    C     C_R   0.696487 0.138709 0.693730 0.071517
C9    C     C_R   0.060155 0.868342 0.068276 0.060677
C10   C     C_R   0.613307 0.269055 0.099961 -0.115831
C11   C     C_R   0.694141 0.356592 0.203596 -0.146357
C12   C     C_R   0.320012 0.770116 0.322886 0.035137
C13   C     C_R   0.745654 0.336676 0.284710 0.107802
C14   C     C_R   0.708749 0.227785 0.262067 -0.138032
C15   C     C_R   0.624254 0.140677 0.159537 -0.094895
C16   C     C_R   0.208008 0.408261 0.901984 -0.147398
C17   C     C_R   0.577445 0.161362 0.078139 -0.104468
C18   C     C_R   0.852913 0.431992 0.485824 -0.240850
C19   C     C_R   0.946467 0.514062 0.584764 0.062564
C20   C     C_R   0.029236 0.599039 0.590307 0.010928
C21   C     C_R   0.018106 0.596161 0.495990 -0.243371
C22   C     C_R   0.929741 0.509447 0.396154 0.064334
C23   C     C_R   0.298642 0.498805 0.929558 0.008083
C24   C     C_R   0.843074 0.428080 0.389614 0.023852
C25   C     C_R   0.153472 0.789126 0.751990 -0.215138
C26   C     C_R   0.253964 0.868761 0.844408 -0.121182
C27   C     C_R   0.337937 0.844576 0.872702 -0.102283
C28   C     C_R   0.996121 0.591989 0.298622 -0.174482
C29   C     C_R   0.321925 0.741230 0.808348 -0.119082
C30   C     C_R   0.221073 0.660613 0.716908 -0.125530
C31   C     C_R   0.135730 0.683731 0.688720 0.126495
C32   C     C_R   0.143682 0.922422 0.424559 -0.083545
C33   C     C_R   0.245695 0.942901 0.437058 -0.098860
C34   C     C_R   0.942469 0.502202 0.303961 0.062135
C35   C     C_R   0.311925 0.925076 0.511048 0.079536
C36   C     C_R   0.281082 0.901147 0.581652 -0.173503
C37   C     C_R   0.182015 0.888861 0.573456 -0.129444
C38   C     C_R   0.112463 0.897912 0.494024 -0.177620
C39   C     C_R   0.505856 0.014984 0.600242 -0.240447
C40   C     C_R   0.298479 0.590336 0.994139 -0.144415
C41   C     C_R   0.605057 0.032401 0.606524 0.072111
C42   C     C_R   0.610604 0.953286 0.526705 0.089303
C43   C     C_R   0.515247 0.861201 0.438726 -0.169385
C44   C     C_R   0.415595 0.850028 0.427957 0.070111
C45   C     C_R   0.686613 0.407891 0.934695 -0.142246
C46   C     C_R   0.411280 0.926527 0.512337 0.032281
C47   C     C_R   0.755180 0.009805 0.475522 -0.007505
C48   C     C_R   0.863750 0.042587 0.503760 -0.275585
C49   C     C_R   0.926198 0.020899 0.575755 -0.093065
C50   C     C_R   0.881404 0.968255 0.622661 -0.083181
C51   C     C_R   0.776710 0.943432 0.603112 -0.182448
C52   C     C_R   0.912488 0.409673 0.211908 -0.132759
C53   C     C_R   0.713769 0.966000 0.531821 0.070952
C54   C     C_3   0.469872 0.386876 0.836802 -0.140059
C55   C     C_3   0.365779 0.389704 0.829473 -0.435294
C56   C     C_R   0.024240 0.593113 0.782336 -0.103871
C57   C     C_3   0.570253 0.513487 0.040613 -0.426878
C58   C     C_3   0.565312 0.593979 0.919887 -0.361601
C59   C     C_3   0.571731 0.498099 0.934408 0.322157
C60   C     C_3   0.395211 0.498342 0.925326 0.372883
C61   C     C_3   0.466880 0.512526 0.034704 -0.391311
C62   C     C_3   0.459790 0.593038 0.912573 -0.402121
C63   C     C_R   0.167040 0.056756 0.799527 -0.128341
C64   C     C_R   0.217009 0.731595 0.307555 -0.134385
C65   C     C_R   0.130235 0.055846 0.872826 -0.184976
C66   C     C_R   0.197362 0.135029 0.983440 0.110204
C67   C     C_R   0.789144 0.201021 0.696423 -0.100902
C68   C     C_R   0.302351 0.214075 0.020459 -0.148184
C69   C     C_R   0.339238 0.213324 0.946732 -0.143929
C70   C     C_R   0.272194 0.134312 0.836586 -0.110701
C71   C     C_R   0.165850 0.038367 0.076891 -0.216752
C72   C     C_R   0.094467 0.985513 0.105322 0.051918
C73   C     C_R   0.048500 0.042778 0.153764 0.118261
C74   C     C_R   0.067544 0.142906 0.161473 -0.200473
C75   C     C_R   0.103244 0.170737 0.095660 0.039306
C76   C     C_R   0.069814 0.254377 0.974311 -0.132676
C77   C     C_R   0.161595 0.122696 0.059820 0.024672
C78   C     C_R   0.000417 0.803169 0.096086 -0.126508
C79   C     C_R   0.856768 0.937524 0.103131 -0.229482
C80   C     C_R   0.778456 0.894468 0.129182 -0.131797
C81   C     C_R   0.810102 0.902263 0.230155 -0.150762
C82   C     C_R   0.919693 0.962591 0.308531 -0.341874
C83   C     C_R   0.997921 0.020495 0.288424 0.557852
C84   C     C_R   0.966884 0.996882 0.181647 -0.034495
C85   C     C_R   0.055461 0.226721 0.048933 0.059693
C86   C     C_2   0.693790 0.033094 0.395564 0.427479
C87   C     C_2   0.469686 0.355646 0.730213 0.485982
C88   C     C_3   0.119042 0.169608 0.464523 0.212427
C89   C     C_R   0.091444 0.804737 0.006138 -0.148216
C90   C     C_3   0.075392 0.246123 0.448017 -0.332570
C91   C     C_3   0.097065 0.332909 0.555006 -1.012525
H1    H     H_    0.942456 0.238426 0.113438 0.093481
H2    H     H_    0.580642 0.284569 0.035707 0.093456
H3    H     H_    0.720651 0.439551 0.218751 0.114144
H4    H     H_    0.379101 0.770441 0.205832 0.112931
H5    H     H_    0.747789 0.210195 0.322554 0.107800
H6    H     H_    0.597121 0.057094 0.142426 0.111297
H7    H     H_    0.789303 0.369252 0.483682 0.141714
H8    H     H_    0.085703 0.656946 0.500657 0.140550
H9    H     H_    0.088529 0.808359 0.731097 0.114990
H10   H     H_    0.266825 0.949051 0.894341 0.137073
H11   H     H_    0.415599 0.905813 0.944304 0.096139
H12   H     H_    0.045944 0.677031 0.807484 0.115435
H13   H     H_    0.388175 0.724286 0.829326 0.102452
H14   H     H_    0.209722 0.580801 0.667843 0.119289
H15   H     H_    0.033290 0.882539 0.484196 0.113135
H16   H     H_    0.177299 0.323402 0.844800 0.103089
H17   H     H_    0.087102 0.919886 0.357528 0.140027
H18   H     H_    0.268395 0.961506 0.382058 0.138465
H19   H     H_    0.332023 0.888764 0.640445 0.130291
H20   H     H_    0.157134 0.868040 0.625625 0.131146
H21   H     H_    0.499976 0.075825 0.659809 0.123678
H22   H     H_    0.518694 0.801849 0.375271 0.113877
H23   H     H_    0.817608 0.179761 0.640370 0.111368
H24   H     H_    0.900732 0.087697 0.471588 0.130644
H25   H     H_    0.009396 0.045278 0.595334 0.099329
H26   H     H_    0.928373 0.949058 0.676393 0.099374
H27   H     H_    0.018097 0.675725 0.350005 0.120826
H28   H     H_    0.745240 0.908462 0.645199 0.117268
H29   H     H_    0.469428 0.320102 0.853489 0.051153
H30   H     H_    0.315057 0.381174 0.751536 0.178340
H31   H     H_    0.316381 0.318225 0.831148 0.144614
H32   H     H_    0.576819 0.447726 0.055744 0.152938
H33   H     H_    0.422213 0.445505 0.045541 0.164712
H34   H     H_    0.978708 0.828490 0.157834 0.101711
H35   H     H_    0.634732 0.672792 0.990301 0.141526
H36   H     H_    0.570298 0.589491 0.847038 0.198498
H37   H     H_    0.409582 0.580944 0.832529 0.170320
H38   H     H_    0.353474 0.675052 0.024920 0.093630
H39   H     H_    0.481059 0.674020 0.976503 0.138723
H40   H     H_    0.640827 0.592727 0.111642 0.167731
H41   H     H_    0.488670 0.590996 0.103381 0.157638
H42   H     H_    0.301435 0.133687 0.779910 0.112300
H43   H     H_    0.114671 0.996043 0.714518 0.105228
H44   H     H_    0.050485 0.992099 0.844506 0.112575
H45   H     H_    0.150181 0.831984 0.981873 0.103608
H46   H     H_    0.355923 0.274159 0.105926 0.124223
H47   H     H_    0.419621 0.274203 0.974804 0.111159
H48   H     H_    0.211296 0.003507 0.049595 0.126288
H49   H     H_    0.034514 0.186431 0.201894 0.112793
H50   H     H_    0.861421 0.325261 0.185429 0.110807
H51   H     H_    0.831916 0.925946 0.022534 0.139137
H52   H     H_    0.693555 0.853198 0.070337 0.114611
H53   H     H_    0.749866 0.862302 0.247959 0.132042
H54   H     H_    0.943590 0.962874 0.383794 0.140599
H55   H     H_    0.192890 0.727256 0.366094 0.130395
H56   H     H_    0.650430 0.168655 0.821511 0.093895
H57   H     H_    0.125531 0.251081 0.945219 0.127160
H58   H     H_    0.624785 0.322857 0.886935 0.078190
H59   H     H_    0.729099 0.060226 0.351382 0.011208
H60   H     H_    0.491645 0.293634 0.699310 0.014940
H61   H     H_    0.207274 0.220899 0.523153 0.163826
H62   H     H_    0.083816 0.129324 0.503132 0.072859
H63   H     H_    0.114866 0.287378 0.412197 0.217862
H64   H     H_    0.986609 0.198231 0.391532 0.184778
H65   H     H_    0.061043 0.293659 0.594072 0.262417
H66   H     H_    0.060098 0.383148 0.539405 0.276284
H67   H     H_    0.796061 0.676720 0.061740 0.112483
H68   H     H_    0.185514 0.387627 0.610791 0.271364
H69   H     H_    0.899810 0.326349 0.619526 0.101513
H70   H     H_    0.514461 0.094222 0.997700 0.102927
N1    N     N_R   0.947080 0.293830 0.002870 -0.042037
N2    N     N_R   0.153670 0.443180 0.946090 -0.038455
N3    N     N_R   0.002360 0.556820 0.208890 -0.039127
N4    N     N_R   0.210070 0.556820 0.002870 -0.035948
N5    N     N_R   0.945960 0.443180 0.152110 -0.038962
N6    N     N_R   0.151710 0.706170 0.208890 -0.045421
N7    N     N_R   0.004320 0.293830 0.946090 -0.043606
N8    N     N_R   0.789930 0.443180 0.997130 -0.032462
N9    N     N_R   0.054040 0.556820 0.847890 -0.040638
N10   N     N_R   0.848290 0.293830 0.791110 -0.045299
N11   N     N_R   0.995680 0.706170 0.053910 -0.041868
N12   N     N_R   0.052920 0.706170 0.997130 -0.041602
N13   N     N_R   0.791050 0.293830 0.847890 -0.036197
N14   N     N_R   0.846330 0.556820 0.053910 -0.038264
N15   N     N_R   0.997640 0.443180 0.791110 -0.040988
N16   N     N_R   0.208950 0.706170 0.152110 -0.045064
Ni1   Ni    Ni4+2 0.869690 0.369690 0.000000 0.214596
Ni2   Ni    Ni4+2 0.130310 0.630310 0.000000 0.222504
Ni3   Ni    Ni4+2 0.000970 0.369690 0.869780 0.217479
Ni4   Ni    Ni4+2 0.999030 0.630310 0.130220 0.210038
O1    O     O_2   0.604692 0.023023 0.377745 -0.586108
O2    O     O_2   0.447435 0.400305 0.679165 -0.589499
O3    O     O_3   0.106265 0.092672 0.367427 -0.679201

loop_
_geom_bond_atom_site_label_1
_geom_bond_atom_site_label_2
_ccdc_geom_bond_type
C25   C31   A    
C66   C68   A    
C40   H38   S    
C63   C65   A    
C58   C62   S    
C6    C45   A    
C54   H29   S    
C27   C29   A    
C50   H26   S    
C41   C42   A    
C62   H39   S    
C35   C36   A    
C9    C72   S    
C89   N12   A    
C4    N16   A    
C3    C6    A    
C55   H30   S    
C81   C82   A    
C90   C91   S    
C39   C41   A    
N9    N15   A    
C54   C87   S    
C26   C27   A    
C29   C30   A    
C61   H33   S    
C18   C24   A    
C91   H66   S    
C36   C37   A    
N2    N4    A    
C67   H23   S    
C64   N6    A    
C86   H59   S    
C42   C53   S    
C87   O2    D    
C30   C31   A    
C21   H8    S    
C57   C59   S    
C79   H51   S    
C57   H32   S    
N12   Ni2   S    
C10   C17   A    
C23   C40   A    
C60   C62   S    
C18   C19   A    
C73   C74   A    
C43   H22   S    
N3    Ni4   S    
C61   H41   S    
C52   N5    A    
N11   Ni4   S    
C75   C85   S    
C81   H53   S    
C83   C84   A    
C68   C69   A    
N16   Ni2   S    
C3    H67   S    
C51   H28   S    
N5    Ni1   S    
C32   C38   A    
C4    C12   A    
N13   Ni1   S    
C73   C84   S    
C91   H68   S    
C16   H16   S    
C47   C53   A    
C56   N9    A    
C5    H69   S    
C55   H31   S    
C28   C34   A    
C58   H36   S    
C89   H45   S    
C87   H60   S    
C21   C22   A    
C88   H61   S    
C68   H46   S    
C7    C56   A    
C15   H6    S    
C14   H5    S    
C44   C46   A    
C54   C59   S    
C16   N2    A    
C1    C85   A    
C23   C60   S    
C22   C34   S    
N10   N13   A    
N1    Ni1   S    
C74   C75   A    
C13   C14   A    
C47   C86   S    
C8    C41   S    
C9    C89   A    
C5    C7    A    
C72   C73   A    
C71   H48   S    
C10   H2    S    
C67   N10   A    
C25   C26   A    
N7    Ni3   S    
C74   H49   S    
C82   C83   A    
C29   H13   S    
C60   C61   S    
C51   C53   A    
C38   H15   S    
C43   C44   A    
C63   H43   S    
C37   C38   A    
C70   H42   S    
C4    H4    S    
C25   H9    S    
C47   C48   A    
C63   C70   A    
C80   H52   S    
C78   N11   A    
C50   C51   A    
N8    N14   A    
C75   C77   A    
C76   H57   S    
C40   N4    A    
C65   H44   S    
C17   H70   S    
C39   C46   A    
N1    N7    A    
C11   H3    S    
C3    N14   A    
C48   C49   A    
N6    N16   A    
C88   C90   S    
C1    N1    A    
C58   H35   S    
C1    H1    S    
C7    C19   S    
C48   H24   S    
C30   H14   S    
C36   H19   S    
N4    Ni2   S    
C5    N15   A    
C22   C24   A    
N10   Ni3   S    
C33   H18   S    
C42   C43   A    
N8    Ni1   S    
C71   C77   A    
C82   H54   S    
N11   N12   A    
C28   N3    A    
C69   H47   S    
C15   C17   A    
C66   C77   S    
C54   C55   S    
C39   H21   S    
C79   C84   A    
C64   H55   S    
C78   H34   S    
C6    C59   S    
C57   H40   S    
C2    C8    A    
C56   H12   S    
C80   C81   A    
C2    H56   S    
C45   N8    A    
C57   C61   S    
C16   C23   A    
C27   H11   S    
C34   C52   A    
C52   H50   S    
N14   Ni4   S    
N9    Ni2   S    
C88   H62   S    
C19   C20   A    
N3    N5    A    
C58   C59   S    
C71   C72   A    
C26   H10   S    
C28   H27   S    
C32   C33   A    
C62   H37   S    
C11   C13   A    
C90   H63   S    
N6    Ni4   S    
C12   C64   A    
C33   C35   A    
C83   O3    S    
C76   N7    A    
C45   H58   S    
C9    C78   A    
C65   C66   A    
C69   C70   A    
C37   H20   S    
C88   O3    S    
C10   C11   A    
C79   C80   A    
N15   Ni3   S    
C49   H25   S    
C91   H65   S    
C20   C21   A    
C13   C24   S    
C8    C67   A    
C12   C44   S    
C49   C50   A    
C32   H17   S    
N2    Ni3   S    
C86   O1    D    
C14   C15   A    
C18   H7    S    
C90   H64   S    
C55   C60   S    
C35   C46   S    
C76   C85   A    
C2    N13   A    
C20   C31   S    
