data_str_m9_o13_o2_f0_sra.sym.15
_audit_creation_date              2012-12-11T14:57:52-0500
_audit_creation_method            fapswitch 2.2
_symmetry_space_group_name_H-M    P1
_symmetry_Int_Tables_number       1
_space_group_crystal_system       triclinic
_cell_length_a                    6.941632
_cell_length_b                    16.794879
_cell_length_c                    16.992467
_cell_angle_alpha                 100.450474
_cell_angle_beta                  90.742633
_cell_angle_gamma                 90.667825
_cell_volume                      1947.82479511

loop_
_atom_site_label
_atom_site_type_symbol
_atom_type_description
_atom_site_fract_x
_atom_site_fract_y
_atom_site_fract_z
_atom_type_partial_charge
O1    O     O_R   0.506180 0.438940 0.579430 -0.542371
O2    O     O_R   0.170520 0.406230 0.413590 -0.526124
O3    O     O_R   0.005180 0.561060 0.420570 -0.552099
C1    C     C_R   0.338001 0.382137 0.386051 0.811194
O4    O     O_R   0.176140 0.429310 0.578370 -0.535931
O5    O     O_R   0.010830 0.584300 0.586530 -0.541730
C2    C     C_R   0.343776 0.414168 0.605722 0.747872
O6    O     O_R   0.500520 0.415700 0.413470 -0.533174
O7    O     O_3   0.340830 0.550820 0.502480 -0.370044
V1    V     V_3+5 0.064040 0.490570 0.499540 1.477009
O8    O     O_R   0.681400 0.593770 0.586410 -0.542697
C3    C     C_R   0.851694 0.616245 0.615013 0.671151
O9    O     O_R   0.675790 0.570690 0.421630 -0.511361
C4    C     C_R   0.842299 0.585312 0.393763 0.764077
V2    V     V_3+5 0.564650 0.509430 0.500460 1.503017
O10   O     O_3   0.837730 0.449180 0.497520 -0.369958
C5    C     C_R   0.925680 0.861061 0.166739 -0.132292
C6    C     C_R   0.838036 0.635880 0.329806 -0.168648
C7    C     C_R   0.660356 0.684118 0.221697 0.371197
C8    C     C_R   0.677140 0.630410 0.276812 0.333478
C9    C     C_R   0.980690 0.694915 0.326930 -0.226110
C10   C     C_R   0.962897 0.750626 0.274163 0.041915
C11   C     C_R   0.800582 0.745635 0.221393 0.019174
C12   C     C_R   0.783349 0.801789 0.168673 -0.042363
C13   C     C_R   0.083812 0.865650 0.219730 -0.149547
C14   C     C_R   0.103331 0.811876 0.273082 0.456717
H1    H     H_    0.663173 0.798677 0.127033 0.191547
H2    H     H_    0.194354 0.911359 0.219305 0.199611
H3    H     H_    0.101471 0.698902 0.368438 0.197471
C15   C     C_R   0.847990 0.910868 0.723583 -0.199134
C16   C     C_R   0.814366 0.926203 0.646727 -0.215872
C17   C     C_R   0.797753 0.862082 0.581428 0.440602
C18   C     C_R   0.815085 0.782632 0.594150 -0.132485
C19   C     C_R   0.847930 0.765429 0.671703 -0.012389
C20   C     C_R   0.864657 0.830818 0.737697 0.069194
C21   C     C_R   0.866024 0.684573 0.684017 -0.112502
C22   C     C_R   0.899620 0.669167 0.762460 0.000015
C23   C     C_R   0.916051 0.734526 0.828337 0.000351
C24   C     C_R   0.899251 0.815396 0.815982 -0.111628
C25   C     C_R   0.914561 0.589122 0.776788 -0.215984
C26   C     C_R   0.944924 0.572854 0.853767 0.342032
C27   C     C_R   0.960645 0.637977 0.919009 0.369351
C28   C     C_R   0.946328 0.717385 0.905924 -0.216511
H4    H     H_    0.861614 0.962516 0.771747 0.109655
H5    H     H_    0.801934 0.988306 0.638189 0.126432
H6    H     H_    0.802721 0.734647 0.542308 0.117758
H7    H     H_    0.901317 0.537789 0.728209 0.127910
H8    H     H_    0.957997 0.765551 0.957624 0.143938
H9    H     H_    0.276760 0.483256 0.138425 0.194059
C29   C     C_R   0.335568 0.211951 0.410275 0.320098
C30   C     C_R   0.372105 0.133740 0.425214 0.277968
C31   C     C_R   0.429383 0.073705 0.362917 -0.232871
C32   C     C_R   0.447889 0.088375 0.285487 0.297725
C33   C     C_R   0.411732 0.166874 0.266948 -0.081630
C34   C     C_R   0.365132 0.230753 0.332240 -0.056187
C35   C     C_R   0.420347 0.183551 0.186802 -0.146465
C36   C     C_R   0.393132 0.264414 0.173260 0.034886
C37   C     C_R   0.348659 0.326931 0.239037 -0.005341
C38   C     C_R   0.344825 0.311524 0.318180 -0.115849
C39   C     C_R   0.409391 0.285717 0.095522 0.316246
C40   C     C_R   0.365876 0.364602 0.084484 -0.165912
C41   C     C_R   0.311625 0.423078 0.148143 -0.089325
C42   C     C_R   0.304974 0.405084 0.224469 -0.135918
H10   H     H_    0.459844 0.013824 0.374899 0.208543
H11   H     H_    0.374798 0.381065 0.025869 0.137056
H12   H     H_    0.261458 0.453160 0.271941 0.122357
C43   C     C_R   0.425492 0.137494 0.831650 -0.097148
C44   C     C_R   0.340890 0.361000 0.667052 -0.133271
C45   C     C_R   0.156129 0.304675 0.766138 -0.097164
C46   C     C_R   0.175692 0.359708 0.714189 -0.098273
C47   C     C_R   0.488415 0.305994 0.673820 -0.157935
C48   C     C_R   0.468892 0.248992 0.725456 0.137787
C49   C     C_R   0.300331 0.248423 0.771876 0.063970
C50   C     C_R   0.278819 0.192379 0.823925 -0.252919
C51   C     C_R   0.590754 0.137543 0.784268 -0.253760
C52   C     C_R   0.613653 0.192267 0.731153 0.345719
H13   H     H_    0.151739 0.193611 0.860535 0.138062
H14   H     H_    0.704814 0.095303 0.789458 0.112668
H15   H     H_    0.026517 0.305517 0.801154 0.148168
H16   H     H_    0.058856 0.400955 0.710057 0.147070
H17   H     H_    0.614473 0.305940 0.636872 0.174221
O11   O     O_R   0.265840 0.084300 0.086750 -0.540840
O12   O     O_R   0.589750 0.070740 0.921690 -0.540654
O13   O     O_R   0.755020 0.915730 0.913400 -0.544754
C53   C     C_R   0.422133 0.085459 0.894040 0.750509
O14   O     O_R   0.595830 0.093740 0.086480 -0.504488
O15   O     O_R   0.761150 0.938890 0.079360 -0.506606
C54   C     C_R   0.428478 0.115707 0.116395 0.909486
O16   O     O_R   0.259710 0.061140 0.920790 -0.546368
O17   O     O_3   0.425260 0.949200 0.997610 -0.360002
V3    V     V_3+5 0.702060 0.009430 0.000450 1.531057
O18   O     O_R   0.090530 0.929220 0.078150 -0.537056
C55   C     C_R   0.923586 0.913541 0.104993 0.766955
O19   O     O_R   0.084440 0.906220 0.913360 -0.543569
C56   C     C_R   0.914030 0.883753 0.884891 0.664309
V4    V     V_3+5 0.201450 0.990520 0.999290 1.508384
O20   O     O_3   0.928380 0.050800 0.002390 -0.376301
O21   O     O_3   0.765199 0.874941 0.504469 -0.615392
H18   H     H_    0.756017 0.934015 0.505489 0.303395
O22   O     O_3   0.956779 0.492675 0.861823 -0.649872
H19   H     H_    0.980985 0.488986 0.918471 0.337816
O23   O     O_3   0.263131 0.269948 0.470470 -0.653415
H20   H     H_    0.229386 0.246224 0.517784 0.332376
O24   O     O_3   0.352717 0.117625 0.501762 -0.639838
H21   H     H_    0.384388 0.060237 0.502057 0.308844
Cl1   Cl    Cl    0.531336 0.003632 0.219137 -0.678283
O25   O     O_3   0.474135 0.230562 0.031350 -0.665168
H22   H     H_    0.483263 0.256461 0.983492 0.279525
O26   O     O_3   0.776839 0.191775 0.685303 -0.649536
H23   H     H_    0.864585 0.149127 0.697121 0.289302
Cl2   Cl    Cl    0.466176 0.671929 0.151344 -0.599677
Cl3   Cl    Cl    0.308864 0.823404 0.336543 -0.634285
O27   O     O_3   0.540094 0.570681 0.279502 -0.639541
H24   H     H_    0.415513 0.586752 0.258768 0.323540
Cl4   Cl    Cl    0.996171 0.623624 0.018430 -0.608199

loop_
_geom_bond_atom_site_label_1
_geom_bond_atom_site_label_2
_ccdc_geom_bond_type
C25   H7    S    
C34   C38   A    
C6    C9    A    
C49   C50   A    
C4    C6    S    
O2    C1    A    
C7    C8    A    
C12   H1    S    
C48   C52   A    
O17   V3    S    
C32   C33   A    
C13   H2    S    
C41   C42   A    
C15   C20   A    
C21   C22   A    
C22   C25   A    
O15   V3    S    
O14   V3    S    
O5    C3    A    
C15   C16   A    
O14   C54   A    
C35   C54   S    
V2    O10   S    
O18   V4    S    
C35   C36   A    
C19   C20   A    
C26   C27   A    
C5    C55   S    
O22   H19   S    
C2    C44   S    
O8    V2    S    
C32   Cl1   S    
C52   O26   S    
C50   H13   S    
C11   C12   A    
C45   C49   A    
O1    V2    S    
O13   V3    S    
C3    C21   S    
C28   H8    S    
C6    C8    A    
C1    O6    A    
C42   H12   S    
O9    C4    A    
C18   H6    S    
C15   H4    S    
O23   H20   S    
O24   H21   S    
C18   C19   A    
C23   C24   A    
C33   C35   A    
C43   C53   S    
C5    C12   A    
O11   V4    S    
C46   H16   S    
C30   C31   A    
C31   H10   S    
O4    C2    A    
C53   O16   A    
C7    C11   A    
C36   C39   A    
C13   C14   A    
C9    H3    S    
C39   C40   A    
O13   C56   A    
C20   C24   A    
C51   C52   A    
C22   C23   A    
C16   C17   A    
O25   H22   S    
V4    O20   S    
C29   C30   A    
C26   O22   S    
O19   C56   A    
C43   C50   A    
V3    O20   S    
O19   V4    S    
O3    C4    A    
C24   C56   S    
C39   O25   S    
C25   C26   A    
O12   C53   A    
C29   O23   S    
O6    V2    S    
O9    V2    S    
C16   H5    S    
C45   H15   S    
C43   C51   A    
C27   C28   A    
O2    V1    S    
C14   Cl3   S    
C31   C32   A    
O27   H24   S    
O7    V1    S    
C37   C42   A    
C33   C34   A    
H9    C41   S    
O1    C2    A    
C37   C38   A    
C48   C49   A    
O5    V1    S    
O8    C3    A    
O17   V4    S    
C7    Cl2   S    
O12   V3    S    
C29   C34   A    
C5    C13   A    
C17   C18   A    
O16   V4    S    
C30   O24   S    
C23   C28   A    
O3    V1    S    
V1    O10   S    
O26   H23   S    
C36   C37   A    
C8    O27   S    
C44   C47   A    
O11   C54   A    
O15   C55   A    
C1    C38   S    
O18   C55   A    
C17   O21   S    
C19   C21   A    
O7    V2    S    
C40   C41   A    
C51   H14   S    
C45   C46   A    
C40   H11   S    
C27   Cl4   S    
O4    V1    S    
C47   C48   A    
C44   C46   A    
O21   H18   S    
C10   C14   A    
C10   C11   A    
C9    C10   A    
C47   H17   S    
