data_str_m2_o10_o29_f0_pcu.sym.68
_audit_creation_date              2012-10-26T20:17:41-0400
_audit_creation_method            fapswitch 2.2
_symmetry_space_group_name_H-M    P1
_symmetry_Int_Tables_number       1
_space_group_crystal_system       triclinic
_cell_length_a                    27.792918
_cell_length_b                    8.72401
_cell_length_c                    7.417516
_cell_angle_alpha                 103.231847
_cell_angle_beta                  93.745164
_cell_angle_gamma                 92.278904
_cell_volume                      1744.23400818

loop_
_atom_site_label
_atom_site_type_symbol
_atom_type_description
_atom_site_fract_x
_atom_site_fract_y
_atom_site_fract_z
_atom_type_partial_charge
Br1   Br    Br    0.250047 0.261682 0.083834 -0.479177
Br2   Br    Br    0.758750 0.676648 0.899267 -0.504235
Br3   Br    Br    0.634771 0.358462 0.091819 -0.429469
Br4   Br    Br    0.360659 0.680289 0.878175 -0.376615
Br5   Br    Br    0.443481 0.933246 0.233690 -0.360965
Br6   Br    Br    0.556444 0.066529 0.766491 -0.376620
C1    C     C_R   0.498185 0.200011 0.454190 0.582789
C2    C     C_R   0.870129 0.359812 0.472597 0.024138
C3    C     C_R   0.354227 0.483709 0.501015 -0.029054
C4    C     C_R   0.645899 0.503966 0.492507 -0.026341
C5    C     C_R   0.970124 0.345755 0.422708 0.027068
C6    C     C_R   0.029037 0.630757 0.490523 0.026020
C7    C     C_R   0.978774 0.636629 0.515141 -0.007414
C8    C     C_R   0.020376 0.339966 0.398592 -0.007757
C9    C     C_R   0.949527 0.494348 0.478735 0.029134
C10   C     C_R   0.049701 0.482113 0.437317 0.028071
C11   C     C_R   0.939695 0.207287 0.397491 -0.162760
C12   C     C_R   0.501788 0.799973 0.545816 0.586807
C13   C     C_R   0.059622 0.768938 0.515834 -0.164939
C14   C     C_R   0.890742 0.214700 0.421488 -0.133831
C15   C     C_R   0.108936 0.761047 0.499049 -0.130361
C16   C     C_R   0.407400 0.497842 0.502576 0.574879
C17   C     C_R   0.592657 0.500147 0.496600 0.574032
C18   C     C_R   0.042278 0.196469 0.331450 -0.143051
C19   C     C_R   0.957021 0.780136 0.583672 -0.142378
C20   C     C_2   0.490325 0.034522 0.434568 0.115588
C21   C     C_2   0.509628 0.965443 0.565480 0.116427
C22   C     C_R   0.172657 0.328209 0.403665 0.424247
C23   C     C_R   0.100374 0.475656 0.424179 -0.064336
C24   C     C_R   0.826699 0.646779 0.542745 0.455401
C25   C     C_R   0.179716 0.607181 0.444853 0.414476
C26   C     C_R   0.820751 0.367406 0.497147 0.424802
C27   C     C_R   0.276930 0.552160 0.628354 0.186813
C28   C     C_R   0.720453 0.441527 0.340372 0.164984
C29   C     C_R   0.327978 0.560698 0.649091 0.149205
C30   C     C_R   0.669619 0.442949 0.329911 0.138600
C31   C     C_R   0.329213 0.393667 0.338712 -0.115413
C32   C     C_R   0.673755 0.570660 0.659104 -0.124445
C33   C     C_R   0.279207 0.383143 0.317150 0.185456
C34   C     C_R   0.899126 0.500382 0.499663 -0.055410
C35   C     C_R   0.723927 0.575882 0.667726 0.174154
C36   C     C_R   0.252429 0.464570 0.459846 0.225500
C37   C     C_R   0.747615 0.508887 0.509507 0.249414
C38   C     C_3   0.121818 0.030817 0.044529 -0.235183
C39   C     C_3   0.881686 0.948035 0.886000 -0.242827
C40   C     C_3   0.744594 0.208297 0.120751 -0.187571
C41   C     C_3   0.217160 0.557535 0.861411 -0.240769
C42   C     C_R   0.121909 0.329427 0.381122 0.033939
C43   C     C_R   0.877598 0.646453 0.549753 0.040893
C44   C     C_R   0.092157 0.190063 0.320509 0.133202
C45   C     C_R   0.907452 0.786219 0.603775 0.132206
C46   C     C_R   0.129744 0.615672 0.455261 0.011190
Cu1   Cu    Cu3+1 0.505380 0.517380 0.684380 1.111541
Cu2   Cu    Cu3+1 0.494620 0.482620 0.315620 1.110193
H1    H     H_    0.348812 0.331560 0.225097 0.193264
H2    H     H_    0.977845 0.890394 0.631010 0.099634
H3    H     H_    0.091399 0.946457 0.250541 0.240293
H4    H     H_    0.140148 0.919965 0.993869 0.172208
H5    H     H_    0.145945 0.131457 0.031178 0.208177
H6    H     H_    0.087727 0.027922 0.956237 0.109451
H7    H     H_    0.907953 0.029780 0.670588 0.244043
H8    H     H_    0.864460 0.060302 0.940537 0.163117
H9    H     H_    0.916964 0.949431 0.966400 0.112931
H10   H     H_    0.857761 0.849314 0.905958 0.211455
H11   H     H_    0.736912 0.430972 0.070422 0.313460
H12   H     H_    0.656487 0.621391 0.784162 0.194781
H13   H     H_    0.782296 0.172040 0.108796 0.174880
H14   H     H_    0.724482 0.166356 0.982477 0.193278
H15   H     H_    0.727426 0.149617 0.220507 0.212225
H16   H     H_    0.265875 0.745855 0.850930 0.318439
H17   H     H_    0.180901 0.605535 0.853519 0.142603
H18   H     H_    0.229949 0.574895 0.010021 0.202490
H19   H     H_    0.213920 0.429226 0.795968 0.195534
H20   H     H_    0.462269 0.378722 0.948200 0.256546
H21   H     H_    0.537731 0.621278 0.051799 0.258843
H22   H     H_    0.868907 0.105239 0.398058 0.185068
H23   H     H_    0.130914 0.870319 0.524011 0.193677
H24   H     H_    0.952508 0.090119 0.363057 0.102048
H25   H     H_    0.046724 0.886107 0.546361 0.102440
H26   H     H_    0.021498 0.086571 0.279927 0.099150
N1    N     N_R   0.200576 0.465924 0.431792 -0.391946
N2    N     N_R   0.799492 0.508278 0.518956 -0.367951
N3    N     N_2   0.486510 0.456430 0.038510 -0.212925
N4    N     N_2   0.513490 0.543570 0.961490 -0.211490
N5    N     N_2   0.111457 0.044209 0.236078 -0.459839
N6    N     N_2   0.888826 0.932418 0.691174 -0.457518
N7    N     N_2   0.744956 0.378924 0.179033 -0.489287
N8    N     N_2   0.250139 0.641718 0.770080 -0.466045
O1    O     O_R   0.503500 0.286120 0.619780 -0.494417
O2    O     O_2   0.804504 0.783168 0.555279 -0.400873
O3    O     O_2   0.794057 0.235006 0.498098 -0.476828
O4    O     O_2   0.207464 0.739616 0.453349 -0.434552
O5    O     O_R   0.496500 0.713880 0.380220 -0.496802
O6    O     O_R   0.494410 0.256780 0.308360 -0.462008
O7    O     O_R   0.505590 0.743220 0.691640 -0.460366
O8    O     O_R   0.434810 0.514700 0.655690 -0.474485
O9    O     O_R   0.565190 0.485300 0.344310 -0.470652
O10   O     O_R   0.425720 0.485350 0.344280 -0.495049
O11   O     O_R   0.574280 0.514650 0.655720 -0.491954
O12   O     O_2   0.193799 0.191855 0.404878 -0.395296

loop_
_geom_bond_atom_site_label_1
_geom_bond_atom_site_label_2
_ccdc_geom_bond_type
C17   O11   A    
C16   O10   A    
Cu1   O7    S    
C19   H2    S    
H20   N3    S    
C24   O2    S    
H16   N8    S    
Cu1   Cu2   S    
Cu1   O11   S    
C20   C21   D    
C2    C14   A    
C1    C20   S    
Cu1   N4    S    
C27   C36   A    
C13   C15   A    
C27   N8    S    
C5    C8    A    
H21   N4    S    
C26   O3    S    
C38   H5    S    
C34   C43   A    
C1    O1    A    
C39   H8    S    
C11   C14   A    
C14   H22   S    
C8    C18   A    
C40   H15   S    
C44   N5    S    
C5    C9    A    
C18   H26   S    
C22   C42   A    
N3    N4    D    
C38   H4    S    
C43   C45   A    
Cu2   O9    S    
C25   C46   A    
C22   O12   S    
C42   C44   A    
Br4   C29   S    
Cu1   O8    S    
C12   O7    A    
C35   C37   A    
C7    C19   A    
C36   N1    S    
C6    C10   A    
C45   N6    S    
Cu2   N3    S    
H11   N7    S    
C33   C36   A    
C18   C44   A    
C9    C34   A    
C12   C21   S    
C23   C42   A    
C2    C26   A    
C32   H12   S    
C41   H19   S    
C32   C35   A    
C10   C23   A    
C39   H9    S    
C24   N2    A    
C19   C45   A    
C40   H14   S    
Br6   C21   S    
C3    C31   A    
C13   H25   S    
C41   H17   S    
C17   O9    A    
C24   C43   A    
C7    C9    A    
Cu1   O1    S    
C8    C10   A    
C38   N5    S    
C40   N7    S    
C12   O5    A    
C1    O6    A    
C5    C11   A    
C22   N1    A    
C16   O8    A    
C28   C37   A    
Br2   C35   S    
C4    C17   S    
C26   N2    A    
C39   H10   S    
C25   N1    A    
C4    C32   A    
C41   N8    S    
C39   N6    S    
Cu2   O5    S    
C40   H13   S    
C31   C33   A    
Br3   C30   S    
C38   H6    S    
C6    C13   A    
C11   H24   S    
C27   C29   A    
H3    N5    S    
C28   C30   A    
C28   N7    S    
C3    C16   S    
C41   H18   S    
Cu2   O6    S    
H7    N6    S    
Br1   C33   S    
Br5   C20   S    
C31   H1    S    
C6    C7    A    
C25   O4    S    
C15   H23   S    
C3    C29   A    
C37   N2    S    
Cu2   O10   S    
C4    C30   A    
C2    C34   A    
C15   C46   A    
C23   C46   A    
