data_str_m4_o17_o17_f0_acs.sym.138
_audit_creation_date              2012-12-11T14:30:03-0500
_audit_creation_method            fapswitch 2.2
_symmetry_space_group_name_H-M    P1
_symmetry_Int_Tables_number       1
_space_group_crystal_system       triclinic
_cell_length_a                    12.625174
_cell_length_b                    12.625216
_cell_length_c                    27.129136
_cell_angle_alpha                 89.999798
_cell_angle_beta                  90.000472
_cell_angle_gamma                 120.000338
_cell_volume                      3744.90930665

loop_
_atom_site_label
_atom_site_type_symbol
_atom_type_description
_atom_site_fract_x
_atom_site_fract_y
_atom_site_fract_z
_atom_type_partial_charge
C1    C     C_R   0.558156 0.456374 0.822350 0.573244
C2    C     C_R   0.898188 0.441817 0.677640 0.573183
C3    C     C_R   0.543626 0.101783 0.822351 0.573241
C4    C     C_R   0.558182 0.456371 0.677640 0.573194
C5    C     C_R   0.898224 0.441848 0.822349 0.573233
C6    C     C_R   0.543631 0.101821 0.677638 0.573196
C7    C     C_R   0.456371 0.558176 0.322358 0.573217
C8    C     C_R   0.441794 0.898164 0.177632 0.573158
C9    C     C_R   0.101810 0.543629 0.322359 0.573213
C10   C     C_R   0.456366 0.558204 0.177632 0.573173
C11   C     C_R   0.441828 0.898201 0.322356 0.573203
C12   C     C_R   0.101845 0.543633 0.177630 0.573169
C13   C     C_R   0.994199 0.499309 0.974129 -0.043469
C14   C     C_R   0.505269 0.006173 0.525808 -0.043482
C15   C     C_R   0.500716 0.494859 0.974138 -0.043468
C16   C     C_R   0.993881 0.499126 0.525819 -0.043480
C17   C     C_R   0.505138 0.005858 0.974139 -0.043468
C18   C     C_R   0.500879 0.494748 0.525816 -0.043487
C19   C     C_R   0.499183 0.993979 0.474165 -0.043477
C20   C     C_R   0.006393 0.505359 0.025772 -0.043490
C21   C     C_R   0.494778 0.500835 0.474173 -0.043481
C22   C     C_R   0.498996 0.993659 0.025781 -0.043487
C23   C     C_R   0.006078 0.505228 0.474176 -0.043478
C24   C     C_R   0.494659 0.500998 0.025780 -0.043486
C25   C     C_R   0.990813 0.690125 0.974480 -0.103584
C26   C     C_R   0.699029 0.008653 0.525546 -0.103544
C27   C     C_R   0.309871 0.300686 0.974482 -0.103591
C28   C     C_R   0.991326 0.690367 0.525546 -0.103548
C29   C     C_R   0.699321 0.009203 0.974485 -0.103572
C30   C     C_R   0.309620 0.300967 0.525547 -0.103559
C31   C     C_R   0.690308 0.991197 0.474461 -0.103557
C32   C     C_R   0.008268 0.698820 0.025565 -0.103536
C33   C     C_R   0.300885 0.309693 0.474462 -0.103569
C34   C     C_R   0.690564 0.991746 0.025570 -0.103525
C35   C     C_R   0.008783 0.699097 0.474461 -0.103551
C36   C     C_R   0.301168 0.309448 0.025566 -0.103549
C37   C     C_R   0.961576 0.578065 0.897242 0.327285
C38   C     C_R   0.616341 0.038266 0.602749 0.327407
C39   C     C_R   0.421943 0.383506 0.897245 0.327294
C40   C     C_R   0.961732 0.578083 0.602752 0.327383
C41   C     C_R   0.616492 0.038440 0.897247 0.327273
C42   C     C_R   0.421914 0.383651 0.602751 0.327429
C43   C     C_R   0.578085 0.961698 0.397245 0.327356
C44   C     C_R   0.038142 0.616234 0.102746 0.327501
C45   C     C_R   0.383608 0.421925 0.397249 0.327392
C46   C     C_R   0.578105 0.961869 0.102751 0.327478
C47   C     C_R   0.038303 0.616376 0.397248 0.327364
C48   C     C_R   0.383745 0.421903 0.102747 0.327519
C49   C     C_R   0.046537 0.522891 0.127979 0.002497
C50   C     C_R   0.476554 0.953680 0.371972 0.002636
C51   C     C_R   0.477108 0.523613 0.127985 0.002523
C52   C     C_R   0.046362 0.522882 0.371981 0.002620
C53   C     C_R   0.476377 0.953495 0.127986 0.002511
C54   C     C_R   0.477119 0.523459 0.371978 0.002625
C55   C     C_R   0.522887 0.046415 0.628007 0.002591
C56   C     C_R   0.953798 0.476668 0.871944 0.002722
C57   C     C_R   0.523497 0.477121 0.628014 0.002602
C58   C     C_R   0.522879 0.046234 0.871952 0.002720
C59   C     C_R   0.953620 0.476500 0.628015 0.002607
C60   C     C_R   0.523351 0.477121 0.871951 0.002715
C61   C     C_R   0.983725 0.590708 0.948306 0.016993
C62   C     C_R   0.606894 0.016182 0.551678 0.016962
C63   C     C_R   0.409304 0.393003 0.948311 0.016994
C64   C     C_R   0.983829 0.590722 0.551682 0.016961
C65   C     C_R   0.606998 0.016309 0.948313 0.016986
C66   C     C_R   0.409275 0.393108 0.551681 0.016969
C67   C     C_R   0.590725 0.983810 0.448313 0.016969
C68   C     C_R   0.016094 0.606819 0.051671 0.016943
C69   C     C_R   0.393077 0.409285 0.448318 0.016977
C70   C     C_R   0.590744 0.983932 0.051678 0.016939
C71   C     C_R   0.016203 0.606914 0.448318 0.016969
C72   C     C_R   0.393175 0.409260 0.051674 0.016942
C73   C     C_R   0.978799 0.394180 0.897483 0.340606
C74   C     C_R   0.415621 0.021944 0.602408 0.340425
C75   C     C_R   0.605863 0.584590 0.897496 0.340604
C76   C     C_R   0.978162 0.393747 0.602425 0.340433
C77   C     C_R   0.415410 0.021279 0.897496 0.340597
C78   C     C_R   0.606253 0.584414 0.602422 0.340445
C79   C     C_R   0.393880 0.978358 0.397547 0.340476
C80   C     C_R   0.022399 0.415766 0.102344 0.340303
C81   C     C_R   0.584461 0.606148 0.397557 0.340483
C82   C     C_R   0.393423 0.977690 0.102357 0.340304
C83   C     C_R   0.021762 0.415562 0.397565 0.340469
C84   C     C_R   0.584263 0.606554 0.102358 0.340300
C85   C     C_R   0.992106 0.401218 0.948457 0.016034
C86   C     C_R   0.409444 0.008697 0.551433 0.016008
C87   C     C_R   0.598827 0.590848 0.948470 0.016032
C88   C     C_R   0.991399 0.400803 0.551450 0.016003
C89   C     C_R   0.409148 0.007975 0.948470 0.016034
C90   C     C_R   0.599209 0.590590 0.551446 0.016009
C91   C     C_R   0.400926 0.991609 0.448522 0.016013
C92   C     C_R   0.009199 0.409649 0.051368 0.015990
C93   C     C_R   0.590661 0.599104 0.448533 0.016021
C94   C     C_R   0.400495 0.990878 0.051381 0.015980
C95   C     C_R   0.008497 0.409361 0.448539 0.016019
C96   C     C_R   0.590385 0.599488 0.051382 0.015988
C97   C     C_R   0.003885 0.311126 0.025404 -0.103639
C98   C     C_R   0.307912 0.997379 0.474442 -0.103587
C99   C     C_R   0.688929 0.692683 0.025422 -0.103635
C100  C     C_R   0.002770 0.310603 0.474465 -0.103588
C101  C     C_R   0.307299 0.996224 0.025419 -0.103641
C102  C     C_R   0.689429 0.692130 0.474457 -0.103589
C103  C     C_R   0.310751 0.003085 0.525496 -0.103599
C104  C     C_R   0.998175 0.308335 0.974351 -0.103558
C105  C     C_R   0.692284 0.689294 0.525512 -0.103601
C106  C     C_R   0.310213 0.001935 0.974366 -0.103553
C107  C     C_R   0.997058 0.307742 0.525518 -0.103605
C108  C     C_R   0.691724 0.689775 0.974368 -0.103558
Cr1   Cr    Cr6+3 0.487630 0.241180 0.750000 1.229680
Cr2   Cr    Cr6+3 0.753550 0.512370 0.750000 1.229668
Cr3   Cr    Cr6+3 0.758820 0.246450 0.750000 1.229673
Cr4   Cr    Cr6+3 0.241180 0.487630 0.250000 1.229671
Cr5   Cr    Cr6+3 0.512370 0.753550 0.250000 1.229653
Cr6   Cr    Cr6+3 0.246450 0.758820 0.250000 1.229658
H1    H     H_    0.015092 0.777465 0.044555 0.186096
H2    H     H_    0.761959 0.984003 0.455505 0.185994
H3    H     H_    0.222511 0.237641 0.044554 0.186091
H4    H     H_    0.015949 0.777926 0.455501 0.186002
H5    H     H_    0.762380 0.984909 0.044558 0.186103
H6    H     H_    0.222045 0.238036 0.455505 0.185984
H7    H     H_    0.777808 0.015728 0.544513 0.186030
H8    H     H_    0.983371 0.761660 0.955546 0.185925
H9    H     H_    0.237918 0.222178 0.544512 0.186013
H10   H     H_    0.778291 0.016633 0.955550 0.185934
H11   H     H_    0.984225 0.762061 0.544509 0.186019
H12   H     H_    0.238328 0.221718 0.955546 0.185919
O1    O     O_R   0.460870 0.120930 0.805240 -0.409091
O2    O     O_R   0.660060 0.539130 0.694760 -0.409171
O3    O     O_R   0.879070 0.339940 0.805240 -0.409086
O4    O     O_R   0.460870 0.120930 0.694760 -0.409163
O5    O     O_R   0.660060 0.539130 0.805240 -0.409078
O6    O     O_R   0.879070 0.339940 0.694760 -0.409173
O7    O     O_R   0.120930 0.460870 0.305240 -0.409160
O8    O     O_R   0.539130 0.660060 0.194760 -0.409247
O9    O     O_R   0.339940 0.879070 0.305240 -0.409174
O10   O     O_R   0.120930 0.460870 0.194760 -0.409238
O11   O     O_R   0.539130 0.660060 0.305240 -0.409160
O12   O     O_R   0.339940 0.879070 0.194760 -0.409256
O13   O     O_R   0.498910 0.350470 0.801870 -0.448360
O14   O     O_R   0.851560 0.501090 0.698130 -0.448344
O15   O     O_R   0.649530 0.148440 0.801870 -0.448362
O16   O     O_R   0.498910 0.350470 0.698130 -0.448324
O17   O     O_R   0.851560 0.501090 0.801870 -0.448360
O18   O     O_R   0.649530 0.148440 0.698130 -0.448339
O19   O     O_R   0.350470 0.498910 0.301870 -0.448303
O20   O     O_R   0.501090 0.851560 0.198130 -0.448296
O21   O     O_R   0.148440 0.649530 0.301870 -0.448316
O22   O     O_R   0.350470 0.498910 0.198130 -0.448273
O23   O     O_R   0.501090 0.851560 0.301870 -0.448316
O24   O     O_R   0.148440 0.649530 0.198130 -0.448286
O25   O     O_3   0.666667 0.333333 0.750000 -0.368600
O26   O     O_3   0.333333 0.666667 0.250000 -0.368638
F1    F     F_    0.056343 0.717961 0.127218 -0.552067
F2    F     F_    0.661359 0.943014 0.372825 -0.552304
F3    F     F_    0.281990 0.338419 0.127213 -0.552028
F4    F     F_    0.056933 0.718308 0.372822 -0.552311
F5    F     F_    0.661618 0.943640 0.127220 -0.552094
F6    F     F_    0.281655 0.338647 0.372827 -0.552241
F7    F     F_    0.718219 0.056779 0.627188 -0.552231
F8    F     F_    0.942579 0.661174 0.872855 -0.552443
F9    F     F_    0.338576 0.281754 0.627185 -0.552178
F10   F     F_    0.718578 0.057395 0.872856 -0.552465
F11   F     F_    0.943169 0.661421 0.627185 -0.552254
F12   F     F_    0.338813 0.281417 0.872854 -0.552424
F13   F     F_    0.019839 0.319734 0.126261 -0.545185
F14   F     F_    0.300725 0.981392 0.373566 -0.545330
F15   F     F_    0.680327 0.699964 0.126287 -0.545223
F16   F     F_    0.018822 0.319407 0.373596 -0.545292
F17   F     F_    0.299999 0.980322 0.126282 -0.545232
F18   F     F_    0.680644 0.699319 0.373580 -0.545298
F19   F     F_    0.319501 0.019113 0.626361 -0.545259
F20   F     F_    0.982080 0.301194 0.873468 -0.545375
F21   F     F_    0.699483 0.680572 0.626388 -0.545262
F22   F     F_    0.319154 0.018032 0.873486 -0.545370
F23   F     F_    0.981075 0.300512 0.626390 -0.545288
F24   F     F_    0.698871 0.680852 0.873486 -0.545351
H13   H     H_    0.006905 0.237136 0.044344 0.189547
H14   H     H_    0.231094 0.994687 0.455470 0.189642
H15   H     H_    0.762930 0.769676 0.044365 0.189558
H16   H     H_    0.005494 0.236489 0.455497 0.189625
H17   H     H_    0.230301 0.993222 0.044361 0.189554
H18   H     H_    0.763554 0.768958 0.455487 0.189621
H19   H     H_    0.236670 0.005888 0.544455 0.189604
H20   H     H_    0.995697 0.231642 0.955358 0.189698
H21   H     H_    0.769158 0.763386 0.544475 0.189601
H22   H     H_    0.236004 0.004431 0.955375 0.189689
H23   H     H_    0.994284 0.230876 0.544482 0.189616
H24   H     H_    0.768432 0.763981 0.955378 0.189689

loop_
_geom_bond_atom_site_label_1
_geom_bond_atom_site_label_2
_ccdc_geom_bond_type
C44   C49   A    
C29   H10   S    
C77   F22   S    
C82   C94   A    
C18   C21   A    
C31   H2    S    
C5    C56   S    
C3    O15   A    
Cr6   O26   S    
Cr4   O7    S    
C6    O4    A    
C50   C79   A    
C12   C49   S    
C42   F9    S    
C78   C90   A    
C31   C67   A    
C99   C108  A    
C20   C92   A    
C77   C89   A    
C103  H19   S    
C44   F1    S    
C37   F8    S    
Cr1   O25   S    
C48   C72   A    
C41   C58   A    
C11   O9    A    
C24   C96   A    
C4    O16   A    
C27   H12   S    
C3    O1    A    
C5    O17   A    
C47   F4    S    
C86   C103  A    
C98   C103  A    
C14   C62   A    
C96   C99   A    
C107  H23   S    
C101  C106  A    
Cr4   O19   S    
C102  C105  A    
C8    O12   A    
C84   C96   A    
C105  H21   S    
C84   F15   S    
C58   C77   A    
C55   C74   A    
Cr1   O1    S    
C48   C51   A    
C38   C55   A    
C28   C35   A    
C89   C106  A    
C78   F21   S    
C2    O6    A    
Cr6   O9    S    
Cr4   O26   S    
C19   C67   A    
Cr1   O16   S    
C26   H7    S    
C98   H14   S    
C43   F2    S    
C25   H8    S    
C76   C88   A    
C79   C91   A    
C1    O13   A    
C33   C69   A    
C32   C68   A    
C25   C32   A    
C5    O3    A    
C82   F17   S    
C35   C71   A    
C26   C31   A    
C91   C98   A    
C40   C59   A    
C41   F10   S    
C22   C94   A    
Cr5   O26   S    
C9    C52   S    
Cr4   O10   S    
C6    C55   S    
C10   C51   S    
C14   C19   A    
C42   C57   A    
C13   C20   A    
C11   O23   A    
C92   C97   A    
C16   C88   A    
C87   C108  A    
C45   C69   A    
C18   C90   A    
C12   O24   A    
C17   C89   A    
C14   C86   A    
C40   F11   S    
Cr2   O25   S    
C1    C60   S    
C7    O11   A    
C88   C107  A    
C4    O2    A    
C2    C59   S    
C41   C65   A    
C46   F5    S    
C29   C34   A    
C9    O21   A    
C79   F14   S    
Cr4   O22   S    
C21   C69   A    
C53   C82   A    
C102  H18   S    
Cr5   O20   S    
C80   C92   A    
C52   C83   A    
C99   H15   S    
C20   C68   A    
Cr5   O23   S    
C81   C93   A    
C97   H13   S    
C38   F7    S    
C83   C95   A    
Cr2   O5    S    
C25   C61   A    
C81   F18   S    
C74   C86   A    
C73   F20   S    
C36   H3    S    
C106  H22   S    
C74   F19   S    
C30   C66   A    
C85   C104  A    
C27   C63   A    
C37   C56   A    
C33   H6    S    
C29   C65   A    
Cr3   O18   S    
C75   C87   A    
C15   C24   A    
C104  H20   S    
C48   F3    S    
C45   C54   A    
Cr3   O3    S    
Cr5   O8    S    
Cr2   O2    S    
Cr5   O11   S    
C44   C68   A    
C18   C66   A    
C47   C71   A    
C6    O18   A    
C100  H16   S    
C28   C64   A    
C80   F13   S    
C101  H17   S    
C28   H11   S    
C24   C72   A    
C15   C87   A    
C73   C85   A    
C34   H5    S    
C34   C70   A    
C100  C107  A    
C15   C63   A    
C56   C73   A    
C94   C101  A    
C30   C33   A    
C75   F24   S    
C95   C100  A    
C93   C102  A    
C57   C78   A    
C108  H24   S    
C76   F23   S    
C8    O20   A    
C45   F6    S    
C10   O8    A    
C90   C105  A    
C1    O5    A    
Cr3   O25   S    
C8    C53   S    
Cr6   O21   S    
C37   C61   A    
C43   C50   A    
C47   C52   A    
C27   C36   A    
C16   C23   A    
C39   C63   A    
C83   F16   S    
C60   C75   A    
C17   C65   A    
C17   C22   A    
C40   C64   A    
C49   C80   A    
Cr1   O13   S    
C2    O14   A    
Cr2   O14   S    
C26   C62   A    
C11   C50   S    
C21   C93   A    
C39   C60   A    
C59   C76   A    
C46   C53   A    
C23   C95   A    
Cr6   O12   S    
C32   H1    S    
Cr2   O17   S    
C46   C70   A    
C97   C104  A    
C19   C91   A    
Cr3   O15   S    
C3    C58   S    
Cr3   O6    S    
C13   C61   A    
C30   H9    S    
C23   C71   A    
C43   C67   A    
C12   O10   A    
C13   C85   A    
Cr1   O4    S    
C42   C66   A    
Cr6   O24   S    
C35   H4    S    
C16   C64   A    
C7    C54   S    
C38   C62   A    
C39   F12   S    
C51   C84   A    
C22   C70   A    
C54   C81   A    
C36   C72   A    
C4    C57   S    
C10   O22   A    
C7    O19   A    
C9    O7    A    
