data_str_m9_o10_o29_f0_sra.sym.38
_audit_creation_date              2013-03-05T15:41:01-0500
_audit_creation_method            fapswitch 2.2
_symmetry_space_group_name_H-M    P1
_symmetry_Int_Tables_number       1
_space_group_crystal_system       triclinic
_cell_length_a                    28.210246
_cell_length_b                    7.190761
_cell_length_c                    17.205671
_cell_angle_alpha                 90.04981
_cell_angle_beta                  101.868739
_cell_angle_gamma                 90.321931
_cell_volume                      3415.54680545

loop_
_atom_site_label
_atom_site_type_symbol
_atom_site_description
_atom_site_fract_x
_atom_site_fract_y
_atom_site_fract_z
_atom_type_partial_charge
O1    O     O_R   0.000700 0.436510 0.857920 -0.555544
O2    O     O_R   0.999300 0.563490 0.142080 -0.554607
O3    O     O_R   0.999300 0.936510 0.642080 -0.557858
O4    O     O_R   0.000700 0.063490 0.357920 -0.557955
O5    O     O_R   0.930080 0.766380 0.721890 -0.564932
O6    O     O_R   0.069920 0.233620 0.278110 -0.564768
O7    O     O_R   0.069920 0.266380 0.778110 -0.505387
O8    O     O_R   0.930080 0.733620 0.221890 -0.504476
C1    C     C_R   0.910494 0.596799 0.710222 0.843534
C2    C     C_R   0.089484 0.403363 0.289681 0.844170
C3    C     C_R   0.089545 0.098122 0.790842 0.840892
C4    C     C_R   0.910447 0.901722 0.208951 0.840061
O9    O     O_R   0.996180 0.766230 0.862310 -0.562415
O10   O     O_R   0.003820 0.233770 0.137690 -0.562415
O11   O     O_R   0.003820 0.266230 0.637690 -0.559096
O12   O     O_R   0.996180 0.733770 0.362310 -0.559772
O13   O     O_R   0.065870 0.936460 0.783500 -0.567569
O14   O     O_R   0.934130 0.063540 0.216500 -0.567131
O15   O     O_R   0.934130 0.436460 0.716500 -0.505225
O16   O     O_R   0.065870 0.563540 0.283500 -0.506362
C5    C     C_R   0.998491 0.596477 0.894501 0.843377
C6    C     C_R   0.001510 0.403523 0.105500 0.844963
C7    C     C_R   0.001520 0.096408 0.605512 0.847850
C8    C     C_R   0.998480 0.903591 0.394488 0.846685
O17   O     O_3   0.022790 0.603020 0.723980 -0.275334
O18   O     O_3   0.977210 0.396980 0.276020 -0.275159
O19   O     O_3   0.977210 0.103020 0.776020 -0.266253
O20   O     O_3   0.022790 0.896980 0.223980 -0.265885
V1    V     V_3+5 0.995770 0.877900 0.754830 1.163943
V2    V     V_3+5 0.004230 0.122100 0.245170 1.164174
V3    V     V_3+5 0.004230 0.377900 0.745170 1.202853
V4    V     V_3+5 0.995770 0.622100 0.254830 1.203095
C9    C     C_2   0.001715 0.082672 0.519605 -0.237045
C10   C     C_2   0.998287 0.917328 0.480396 -0.237079
C11   C     C_2   0.998308 0.582656 0.980447 -0.233447
C12   C     C_2   0.001693 0.417346 0.019554 -0.233756
H1    H     H_    0.004523 0.211652 0.488002 0.107396
H2    H     H_    0.995479 0.788348 0.511999 0.107484
H3    H     H_    0.995543 0.711517 0.012159 0.106777
H4    H     H_    0.004458 0.288485 0.987842 0.106546
C13   C     C_R   0.682281 0.909351 0.026123 0.585036
C14   C     C_R   0.317178 0.062095 0.972841 0.584982
C15   C     C_R   0.316366 0.453680 0.468868 0.582353
C16   C     C_R   0.683072 0.581065 0.532339 0.581599
O21   O     O_2   0.710480 0.856539 0.975554 -0.515408
O22   O     O_2   0.288431 0.093282 0.025200 -0.514150
O23   O     O_2   0.286692 0.439653 0.520960 -0.516892
O24   O     O_2   0.712633 0.611268 0.481050 -0.518327
N1    N     N_R   0.703042 0.952180 0.102982 -0.452009
N2    N     N_R   0.297019 0.042536 0.893983 -0.452787
N3    N     N_R   0.297299 0.451862 0.389136 -0.451605
N4    N     N_R   0.702315 0.560809 0.611534 -0.450497
C17   C     C_R   0.675534 0.006764 0.155726 0.596527
C18   C     C_R   0.325134 0.009662 0.839449 0.597818
C19   C     C_R   0.326478 0.469652 0.334973 0.597197
C20   C     C_R   0.673128 0.526536 0.664579 0.599434
C21   C     C_R   0.775537 0.770077 0.159717 -0.065020
C22   C     C_R   0.224779 0.224372 0.835158 -0.064632
C23   C     C_R   0.219381 0.590111 0.325374 -0.067674
C24   C     C_R   0.779982 0.414248 0.671916 -0.066200
C25   C     C_R   0.826142 0.754168 0.186716 0.365977
C26   C     C_R   0.174107 0.241908 0.809399 0.363849
C27   C     C_R   0.168575 0.581539 0.300329 0.360392
C28   C     C_R   0.830881 0.419437 0.696517 0.359772
C29   C     C_R   0.834821 0.078817 0.151859 -0.190335
C30   C     C_R   0.164892 0.921156 0.849181 -0.187614
C31   C     C_R   0.170222 0.262471 0.347955 -0.197515
C32   C     C_R   0.830057 0.743224 0.655238 -0.198006
C33   C     C_R   0.784662 0.092240 0.125651 -0.021014
C34   C     C_R   0.215064 0.906366 0.874560 -0.021376
C35   C     C_R   0.220635 0.273345 0.372535 -0.011701
C36   C     C_R   0.779605 0.736046 0.631490 -0.011376
C37   C     C_R   0.754828 0.938037 0.129251 0.246870
C38   C     C_R   0.245234 0.057670 0.867755 0.243734
C39   C     C_R   0.245457 0.437547 0.361807 0.236947
C40   C     C_R   0.754250 0.571222 0.639093 0.236235
C41   C     C_R   0.602293 0.972330 0.052768 -0.112489
C42   C     C_R   0.397728 0.021423 0.944726 -0.115858
C43   C     C_R   0.397604 0.489814 0.442694 -0.115986
C44   C     C_R   0.601862 0.531944 0.556753 -0.114193
C45   C     C_R   0.631804 0.920925 0.999363 -0.035546
C46   C     C_R   0.367620 0.049790 0.999720 -0.038481
C47   C     C_R   0.366644 0.470352 0.496975 -0.041682
C48   C     C_R   0.632744 0.569735 0.503831 -0.042257
C49   C     C_R   0.610426 0.880271 0.920465 0.049736
C50   C     C_R   0.388309 0.064725 0.080534 0.063599
C51   C     C_R   0.386281 0.471210 0.578381 0.067307
C52   C     C_R   0.612964 0.594733 0.423288 0.058958
C53   C     C_R   0.624204 0.012264 0.132779 -0.121334
C54   C     C_R   0.376457 0.005559 0.862910 -0.120249
C55   C     C_R   0.377215 0.497267 0.360415 -0.119471
C56   C     C_R   0.622324 0.503143 0.638103 -0.118361
C57   C     C_R   0.856498 0.910583 0.182560 -0.103429
C58   C     C_R   0.143489 0.088230 0.816539 -0.103361
C59   C     C_R   0.143403 0.416133 0.312534 -0.100685
C60   C     C_R   0.856519 0.585630 0.687250 -0.100606
H5    H     H_    0.856702 0.201011 0.147394 0.141406
H6    H     H_    0.142779 0.801007 0.855890 0.139147
H7    H     H_    0.152108 0.134231 0.358031 0.127653
H8    H     H_    0.848457 0.872229 0.647306 0.131127
H9    H     H_    0.768941 0.222997 0.102406 0.094451
H10   H     H_    0.230543 0.776706 0.899551 0.096028
H11   H     H_    0.240426 0.154096 0.400389 0.103767
H12   H     H_    0.760187 0.858763 0.606495 0.104038
H13   H     H_    0.632200 0.837112 0.878660 0.166432
H14   H     H_    0.365910 0.083640 0.124070 0.166132
H15   H     H_    0.363099 0.465500 0.621285 0.173412
H16   H     H_    0.635998 0.622439 0.381402 0.177639
C61   C     C_R   0.478978 0.973141 0.916853 -0.019992
C62   C     C_R   0.521233 0.029197 0.080162 -0.021083
C63   C     C_R   0.519722 0.489494 0.581816 -0.021242
C64   C     C_R   0.479777 0.528617 0.416640 -0.020768
C65   C     C_R   0.469809 0.031792 0.053957 0.037927
C66   C     C_R   0.529895 0.950706 0.944501 0.041970
C67   C     C_R   0.530888 0.545345 0.445492 0.033717
C68   C     C_R   0.468514 0.489605 0.553897 0.034006
C69   C     C_R   0.449002 0.008784 0.971877 0.057231
C70   C     C_R   0.550977 0.984024 0.025797 0.059220
C71   C     C_R   0.550653 0.522212 0.527959 0.056826
C72   C     C_R   0.448806 0.502744 0.471081 0.057072
C73   C     C_R   0.457125 0.965922 0.835322 -0.138197
C74   C     C_R   0.544028 0.070922 0.159304 -0.137542
C75   C     C_R   0.541129 0.450932 0.661802 -0.140166
C76   C     C_R   0.458373 0.539511 0.334909 -0.141414
C77   C     C_R   0.407158 0.984070 0.807993 0.366477
C78   C     C_R   0.594160 0.060493 0.186091 0.368279
C79   C     C_R   0.591283 0.454035 0.689893 0.363613
C80   C     C_R   0.408295 0.528302 0.306755 0.363923
O25   O     O_2   0.303178 0.976486 0.763408 -0.470963
O26   O     O_2   0.698109 0.057836 0.229525 -0.470955
O27   O     O_2   0.693214 0.520899 0.742723 -0.472242
O28   O     O_2   0.306403 0.455382 0.257009 -0.470746
C81   C     C_R   0.560651 0.894150 0.893562 -0.039723
C82   C     C_R   0.438167 0.055325 0.107230 -0.030083
C83   C     C_R   0.436042 0.480151 0.606397 -0.029688
C84   C     C_R   0.563288 0.583887 0.394662 -0.033437
H17   H     H_    0.248531 0.340586 0.829972 0.076106
H18   H     H_    0.752001 0.651852 0.162686 0.075537
H19   H     H_    0.760184 0.287169 0.677665 0.083231
H20   H     H_    0.238861 0.716402 0.317085 0.080600
H21   H     H_    0.478386 0.956190 0.790172 0.109613
H22   H     H_    0.523813 0.113371 0.202898 0.109127
H23   H     H_    0.519755 0.406556 0.703659 0.109613
H24   H     H_    0.479517 0.560066 0.290253 0.111276
H25   H     H_    0.547310 0.854776 0.832526 0.088824
H26   H     H_    0.450529 0.063334 0.170647 0.084335
H27   H     H_    0.447846 0.484671 0.670046 0.092844
H28   H     H_    0.551758 0.608169 0.331968 0.092350
O29   O     O_3   0.154280 0.406218 0.776418 -0.701278
H29   H     H_    0.180576 0.498259 0.776243 0.305741
O30   O     O_3   0.846129 0.588618 0.218036 -0.701249
H30   H     H_    0.819968 0.495227 0.216738 0.304988
O31   O     O_3   0.855786 0.264946 0.730442 -0.698379
H31   H     H_    0.832462 0.162548 0.733009 0.302351
O32   O     O_3   0.143284 0.731854 0.263054 -0.697754
H32   H     H_    0.166242 0.834992 0.259559 0.304329
N5    N     N_R   0.389097 0.990806 0.723747 0.119756
O33   O     O_R   0.403985 0.870220 0.677811 -0.383590
O34   O     O_R   0.366900 0.138978 0.692142 -0.335369
N6    N     N_R   0.613227 0.093937 0.268794 0.122471
O35   O     O_R   0.601592 0.245109 0.301799 -0.378999
O36   O     O_R   0.632489 0.957626 0.313885 -0.332933
N7    N     N_R   0.609655 0.394001 0.769948 0.117276
O37   O     O_R   0.590327 0.456338 0.827250 -0.384058
O38   O     O_R   0.637413 0.248565 0.782689 -0.321566
N8    N     N_R   0.389971 0.561045 0.223733 0.117690
O39   O     O_R   0.409354 0.476543 0.171152 -0.383756
O40   O     O_R   0.362361 0.703985 0.201876 -0.326906

loop_
_geom_bond_atom_site_label_1
_geom_bond_atom_site_label_2
_geom_bond_distance
_ccdc_geom_bond_type
O17   V3    1.759985 S    
C80   N8    1.435731 S    
C22   C26   1.413239 A    
N5    O33   1.300917 A    
C26   O29   1.381620 S    
O19   V1    1.764807 S    
O13   V1    1.979985 S    
O3    C7    1.318506 A    
C11   C12   1.360561 D    
C14   C46   1.406183 A    
C44   C48   1.409239 A    
O4    V2    2.007814 S    
O15   V3    1.984887 S    
C62   C70   1.417712 A    
C61   C69   1.417187 A    
C68   C83   1.414040 A    
C42   C54   1.416405 A    
O1    C5    1.318657 A    
C17   O26   1.347832 S    
C41   C53   1.416671 A    
C32   C60   1.409352 A    
C23   H20   1.083471 S    
C63   C71   1.416345 A    
N7    O38   1.301513 A    
N3    C39   1.444257 S    
C18   C54   1.421318 A    
N2    C38   1.442344 S    
C11   H3    1.086202 S    
C52   H16   1.082921 S    
C25   C57   1.420567 A    
C31   C35   1.399561 A    
C67   C84   1.415447 A    
C27   C59   1.419606 A    
O1    V3    2.007341 S    
C15   C47   1.405652 A    
O11   V3    2.013262 S    
O2    V4    2.007341 S    
C14   O22   1.349728 S    
C21   C37   1.399216 A    
O3    V1    2.007814 S    
C34   C38   1.397350 A    
C19   C55   1.420788 A    
C73   C77   1.398059 A    
C50   C82   1.388950 A    
N7    O37   1.301294 A    
C2    O16   1.327185 A    
C7    C9    1.482445 S    
O2    C6    1.318653 A    
O30   H30   0.991838 S    
C33   C37   1.397412 A    
C63   C68   1.425549 A    
O14   V2    1.979985 S    
C43   C55   1.415404 A    
C31   H7    1.083030 S    
C76   C80   1.397882 A    
C16   N4    1.367319 A    
O11   C7    1.336069 A    
C44   C71   1.428875 A    
O12   C8    1.336069 A    
N8    O40   1.301432 A    
C50   H14   1.083665 S    
O10   V2    2.014597 S    
C49   H13   1.083709 S    
C13   N1    1.365772 A    
C1    O15   1.328454 A    
O5    V1    1.987172 S    
C53   C78   1.415126 A    
C82   H26   1.076404 S    
O7    V3    1.995957 S    
C55   C80   1.414927 A    
C63   C75   1.412880 A    
O8    V4    1.995954 S    
C73   H21   1.077097 S    
C12   H4    1.086201 S    
C42   C69   1.429082 A    
C52   C84   1.388260 A    
C41   C70   1.429391 A    
C64   C72   1.417915 A    
O18   V4    1.759986 S    
C36   H12   1.082998 S    
N4    C40   1.445673 S    
C46   C50   1.396701 A    
C28   O31   1.381897 S    
C24   C40   1.400588 A    
C8    C10   1.482446 S    
C68   C72   1.422444 A    
C32   C36   1.398306 A    
N6    O36   1.300699 A    
C74   C78   1.396853 A    
O7    C3    1.332842 A    
C32   H8    1.082836 S    
O5    C1    1.333768 A    
C51   C83   1.388397 A    
C54   C77   1.415853 A    
C42   C46   1.410865 A    
C75   C79   1.397956 A    
C1    C60   1.494031 S    
C41   C45   1.411238 A    
O8    C4    1.332199 A    
C13   C45   1.406521 A    
C43   C72   1.428920 A    
C9    C10   1.359608 D    
O9    C5    1.337243 A    
C36   C40   1.400950 A    
C66   C70   1.422414 A    
C21   C25   1.412806 A    
C44   C56   1.415872 A    
C25   O30   1.381696 S    
C62   C65   1.428065 A    
C28   C60   1.419418 A    
C84   H28   1.075418 S    
C61   C66   1.427290 A    
C14   N2    1.365834 A    
C65   C69   1.422619 A    
C22   H17   1.083364 S    
O6    V2    1.987172 S    
C31   C59   1.409126 A    
C67   C71   1.424033 A    
C65   C82   1.415482 A    
C26   C58   1.419669 A    
C17   C53   1.421169 A    
N8    O39   1.301147 A    
N1    C37   1.441865 S    
C4    C57   1.497767 S    
C81   H25   1.077203 S    
C74   H22   1.076345 S    
O10   C6    1.337245 A    
C4    O14   1.331351 A    
C56   C79   1.415476 A    
C23   C39   1.399355 A    
C22   C38   1.400093 A    
O16   V4    1.984887 S    
O9    V1    2.014597 S    
C29   C33   1.397859 A    
C18   O25   1.347858 S    
C35   H11   1.082920 S    
C3    O13   1.330294 A    
C79   N7    1.435999 S    
C10   H2    1.086233 S    
C77   N5    1.435149 S    
C48   C52   1.395556 A    
C3    C58   1.496948 S    
C16   C48   1.405389 A    
C47   C51   1.396246 A    
O6    C2    1.334493 A    
C34   H10   1.083011 S    
C64   C76   1.414095 A    
C5    C11   1.483246 S    
C33   H9    1.083090 S    
O12   V4    2.013263 S    
C6    C12   1.483242 S    
C23   C27   1.410174 A    
C30   C58   1.411782 A    
C24   C28   1.411266 A    
N6    O35   1.300569 A    
C30   H6    1.082872 S    
O20   V2    1.764808 S    
C27   O32   1.382133 S    
N2    C18   1.368616 A    
O29   H29   0.991845 S    
C62   C74   1.412332 A    
C35   C39   1.401003 A    
C15   N3    1.366672 A    
C30   C34   1.397433 A    
C2    C59   1.492995 S    
O4    C8    1.318505 A    
N1    C17   1.368308 A    
C29   C57   1.411726 A    
C66   C81   1.415104 A    
C21   H18   1.083444 S    
N3    C19   1.370005 A    
C83   H27   1.077522 S    
C9    H1    1.086232 S    
C20   O27   1.348113 S    
C24   H19   1.083460 S    
C29   H5    1.082820 S    
C43   C47   1.410323 A    
N4    C20   1.370711 A    
C20   C56   1.420733 A    
C51   H15   1.082858 S    
N5    O34   1.300568 A    
C19   O28   1.348070 S    
C75   H23   1.077464 S    
O32   H32   0.991860 S    
C13   O21   1.349688 S    
C76   H24   1.075044 S    
C61   C73   1.412228 A    
O31   H31   0.991776 S    
C15   O23   1.349839 S    
C64   C67   1.429461 A    
C45   C49   1.397319 A    
C16   O24   1.349936 S    
C49   C81   1.389316 A    
C78   N6    1.433554 S    
