data_str_m12_o9_o22_f0_bcu.sym.51
_audit_creation_date              2012-12-11T17:45:29-0500
_audit_creation_method            fapswitch 2.2
_symmetry_space_group_name_H-M    P1
_symmetry_Int_Tables_number       1
_space_group_crystal_system       triclinic
_cell_length_a                    14.989644
_cell_length_b                    14.922104
_cell_length_c                    15.090585
_cell_angle_alpha                 110.257585
_cell_angle_beta                  109.175998
_cell_angle_gamma                 109.154631
_cell_volume                      2592.54859475

loop_
_atom_site_label
_atom_site_type_symbol
_atom_type_description
_atom_site_fract_x
_atom_site_fract_y
_atom_site_fract_z
_atom_type_partial_charge
C1    C     C_R   0.973452 0.248680 0.062176 -0.120278
C2    C     C_R   0.705671 0.193340 0.794562 -0.139648
C3    C     C_R   0.776814 0.591778 0.024905 -0.148500
C4    C     C_R   0.315202 0.759590 0.225014 -0.128325
C5    C     C_R   0.940487 0.409190 0.685361 -0.112707
C6    C     C_R   0.674550 0.499086 0.948856 0.038872
C7    C     C_R   0.956892 0.503594 0.678729 0.040101
C8    C     C_R   0.705206 0.127638 0.702727 0.073796
C9    C     C_R   0.064535 0.870561 0.074717 0.070750
C10   C     C_R   0.612283 0.261699 0.092159 -0.118126
C11   C     C_R   0.690403 0.350501 0.197289 -0.148378
C12   C     C_R   0.324851 0.789408 0.327814 0.063956
C13   C     C_R   0.741302 0.332055 0.280487 0.113481
C14   C     C_R   0.705412 0.222897 0.258324 -0.158124
C15   C     C_R   0.623304 0.134391 0.154079 -0.118980
C16   C     C_R   0.208881 0.408460 0.903776 -0.170836
C17   C     C_R   0.577901 0.153869 0.070694 -0.094034
C18   C     C_R   0.846977 0.429447 0.483287 -0.236636
C19   C     C_R   0.940516 0.513093 0.583418 0.073972
C20   C     C_R   0.023202 0.599889 0.589667 -0.005800
C21   C     C_R   0.011938 0.597836 0.495375 -0.219604
C22   C     C_R   0.924932 0.509027 0.394495 0.048563
C23   C     C_R   0.300794 0.499960 0.933023 0.003360
C24   C     C_R   0.837894 0.425530 0.386786 0.032654
C25   C     C_R   0.151683 0.791949 0.750074 -0.179103
C26   C     C_R   0.252286 0.870522 0.844891 -0.104752
C27   C     C_R   0.333411 0.843485 0.876946 -0.091753
C28   C     C_R   0.996381 0.592395 0.298815 -0.139539
C29   C     C_R   0.314550 0.738294 0.814120 -0.076915
C30   C     C_R   0.213442 0.658516 0.720543 -0.039970
C31   C     C_R   0.130885 0.684633 0.688571 0.139959
C32   C     C_R   0.253827 0.039722 0.531498 -0.082050
C33   C     C_R   0.330833 0.011848 0.518979 -0.245406
C34   C     C_R   0.940775 0.501983 0.303441 0.061697
C35   C     C_R   0.342288 0.930413 0.539872 -0.107186
C36   C     C_R   0.277599 0.878996 0.575880 0.756328
C37   C     C_R   0.196524 0.902991 0.582215 -0.333082
C38   C     C_R   0.185103 0.983639 0.560736 -0.201867
C39   C     C_R   0.527570 0.971991 0.627915 -0.181209
C40   C     C_R   0.299689 0.591466 0.995779 -0.003966
C41   C     C_R   0.623311 0.010055 0.623234 0.012142
C42   C     C_R   0.623486 0.947117 0.528244 0.045205
C43   C     C_R   0.523585 0.865093 0.434396 -0.242408
C44   C     C_R   0.425946 0.852452 0.432943 0.047856
C45   C     C_R   0.686126 0.407184 0.932866 -0.139262
C46   C     C_R   0.428928 0.907483 0.532394 0.135049
C47   C     C_R   0.737426 0.008965 0.449917 -0.277779
C48   C     C_R   0.840996 0.061231 0.463039 -0.289724
C49   C     C_R   0.930961 0.074044 0.544936 0.792055
C50   C     C_R   0.916885 0.031712 0.611708 -0.324807
C51   C     C_R   0.813958 0.981024 0.600300 -0.226795
C52   C     C_R   0.911385 0.409237 0.211550 -0.128171
C53   C     C_R   0.724264 0.973006 0.521850 0.158121
C54   C     C_3   0.470396 0.388643 0.839218 -0.421704
C55   C     C_3   0.367219 0.390470 0.834144 -0.492342
C56   C     C_R   0.021163 0.592757 0.782376 -0.132095
C57   C     C_3   0.574023 0.515476 0.044052 -0.518658
C58   C     C_3   0.565991 0.593702 0.919094 -0.386402
C59   C     C_3   0.573016 0.499044 0.936444 0.314800
C60   C     C_3   0.397941 0.500455 0.929725 0.202914
C61   C     C_3   0.471740 0.516375 0.040379 0.664162
C62   C     C_3   0.461808 0.594301 0.914720 -0.383460
C63   C     C_R   0.173881 0.058032 0.808332 -0.111672
C64   C     C_R   0.220679 0.751772 0.313416 -0.095605
C65   C     C_R   0.133132 0.057315 0.878915 -0.205560
C66   C     C_R   0.198605 0.137276 0.990260 0.106671
C67   C     C_R   0.793235 0.195505 0.701280 -0.136481
C68   C     C_R   0.304794 0.218063 0.030162 -0.137635
C69   C     C_R   0.344918 0.218022 0.958771 -0.161719
C70   C     C_R   0.280276 0.137378 0.848299 -0.091910
C71   C     C_R   0.170477 0.043149 0.087209 -0.227985
C72   C     C_R   0.100385 0.988885 0.116327 0.052450
C73   C     C_R   0.052259 0.043473 0.164013 0.025056
C74   C     C_R   0.061298 0.138244 0.161823 -0.223566
C75   C     C_R   0.097767 0.166667 0.095864 0.058789
C76   C     C_R   0.067727 0.252008 0.973650 -0.130001
C77   C     C_R   0.160962 0.123490 0.065207 0.030533
C78   C     C_R   0.000971 0.802351 0.097442 -0.143990
C79   C     C_R   0.864390 0.950045 0.133268 -0.160309
C80   C     C_R   0.792029 0.898422 0.162055 -0.138086
C81   C     C_R   0.831609 0.891356 0.255578 -0.133400
C82   C     C_R   0.943931 0.941722 0.323913 -0.071066
C83   C     C_R   0.016952 0.998245 0.298275 -0.119120
C84   C     C_R   0.977226 0.997555 0.199824 0.090484
C85   C     C_R   0.051474 0.223070 0.047798 0.057548
C86   C     C_R   0.094738 0.807318 0.010474 -0.149185
F1    F     F_    0.290360 0.803082 0.600306 -0.724300
F2    F     F_    0.032135 0.129563 0.561094 -0.748553
F3    F     F_    0.501741 0.615321 0.126839 -0.727400
H1    H     H_    0.938659 0.236195 0.111783 0.093661
H2    H     H_    0.580695 0.276417 0.026525 0.096038
H3    H     H_    0.716061 0.433561 0.212076 0.118050
H4    H     H_    0.379704 0.775337 0.205331 0.113838
H5    H     H_    0.743518 0.205961 0.320333 0.109781
H6    H     H_    0.597202 0.050694 0.137227 0.103230
H7    H     H_    0.783280 0.365244 0.480444 0.126430
H8    H     H_    0.079660 0.660319 0.501114 0.176215
H9    H     H_    0.088604 0.813087 0.726591 0.105984
H10   H     H_    0.267399 0.952031 0.894346 0.133069
H11   H     H_    0.410942 0.903808 0.950573 0.088002
H12   H     H_    0.043112 0.677174 0.807907 0.117829
H13   H     H_    0.378675 0.719208 0.838416 0.086805
H14   H     H_    0.199305 0.576675 0.673235 0.101668
H15   H     H_    0.124212 0.003986 0.568534 0.182870
H16   H     H_    0.178045 0.323235 0.846784 0.131574
H17   H     H_    0.247837 0.105083 0.519010 0.138868
H18   H     H_    0.383081 0.055053 0.495107 0.146632
H19   H     H_    0.142727 0.859648 0.604211 0.148483
H20   H     H_    0.525951 0.011911 0.701770 0.122571
H21   H     H_    0.522916 0.818926 0.360568 0.162781
H22   H     H_    0.669580 0.004770 0.389834 0.149130
H23   H     H_    0.825043 0.174692 0.648222 0.124526
H24   H     H_    0.851864 0.094324 0.411489 0.164709
H25   H     H_    0.986340 0.042668 0.675634 0.152434
H26   H     H_    0.018398 0.676634 0.349749 0.096480
H27   H     H_    0.805534 0.954840 0.657083 0.147903
H28   H     H_    0.469422 0.317775 0.848462 0.151765
H29   H     H_    0.469258 0.374810 0.761411 0.179543
H30   H     H_    0.315975 0.379959 0.754651 0.212591
H31   H     H_    0.319306 0.319184 0.837833 0.178539
H32   H     H_    0.579617 0.448893 0.058488 0.116152
H33   H     H_    0.426782 0.449192 0.051517 0.020446
H34   H     H_    0.976025 0.822514 0.156494 0.121696
H35   H     H_    0.637587 0.674701 0.986375 0.157060
H36   H     H_    0.565310 0.582997 0.842103 0.163694
H37   H     H_    0.409614 0.581068 0.834280 0.155523
H38   H     H_    0.355042 0.676696 0.026450 0.088239
H39   H     H_    0.485159 0.676306 0.978974 0.174061
H40   H     H_    0.647053 0.594499 0.114704 0.202754
H41   H     H_    0.312552 0.136895 0.793811 0.127255
H42   H     H_    0.123354 0.995233 0.723336 0.110804
H43   H     H_    0.051729 0.992820 0.847600 0.123237
H44   H     H_    0.356898 0.278884 0.116236 0.125446
H45   H     H_    0.154860 0.836346 0.987863 0.097684
H46   H     H_    0.426153 0.280336 0.989020 0.104744
H47   H     H_    0.218208 0.010667 0.062074 0.124225
H48   H     H_    0.024167 0.178411 0.198466 0.131106
H49   H     H_    0.859575 0.324271 0.184499 0.113823
H50   H     H_    0.832637 0.951169 0.058223 0.119217
H51   H     H_    0.705246 0.862294 0.110930 0.119409
H52   H     H_    0.775317 0.848090 0.275876 0.150635
H53   H     H_    0.974064 0.935793 0.396020 0.132063
H54   H     H_    0.103538 0.035449 0.350246 0.116163
H55   H     H_    0.195308 0.751681 0.371870 0.114505
H56   H     H_    0.659343 0.166876 0.831095 0.089727
H57   H     H_    0.123016 0.247656 0.944213 0.126288
H58   H     H_    0.624009 0.321366 0.883299 0.093776
H59   H     H_    0.796837 0.676890 0.062045 0.111493
H60   H     H_    0.895005 0.324760 0.619049 0.104280
H61   H     H_    0.517231 0.085722 0.989010 0.109087
N1    N     N_R   0.947080 0.293830 0.002870 -0.042087
N2    N     N_R   0.153670 0.443180 0.946090 -0.039814
N3    N     N_R   0.002360 0.556820 0.208890 -0.039771
N4    N     N_R   0.210070 0.556820 0.002870 -0.048938
N5    N     N_R   0.945960 0.443180 0.152110 -0.040632
N6    N     N_R   0.151710 0.706170 0.208890 -0.047951
N7    N     N_R   0.004320 0.293830 0.946090 -0.041767
N8    N     N_R   0.789930 0.443180 0.997130 -0.038196
N9    N     N_R   0.054040 0.556820 0.847890 -0.046152
N10   N     N_R   0.848290 0.293830 0.791110 -0.043930
N11   N     N_R   0.995680 0.706170 0.053910 -0.040517
N12   N     N_R   0.052920 0.706170 0.997130 -0.040974
N13   N     N_R   0.791050 0.293830 0.847890 -0.039932
N14   N     N_R   0.846330 0.556820 0.053910 -0.039366
N15   N     N_R   0.997640 0.443180 0.791110 -0.040628
N16   N     N_R   0.208950 0.706170 0.152110 -0.045483
Ni1   Ni    Ni4+2 0.869690 0.369690 0.000000 0.213651
Ni2   Ni    Ni4+2 0.130310 0.630310 0.000000 0.211797
Ni3   Ni    Ni4+2 0.000970 0.369690 0.869780 0.227514
Ni4   Ni    Ni4+2 0.999030 0.630310 0.130220 0.213184

loop_
_geom_bond_atom_site_label_1
_geom_bond_atom_site_label_2
_ccdc_geom_bond_type
C25   C31   A    
C66   C68   A    
C63   C65   A    
C58   C62   S    
C1    H1    S    
C6    C45   A    
C27   C29   A    
C18   H7    S    
C41   C42   A    
N14   Ni4   S    
C17   H61   S    
C33   H18   S    
C9    C72   S    
C82   H53   S    
C3    C6    A    
C40   N4    A    
N11   N12   A    
C39   C41   A    
C55   H30   S    
C2    H56   S    
C26   C27   A    
C29   C30   A    
C83   C84   A    
C18   C24   A    
N1    N7    A    
C57   H40   S    
C68   H44   S    
C56   H12   S    
C56   N9    A    
C32   C38   A    
C42   C53   S    
C15   H6    S    
C30   C31   A    
C12   C64   A    
N1    Ni1   S    
C57   C59   S    
C10   C17   A    
C23   C40   A    
C70   H41   S    
C5    H60   S    
N9    Ni2   S    
C60   C62   S    
C18   C19   A    
C73   C74   A    
C38   H15   S    
C34   C52   A    
N7    Ni3   S    
C11   H3    S    
C75   C85   S    
C35   C36   A    
C44   C46   A    
C68   C69   A    
C86   H45   S    
N3    Ni4   S    
C52   H49   S    
N10   Ni3   S    
C67   N10   A    
C86   N12   A    
C43   H21   S    
C63   H42   S    
C4    C12   A    
C73   C84   S    
C54   C59   S    
N8    N14   A    
C26   H10   S    
C47   C53   A    
C55   C60   S    
C81   H52   S    
C76   H57   S    
C3    H59   S    
C69   H46   S    
C32   H17   S    
C13   C14   A    
N16   Ni2   S    
C49   F2    S    
N4    Ni2   S    
C7    C56   A    
C61   F3    S    
N8    Ni1   S    
C81   C82   A    
C58   H36   S    
C55   H31   S    
C36   F1    S    
N15   Ni3   S    
C23   C60   S    
C22   C34   S    
C74   H48   S    
C76   N7    A    
C74   C75   A    
N10   N13   A    
C8    C41   S    
C37   H19   S    
C79   H50   S    
N5    Ni1   S    
C71   H47   S    
C5    C7    A    
C4    H4    S    
C72   C73   A    
C64   H55   S    
C25   C26   A    
C80   H51   S    
C40   H38   S    
C57   H32   S    
C82   C83   A    
C27   H11   S    
N9    N15   A    
C13   C24   S    
C61   H33   S    
C52   N5    A    
C30   H14   S    
N13   Ni1   S    
C43   C44   A    
C37   C38   A    
C28   H26   S    
C9    C86   A    
C21   H8    S    
C25   H9    S    
C47   C48   A    
C63   C70   A    
N6    N16   A    
C83   H54   S    
C50   C51   A    
C16   N2    A    
C78   H34   S    
C75   C77   A    
C16   H16   S    
C8    C67   A    
C39   C46   A    
N12   Ni2   S    
N11   Ni4   S    
C3    N14   A    
C48   C49   A    
N2    N4    A    
C10   H2    S    
C49   C50   A    
C16   C23   A    
C5    N15   A    
C54   H29   S    
C28   N3    A    
C22   C24   A    
C1    C85   A    
N3    N5    A    
C42   C43   A    
C71   C77   A    
C65   H43   S    
C62   H37   S    
C15   C17   A    
C66   C77   S    
C54   C55   S    
C36   C37   A    
C45   H58   S    
C58   H35   S    
C6    C59   S    
C2    C8    A    
C45   N8    A    
C80   C81   A    
C2    N13   A    
C57   C61   S    
C64   N6    A    
C7    C19   S    
C51   H27   S    
C32   C33   A    
C19   C20   A    
C58   C59   S    
C71   C72   A    
C12   C44   S    
C62   H39   S    
N2    Ni3   S    
C11   C13   A    
C79   C84   A    
C47   H22   S    
N6    Ni4   S    
C33   C35   A    
C4    N16   A    
C29   H13   S    
C1    N1    A    
C9    C78   A    
C69   C70   A    
C10   C11   A    
C51   C53   A    
C28   C34   A    
C79   C80   A    
C67   H23   S    
C39   H20   S    
C20   C21   A    
C78   N11   A    
C65   C66   A    
C54   H28   S    
C14   C15   A    
C60   C61   S    
C50   H25   S    
C21   C22   A    
C35   C46   S    
C76   C85   A    
C14   H5    S    
C48   H24   S    
C20   C31   S    
