data_str_m12_o9_o24_f0_bcu.sym.170
_audit_creation_date              2013-03-05T15:58:17-0500
_audit_creation_method            fapswitch 2.2
_symmetry_space_group_name_H-M    P1
_symmetry_Int_Tables_number       1
_space_group_crystal_system       triclinic
_cell_length_a                    14.850021
_cell_length_b                    14.911037
_cell_length_c                    15.109264
_cell_angle_alpha                 110.542359
_cell_angle_beta                  108.751275
_cell_angle_gamma                 108.328955
_cell_volume                      2599.48211309

loop_
_atom_site_label
_atom_site_type_symbol
_atom_site_description
_atom_site_fract_x
_atom_site_fract_y
_atom_site_fract_z
_atom_type_partial_charge
C1    C     C_R   0.914508 0.197931 0.999686 -0.098908
C2    C     C_R   0.023431 0.747335 0.935057 -0.095086
H1    H     H_    0.856750 0.169920 0.025457 0.096074
H2    H     H_    0.060185 0.760967 0.887298 0.096347
N1    N     N_R   0.947560 0.293820 0.002910 -0.045280
N2    N     N_R   0.052440 0.706180 0.997090 -0.051310
C3    C     C_R   0.300948 0.799421 0.211479 -0.052060
C4    C     C_R   0.685925 0.245370 0.776787 -0.096421
H3    H     H_    0.356719 0.829004 0.184060 0.097932
H4    H     H_    0.619966 0.223483 0.794616 0.122333
N3    N     N_R   0.208960 0.706170 0.152110 -0.045110
N4    N     N_R   0.791040 0.293830 0.847890 -0.060920
C5    C     C_R   0.224736 0.407209 0.973485 -0.120807
C6    C     C_R   0.788002 0.590406 0.096158 -0.141831
H5    H     H_    0.206279 0.322697 0.939066 0.120043
H6    H     H_    0.814584 0.674095 0.152990 0.104421
N5    N     N_R   0.154330 0.443160 0.946140 -0.046576
N6    N     N_R   0.845670 0.556840 0.053860 -0.036299
C7    C     C_R   0.056858 0.589721 0.313478 -0.119900
C8    C     C_R   0.003192 0.409121 0.700501 -0.149757
H7    H     H_    0.100105 0.673044 0.379297 0.151642
H8    H     H_    0.980903 0.325556 0.647660 0.115137
N7    N     N_R   0.002190 0.556820 0.208880 -0.048973
N8    N     N_R   0.997810 0.443180 0.791120 -0.036931
C9    C     C_R   0.314853 0.590599 0.063958 -0.109293
C10   C     C_R   0.699476 0.408443 0.003938 -0.075961
H9    H     H_    0.378417 0.674577 0.112403 0.122739
H10   H     H_    0.646375 0.324223 0.976104 0.081635
N9    N     N_R   0.210550 0.556810 0.002910 -0.050629
N10   N     N_R   0.789450 0.443190 0.997090 -0.036003
C11   C     C_R   0.975115 0.406527 0.218007 -0.078110
C12   C     C_R   0.085172 0.591199 0.787619 -0.122051
H11   H     H_    0.947480 0.321833 0.194985 0.134633
H12   H     H_    0.133248 0.675553 0.813422 0.113480
N11   N     N_R   0.945970 0.443180 0.152110 -0.053920
N12   N     N_R   0.054030 0.556820 0.847890 -0.040925
C13   C     C_R   0.211525 0.795980 0.305605 -0.114734
C14   C     C_R   0.782035 0.258913 0.689506 -0.130580
H13   H     H_    0.185159 0.821684 0.364359 0.114155
H14   H     H_    0.805061 0.252863 0.627748 0.112742
N13   N     N_R   0.151530 0.706170 0.208880 -0.046335
N14   N     N_R   0.848470 0.293830 0.791120 -0.055019
C15   C     C_R   0.005032 0.199106 0.907616 -0.140222
C16   C     C_R   0.927683 0.744524 0.022771 -0.138926
H15   H     H_    0.025762 0.171723 0.844599 0.098721
H16   H     H_    0.871729 0.750316 0.052121 0.118968
N15   N     N_R   0.004980 0.293810 0.946140 -0.035093
N16   N     N_R   0.995020 0.706190 0.053860 -0.048631
C17   C     C_R   0.950403 0.136849 0.940828 0.099992
C18   C     C_R   0.942150 0.769776 0.946006 0.087071
C19   C     C_R   0.305784 0.854024 0.308808 0.140960
C20   C     C_R   0.678974 0.221257 0.676330 0.199510
C21   C     C_R   0.325413 0.498264 0.047938 0.080982
C22   C     C_R   0.697963 0.498781 0.066980 0.028296
C23   C     C_R   0.038849 0.495648 0.320071 0.066046
C24   C     C_R   0.055845 0.500114 0.695631 0.065553
H17   H     H_    0.327471 0.157097 0.831770 0.137962
H18   H     H_    0.573830 0.793469 0.094687 0.123927
C25   C     C_R   0.946358 0.864714 0.843235 -0.174726
C26   C     C_R   0.839268 0.962990 0.921592 -0.208291
C27   C     C_R   0.159305 0.037586 0.746952 -0.012348
C28   C     C_R   0.736375 0.880039 0.127458 -0.067098
H19   H     H_    0.154690 0.009551 0.668379 0.141108
H20   H     H_    0.766932 0.929903 0.213182 0.156390
Ni1   Ni    Ni4+2 0.869690 0.369690 0.000000 0.223306
Ni2   Ni    Ni4+2 0.130310 0.630310 0.000000 0.222096
Ni3   Ni    Ni4+2 0.001390 0.369680 0.869810 0.225780
Ni4   Ni    Ni4+2 0.998610 0.630320 0.130190 0.224685
C29   C     C_R   0.068353 0.988711 0.756002 -0.195787
C30   C     C_R   0.804772 0.896016 0.083087 -0.187942
H21   H     H_    0.340691 0.216051 0.012276 0.158529
H22   H     H_    0.503712 0.674182 0.899987 0.161112
H23   H     H_    0.566569 0.137676 0.066618 0.125818
H24   H     H_    0.436917 0.934624 0.000256 0.130901
C31   C     C_R   0.683307 0.304153 0.191378 -0.092107
C32   C     C_R   0.369161 0.761055 0.902150 -0.126019
H25   H     H_    0.631024 0.336636 0.165147 0.120892
H26   H     H_    0.406486 0.751271 0.969749 0.111236
C33   C     C_R   0.787179 0.374623 0.280661 -0.176122
C34   C     C_R   0.302997 0.669762 0.798186 -0.145554
H27   H     H_    0.814521 0.461549 0.322595 0.142507
H28   H     H_    0.291948 0.590379 0.786735 0.141506
C35   C     C_R   0.855698 0.333120 0.315377 -0.039336
C36   C     C_R   0.241869 0.678900 0.712136 -0.010785
C37   C     C_R   0.818075 0.219586 0.260356 0.462989
C38   C     C_R   0.256603 0.783912 0.730736 0.472668
C39   C     C_R   0.714040 0.149632 0.170541 -0.221447
C40   C     C_R   0.329452 0.875769 0.833871 -0.186766
H29   H     H_    0.685263 0.062549 0.127093 0.161158
H30   H     H_    0.340129 0.955868 0.848646 0.157087
C41   C     C_R   0.646896 0.191899 0.136115 -0.168135
C42   C     C_R   0.384355 0.864127 0.919678 -0.162170
C43   C     C_R   0.977809 0.410445 0.504868 -0.143063
C44   C     C_R   0.146542 0.568520 0.512215 -0.099872
H31   H     H_    0.909651 0.350810 0.501069 0.134482
H32   H     H_    0.211554 0.628863 0.513192 0.166329
C45   C     C_R   0.067187 0.495810 0.603629 0.028299
C46   C     C_R   0.052083 0.488245 0.414780 0.042062
C47   C     C_R   0.152677 0.578211 0.609038 0.071712
C48   C     C_R   0.965672 0.409133 0.411013 0.103806
H33   H     H_    0.994498 0.921347 0.683734 0.149007
H34   H     H_    0.887771 0.961339 0.134743 0.174413
H35   H     H_    0.456293 0.408939 0.172630 0.168365
H36   H     H_    0.576336 0.578176 0.978438 0.148321
C49   C     C_R   0.072429 0.025779 0.857289 -0.079428
C50   C     C_R   0.765654 0.831441 0.971689 -0.094552
C51   C     C_R   0.263627 0.154954 0.940955 -0.272859
C52   C     C_R   0.587542 0.737290 0.949889 -0.234889
H37   H     H_    0.998980 0.020527 0.332281 0.150456
H38   H     H_    0.954673 0.012508 0.577436 0.105622
C53   C     C_R   0.124020 0.021098 0.289263 -0.061192
C54   C     C_R   0.833367 0.003611 0.628020 -0.117099
H39   H     H_    0.078636 0.008519 0.209959 0.164798
H40   H     H_    0.867064 0.982992 0.687576 0.117374
C55   C     C_R   0.227183 0.029550 0.322314 -0.094734
C56   C     C_R   0.739952 0.013233 0.613173 -0.056256
H41   H     H_    0.260645 0.023123 0.267761 0.140429
H42   H     H_    0.702986 0.000565 0.661975 0.118443
C57   C     C_R   0.285791 0.043847 0.424511 0.183421
C58   C     C_R   0.693843 0.037814 0.534394 0.205201
C59   C     C_R   0.240091 0.050764 0.493395 -0.073852
C60   C     C_R   0.741398 0.051560 0.470011 -0.130331
H43   H     H_    0.283317 0.060151 0.571812 0.134117
H44   H     H_    0.705413 0.068936 0.407709 0.129541
C61   C     C_R   0.137268 0.043167 0.460280 -0.114443
C62   C     C_R   0.835939 0.043476 0.486459 -0.120930
H45   H     H_    0.102189 0.048146 0.513338 0.106533
H46   H     H_    0.873025 0.054888 0.437494 0.156339
C63   C     C_R   0.079069 0.027773 0.358119 -0.090037
C64   C     C_R   0.881971 0.019532 0.565504 -0.108361
C65   C     C_R   0.486264 0.136588 0.546150 0.446880
C66   C     C_R   0.497056 0.948538 0.430124 0.448028
C67   C     C_R   0.585037 0.134381 0.574832 -0.154477
C68   C     C_R   0.398973 0.951218 0.400139 -0.146359
C69   C     C_R   0.591171 0.041877 0.513291 -0.178816
C70   C     C_R   0.391696 0.044323 0.456764 -0.161847
C71   C     C_R   0.256744 0.120830 0.839220 -0.178889
C72   C     C_R   0.627394 0.802608 0.060518 -0.188564
C73   C     C_R   0.832998 0.870100 0.926378 0.105172
C74   C     C_R   0.974172 0.970225 0.863239 0.058699
H47   H     H_    0.983183 0.824168 0.805015 0.132327
H48   H     H_    0.788665 0.994859 0.943087 0.129982
C75   C     C_R   0.172554 0.108204 0.951688 0.388541
C76   C     C_R   0.655654 0.749680 0.903938 0.377869
C77   C     C_R   0.897876 0.827036 0.897701 0.142414
C78   C     C_R   0.920425 0.021972 0.905621 0.062185
C79   C     C_3   0.498244 0.393071 0.030045 -0.193668
C80   C     C_3   0.536290 0.600429 0.124119 -0.148434
C81   C     C_3   0.440345 0.441684 0.973322 -0.134906
C82   C     C_3   0.595068 0.551597 0.180988 -0.122978
H49   H     H_    0.376017 0.396564 0.887488 0.136388
H50   H     H_    0.661326 0.596184 0.265783 0.135942
H51   H     H_    0.487065 0.309119 0.992439 0.107423
H52   H     H_    0.552329 0.685656 0.167093 0.144224
C83   C     C_3   0.428029 0.497208 0.072199 0.165083
C84   C     C_3   0.605503 0.496517 0.080969 0.148592
C85   C     C_3   0.484496 0.448020 0.129401 -0.122809
C86   C     C_3   0.547880 0.544681 0.024568 -0.136498
Cl1   Cl    Cl    0.901904 0.164432 0.299682 -0.771265
Cl2   Cl    Cl    0.178560 0.803418 0.630758 -0.765623
N17   N     N_R   0.184033 0.143436 0.058222 0.232394
O1    O     O_R   0.135382 0.073254 0.081663 -0.435849
O2    O     O_R   0.253460 0.243633 0.135720 -0.395456
N18   N     N_R   0.610883 0.682584 0.789067 0.240205
O3    O     O_R   0.670535 0.656805 0.749121 -0.373411
O4    O     O_R   0.507350 0.637997 0.724557 -0.367951
Cl3   Cl    Cl    0.482667 0.256935 0.618838 -0.621675
Cl4   Cl    Cl    0.502572 0.824790 0.370704 -0.683885

loop_
_geom_bond_atom_site_label_1
_geom_bond_atom_site_label_2
_geom_bond_distance
_ccdc_geom_bond_type
C33   C35   1.405049 A    
C60   C62   1.396599 A    
C82   C85   1.557669 S    
H21   C51   1.078563 S    
C83   C85   1.534221 S    
N5    N9    1.390753 A    
C6    N6    1.337631 A    
C2    H2    1.070666 S    
C54   C56   1.393906 A    
C34   C36   1.405815 A    
C54   H40   1.075225 S    
N17   O1    1.300626 A    
C3    N3    1.321481 A    
N1    N15   1.390336 A    
N8    N12   1.390629 A    
N2    N16   1.390337 A    
C1    N1    1.334908 A    
C12   N12   1.324842 A    
N18   O3    1.300707 A    
C79   C81   1.534087 S    
C32   H26   1.078493 S    
C14   N14   1.320487 A    
C39   C41   1.397784 A    
C81   H49   1.110866 S    
C22   C84   1.446885 S    
C13   C19   1.369602 A    
C19   C68   1.423721 S    
N12   Ni2   1.882567 S    
C14   C20   1.372009 A    
C44   C46   1.395454 A    
N6    Ni4   1.884895 S    
C29   H33   1.082386 S    
C28   C30   1.391233 A    
H24   C42   1.082270 S    
C27   H19   1.081779 S    
C7    C23   1.388647 A    
C25   C74   1.383633 A    
C28   H20   1.081872 S    
C2    C18   1.392750 A    
N8    Ni3   1.878307 S    
C26   H48   1.081281 S    
C84   C86   1.523612 S    
C53   C63   1.397659 A    
H22   C52   1.079615 S    
C16   H16   1.072241 S    
C55   H41   1.083219 S    
C21   C83   1.454906 S    
N4    N14   1.390461 A    
C11   H11   1.076210 S    
N17   O2    1.301348 A    
N3    N13   1.390460 A    
N6    N10   1.390752 A    
C80   C83   1.534427 S    
C38   Cl2   1.761931 S    
C81   C86   1.528497 S    
C4    C20   1.391635 A    
N3    Ni2   1.882686 S    
C8    C24   1.377504 A    
H18   C72   1.078431 S    
C37   C39   1.400555 A    
C65   Cl3   1.773174 S    
C43   H31   1.085915 S    
C14   H14   1.077599 S    
C82   C84   1.530311 S    
C76   N18   1.440986 S    
C12   C24   1.371171 A    
C20   C67   1.438657 S    
C2    N2    1.323246 A    
C80   H52   1.106545 S    
C24   C45   1.435094 S    
C79   H51   1.107670 S    
C10   C22   1.361849 A    
N15   Ni3   1.877983 S    
C45   C47   1.417681 A    
C58   C60   1.406277 A    
N13   Ni4   1.885387 S    
C5    C21   1.383554 A    
C57   C59   1.406131 A    
C9    N9    1.329754 A    
N5    Ni3   1.884898 S    
C38   C40   1.400342 A    
C40   C42   1.393964 A    
H23   C41   1.082367 S    
N1    Ni1   1.855796 S    
C65   C70   1.396565 A    
C30   C50   1.407035 A    
C74   C78   1.418327 A    
C33   H27   1.083320 S    
N11   Ni1   1.882566 S    
C29   C49   1.406050 A    
H35   C85   1.109553 S    
C68   C70   1.411111 A    
C66   Cl4   1.788096 S    
C28   C72   1.388537 A    
C56   C58   1.399999 A    
C1    H1    1.079485 S    
C12   H12   1.075124 S    
N7    Ni4   1.878305 S    
C51   C71   1.396259 A    
C7    N7    1.333377 A    
C26   C78   1.397663 A    
C59   C61   1.398187 A    
C15   H15   1.078293 S    
C43   C45   1.392707 A    
C4    N4    1.334367 A    
H17   C71   1.081536 S    
C53   H39   1.081065 S    
C80   C86   1.536881 S    
N16   Ni4   1.877983 S    
C44   H32   1.084921 S    
C79   C84   1.530427 S    
C31   H25   1.080686 S    
C43   C48   1.363011 A    
C32   C42   1.393184 A    
C66   C68   1.397647 A    
C80   C82   1.544990 S    
C18   C77   1.475074 S    
C34   H28   1.083435 S    
C35   C37   1.409963 A    
C40   H30   1.082814 S    
C10   N10   1.324941 A    
C55   C57   1.405531 A    
C35   C48   1.486259 S    
C5    H5    1.079264 S    
H37   C63   1.081496 S    
N14   Ni3   1.885385 S    
C11   N11   1.315669 A    
C8    H8    1.082653 S    
C51   C75   1.403113 A    
C79   C85   1.551018 S    
C25   C77   1.400784 A    
C52   C76   1.401146 A    
C60   H44   1.083351 S    
C61   H45   1.081953 S    
C27   C29   1.394132 A    
C3    H3    1.082215 S    
C73   C77   1.410872 A    
C62   H46   1.082100 S    
C6    C22   1.377716 A    
C6    H6    1.081978 S    
C36   C47   1.488785 S    
C10   H10   1.081228 S    
C15   C17   1.373572 A    
C32   C34   1.397056 A    
H36   C86   1.102150 S    
C15   N15   1.325537 A    
C65   C67   1.404277 A    
C49   C75   1.418657 A    
C30   H34   1.081654 S    
C50   C76   1.413901 A    
C31   C41   1.396747 A    
C9    H9    1.078846 S    
N4    Ni1   1.882688 S    
N7    N11   1.390631 A    
C57   C70   1.486182 S    
C5    N5    1.334690 A    
C58   C69   1.479552 S    
C11   C23   1.368287 A    
C39   H29   1.082622 S    
C81   C83   1.534176 S    
C3    C19   1.373203 A    
C13   H13   1.080433 S    
C49   C74   1.483143 S    
C52   C72   1.397059 A    
C27   C71   1.391762 A    
C50   C73   1.468213 S    
C31   C33   1.396868 A    
C44   C47   1.388165 A    
C66   C69   1.374581 A    
C23   C46   1.429066 S    
N18   O4    1.301814 A    
C56   H42   1.083284 S    
C17   C78   1.464223 S    
H38   C64   1.080890 S    
C82   H50   1.109908 S    
C13   N13   1.327378 A    
C8    N8    1.321690 A    
C46   C48   1.412555 A    
C59   H43   1.083318 S    
N10   Ni1   1.855901 S    
C26   C73   1.387762 A    
N9    Ni2   1.855903 S    
C61   C63   1.396827 A    
N2    Ni2   1.855795 S    
C25   H47   1.078889 S    
C16   C18   1.396086 A    
C4    H4    1.081089 S    
C67   C69   1.417341 A    
C62   C64   1.396057 A    
C36   C38   1.419458 A    
C53   C55   1.398119 A    
C37   Cl1   1.757953 S    
C54   C64   1.399081 A    
C1    C17   1.395065 A    
C75   N17   1.438693 S    
C9    C21   1.380253 A    
C16   N16   1.339104 A    
C7    H7    1.079570 S    
