data_str_m2_o4_o9_f0_pcu.sym.84
_audit_creation_date              2012-12-10T19:10:07-0500
_audit_creation_method            fapswitch 2.2
_symmetry_space_group_name_H-M    P1
_symmetry_Int_Tables_number       1
_space_group_crystal_system       triclinic
_cell_length_a                    11.036463
_cell_length_b                    10.939569
_cell_length_c                    9.69212
_cell_angle_alpha                 91.013672
_cell_angle_beta                  90.528252
_cell_angle_gamma                 92.727688
_cell_volume                      1168.60181633

loop_
_atom_site_label
_atom_site_type_symbol
_atom_type_description
_atom_site_fract_x
_atom_site_fract_y
_atom_site_fract_z
_atom_type_partial_charge
C1    C     C_R   0.490814 0.262101 0.498573 0.800401
C2    C     C_R   0.212528 0.535267 0.973203 -0.121247
C3    C     C_R   0.934135 0.481411 0.379929 -0.245714
C4    C     C_R   0.872191 0.481957 0.504355 -0.097177
C5    C     C_R   0.942620 0.473434 0.626159 0.037046
C6    C     C_R   0.068783 0.474933 0.619433 -0.238347
C7    C     C_R   0.129341 0.489098 0.495495 -0.093978
C8    C     C_R   0.060165 0.490223 0.372792 0.008628
C9    C     C_R   0.928697 0.563478 0.857706 -0.181356
C10   C     C_R   0.889905 0.560740 0.993355 0.163137
C11   C     C_R   0.812645 0.461697 0.034432 -0.150519
C12   C     C_R   0.262869 0.497317 0.498651 0.774198
C13   C     C_R   0.787717 0.361558 0.946410 0.175453
C14   C     C_R   0.826835 0.365547 0.809872 -0.161773
C15   C     C_R   0.893150 0.469177 0.764691 0.062995
C16   C     C_R   0.458456 0.062936 0.618606 0.112984
C17   C     C_R   0.465406 0.127619 0.495664 -0.204626
C18   C     C_R   0.436615 0.057645 0.372754 0.092635
C19   C     C_R   0.432750 0.927896 0.374912 0.151871
C20   C     C_R   0.464931 0.867682 0.497237 -0.152725
C21   C     C_R   0.463726 0.937404 0.617678 0.028563
C22   C     C_3   0.535485 0.935240 0.746056 -0.515150
C23   C     C_R   0.490690 0.736567 0.499972 0.827945
C24   C     C_3   0.526604 0.072998 0.752761 -0.024186
C25   C     C_R   0.518972 0.606249 0.076077 0.300671
C26   C     C_R   0.459322 0.400996 0.070797 -0.050646
C27   C     C_R   0.458486 0.401440 0.923207 -0.077001
C28   C     C_R   0.521168 0.606030 0.929676 0.241755
C29   C     C_3   0.633533 0.686484 0.933292 -0.532598
C30   C     C_3   0.626170 0.691297 0.089521 -0.509868
C31   C     C_R   0.737638 0.493886 0.501340 0.781058
C32   C     C_R   0.213946 0.634148 0.066115 -0.171068
C33   C     C_R   0.165276 0.619183 0.197312 -0.029154
C34   C     C_R   0.114390 0.504904 0.235606 0.118022
C35   C     C_R   0.113291 0.405597 0.142331 -0.187290
C36   C     C_R   0.162938 0.420372 0.010888 0.197511
Cu1   Cu    Cu3+1 0.499990 0.499980 0.640670 0.949769
Cu2   Cu    Cu3+1 0.500010 0.500020 0.359330 0.951706
H1    H     H_    0.764690 0.462272 0.129996 0.162210
H2    H     H_    0.806300 0.288821 0.739946 0.116802
H3    H     H_    0.629552 0.907908 0.725921 0.177309
H4    H     H_    0.614888 0.125703 0.746842 0.151171
H5    H     H_    0.422719 0.321932 0.121496 0.137421
H6    H     H_    0.252775 0.722296 0.036154 0.125283
H7    H     H_    0.708463 0.639736 0.885972 0.233898
H8    H     H_    0.624719 0.776869 0.891883 0.192985
H9    H     H_    0.698514 0.650465 0.148110 0.210251
H10   H     H_    0.604211 0.782547 0.130334 0.199467
H11   H     H_    0.165736 0.696385 0.268788 0.113570
H12   H     H_    0.074123 0.317238 0.171636 0.125629
H13   H     H_    0.884544 0.477508 0.287097 0.156320
H14   H     H_    0.985047 0.640918 0.823741 0.145707
N1    N     N_R   0.500790 0.500930 0.147930 -0.194788
N2    N     N_R   0.500790 0.500890 0.852020 -0.198709
O1    O     O_R   0.500000 0.319640 0.618810 -0.576663
O2    O     O_R   0.500010 0.319680 0.381230 -0.590599
O3    O     O_R   0.319640 0.499990 0.618790 -0.595267
O4    O     O_R   0.319650 0.500030 0.381210 -0.578161
O5    O     O_R   0.499990 0.680320 0.618770 -0.582895
O6    O     O_R   0.500000 0.680360 0.381190 -0.554180
O7    O     O_R   0.680350 0.499970 0.618790 -0.568585
O8    O     O_R   0.680360 0.500010 0.381210 -0.596000
H15   H     H_    0.251945 0.548348 0.872800 0.157225
N3    N     N_3   0.721763 0.256775 0.997390 -0.610328
H16   H     H_    0.641758 0.246303 0.940227 0.234566
H17   H     H_    0.772476 0.179998 0.978594 0.204977
N4    N     N_3   0.412301 0.113655 0.244273 -0.628938
H18   H     H_    0.493204 0.155475 0.209855 0.244518
H19   H     H_    0.344860 0.176357 0.259160 0.227129
N5    N     N_3   0.393782 0.858891 0.254019 -0.572228
H20   H     H_    0.303440 0.878175 0.234539 0.213643
H21   H     H_    0.443884 0.890645 0.169984 0.220180
H22   H     H_    0.482323 0.886476 0.826856 0.200703
N6    N     N_3   0.449955 0.110361 0.867043 -0.621139
H23   H     H_    0.490867 0.085057 0.959274 0.227234
H24   H     H_    0.364762 0.064017 0.861293 0.235390
H25   H     H_    0.420342 0.323997 0.866184 0.202519
N7    N     N_3   0.163935 0.319059 0.915717 -0.623181
H26   H     H_    0.210314 0.249339 0.962366 0.209901
H27   H     H_    0.074268 0.286606 0.899184 0.222019
H28   H     H_    0.120014 0.467232 0.713546 0.188360
N8    N     N_3   0.923049 0.663817 0.081850 -0.604563
H29   H     H_    0.883747 0.741118 0.042428 0.221906
H30   H     H_    0.891532 0.651983 0.181756 0.206009

loop_
_geom_bond_atom_site_label_1
_geom_bond_atom_site_label_2
_ccdc_geom_bond_type
C16   C21   A    
C24   H4    S    
C31   O7    A    
C35   C36   A    
C27   N2    A    
C7    C8    A    
C25   C28   A    
C23   O5    A    
C13   N3    S    
C26   C27   A    
C29   C30   S    
N6    H24   S    
C30   H10   S    
C28   C29   S    
C1    O2    A    
C25   N1    A    
C18   C19   A    
C5    C6    A    
N7    H27   S    
C22   H3    S    
C33   H11   S    
C2    C32   A    
C34   C35   A    
Cu2   O4    S    
C19   C20   A    
C16   C17   A    
N5    H20   S    
C9    C10   A    
C12   O4    A    
C16   C24   S    
C6    H28   S    
C13   C14   A    
C31   O8    A    
C7    C12   S    
C9    H14   S    
C26   H5    S    
C33   C34   A    
C23   O6    A    
N6    H23   S    
N4    H18   S    
C30   H9    S    
C3    C8    A    
C28   N2    A    
N7    H26   S    
C18   N4    S    
C10   N8    S    
C29   H7    S    
N4    H19   S    
N3    H17   S    
Cu1   Cu2   S    
C20   C23   S    
C35   H12   S    
C17   C18   A    
C32   H6    S    
C8    C34   S    
C11   H1    S    
Cu1   O5    S    
Cu2   O6    S    
C12   O3    A    
N8    H30   S    
C22   C24   S    
Cu1   N2    S    
C3    C4    A    
C26   N1    A    
C2    H15   S    
C2    C36   A    
C25   C30   S    
C3    H13   S    
C4    C5    A    
C27   H25   S    
Cu1   O7    S    
C6    C7    A    
C1    C17   S    
C29   H8    S    
C32   C33   A    
C1    O1    A    
C36   N7    S    
N3    H16   S    
C11   C13   A    
C24   N6    S    
Cu2   N1    S    
C9    C15   A    
C5    C15   S    
C4    C31   S    
C10   C11   A    
C14   H2    S    
Cu1   O1    S    
Cu2   O2    S    
C20   C21   A    
N8    H29   S    
C14   C15   A    
C19   N5    S    
N5    H21   S    
C22   H22   S    
C21   C22   S    
Cu1   O3    S    
Cu2   O8    S    
