data_str_m2_o14_o14_f0_pcu.sym.8
_audit_creation_date              2012-10-26T19:04:24-0400
_audit_creation_method            fapswitch 2.2
_symmetry_space_group_name_H-M    P1
_symmetry_Int_Tables_number       1
_space_group_crystal_system       triclinic
_cell_length_a                    14.883786
_cell_length_b                    15.681532
_cell_length_c                    9.606178
_cell_angle_alpha                 90.377517
_cell_angle_beta                  89.267617
_cell_angle_gamma                 90.154893
_cell_volume                      2241.84786342

loop_
_atom_site_label
_atom_site_type_symbol
_atom_type_description
_atom_site_fract_x
_atom_site_fract_y
_atom_site_fract_z
_atom_type_partial_charge
C1    C     C_R   0.379487 0.883089 0.500264 0.523917
C2    C     C_R   0.753862 0.185968 0.411747 -0.153616
C3    C     C_R   0.255197 0.316381 0.581232 -0.152096
C4    C     C_R   0.259879 0.680679 0.425176 -0.155619
C5    C     C_R   0.673392 0.804717 0.497597 -0.002502
C6    C     C_R   0.678756 0.191240 0.499687 0.004772
C7    C     C_R   0.179339 0.308619 0.498045 0.004030
C8    C     C_R   0.179479 0.691047 0.499592 0.005622
C9    C     C_R   0.664981 0.999636 0.141157 -0.090012
C10   C     C_R   0.164999 0.502430 0.141184 -0.080562
C11   C     C_R   0.745879 0.999545 0.067714 -0.177054
C12   C     C_R   0.378921 0.116411 0.500852 0.526139
C13   C     C_R   0.245867 0.504513 0.067721 -0.167467
C14   C     C_R   0.746102 0.999838 0.924209 -0.162019
C15   C     C_R   0.246066 0.505008 0.924215 -0.169504
C16   C     C_R   0.665431 0.000194 0.853242 -0.073724
C17   C     C_R   0.165398 0.503421 0.853268 -0.079430
C18   C     C_R   0.581250 0.000011 0.923770 0.158129
C19   C     C_R   0.081232 0.502404 0.923778 0.161785
C20   C     C_R   0.581142 0.999872 0.073300 0.160164
C21   C     C_R   0.081142 0.502011 0.073334 0.157701
C22   C     C_R   0.422710 0.000012 0.075370 0.003395
C23   C     C_R   0.878794 0.383570 0.500290 0.532985
C24   C     C_R   0.922910 0.495566 0.075495 -0.000318
C25   C     C_R   0.616899 0.120095 0.499832 0.529728
C26   C     C_R   0.614776 0.878270 0.499087 0.528904
C27   C     C_R   0.116877 0.620245 0.499838 0.526537
C28   C     C_R   0.116661 0.379480 0.499176 0.526999
C29   C     C_R   0.422747 0.999974 0.927518 -0.001639
C30   C     C_R   0.923089 0.494344 0.927843 -0.002730
C31   C     C_R   0.210384 0.089335 0.352464 -0.110031
C32   C     C_R   0.205953 0.912143 0.638531 -0.112593
C33   C     C_R   0.738788 0.630888 0.735417 -0.116491
C34   C     C_R   0.877715 0.615831 0.502029 0.528889
C35   C     C_R   0.712390 0.403842 0.665165 -0.106625
C36   C     C_R   0.131658 0.078637 0.277241 -0.122466
C37   C     C_R   0.123264 0.924743 0.705208 -0.124070
C38   C     C_R   0.670179 0.635013 0.835226 -0.138368
C39   C     C_R   0.634318 0.411690 0.745923 -0.123901
C40   C     C_R   0.596817 0.687223 0.814763 -0.120644
C41   C     C_R   0.570367 0.347178 0.745763 -0.126669
C42   C     C_R   0.068779 0.143953 0.272839 -0.125531
C43   C     C_R   0.058830 0.860301 0.705181 -0.123153
C44   C     C_R   0.594952 0.739816 0.699205 -0.093017
C45   C     C_R   0.318346 0.252056 0.583430 -0.148023
C46   C     C_R   0.584196 0.274352 0.664991 -0.101999
C47   C     C_R   0.084033 0.220213 0.344218 -0.103598
C48   C     C_R   0.076628 0.782851 0.638349 -0.100897
C49   C     C_R   0.668703 0.743359 0.604371 0.028230
C50   C     C_R   0.663828 0.263976 0.584589 0.030305
C51   C     C_R   0.163639 0.232973 0.420410 0.030098
C52   C     C_R   0.160375 0.768206 0.571288 0.028298
C53   C     C_R   0.228126 0.166730 0.423633 0.025093
C54   C     C_R   0.225974 0.833743 0.571558 0.023031
C55   C     C_R   0.739131 0.683578 0.615979 0.026913
C56   C     C_R   0.323948 0.744577 0.425705 -0.151571
C57   C     C_R   0.729030 0.329693 0.584889 0.026816
C58   C     C_R   0.306955 0.178709 0.502428 -0.000010
C59   C     C_R   0.308533 0.819847 0.500483 -0.001441
C60   C     C_R   0.805624 0.679108 0.506969 -0.009612
C61   C     C_R   0.807182 0.320576 0.500376 0.001790
C62   C     C_R   0.802714 0.736073 0.395658 -0.158015
C63   C     C_R   0.817348 0.250204 0.411798 -0.149464
C64   C     C_R   0.738639 0.799218 0.392529 -0.162133
Cu1   Cu    Cu3+1 0.499990 0.000000 0.640660 0.901161
Cu2   Cu    Cu3+1 0.999990 0.500000 0.640660 0.912326
Cu3   Cu    Cu3+1 0.500010 0.000000 0.359340 0.920935
Cu4   Cu    Cu3+1 0.000010 0.500000 0.359340 0.916579
H1    H     H_    0.377469 0.260589 0.646408 0.114620
H2    H     H_    0.860161 0.487064 0.874819 0.094953
H3    H     H_    0.255701 0.035693 0.356719 0.124928
H4    H     H_    0.252913 0.964868 0.637987 0.125312
H5    H     H_    0.790061 0.586012 0.756800 0.133694
H6    H     H_    0.758164 0.456958 0.663602 0.120469
H7    H     H_    0.118935 0.019020 0.223464 0.111618
H8    H     H_    0.108758 0.985130 0.755803 0.113561
H9    H     H_    0.672632 0.595188 0.926747 0.100969
H10   H     H_    0.622396 0.468415 0.807399 0.113026
H11   H     H_    0.541245 0.687068 0.888588 0.115124
H12   H     H_    0.386788 0.734619 0.369701 0.126361
H13   H     H_    0.509128 0.354140 0.806783 0.108606
H14   H     H_    0.007288 0.135083 0.215448 0.106078
H15   H     H_    0.994334 0.870712 0.755772 0.112617
H16   H     H_    0.534555 0.776568 0.684737 0.151555
H17   H     H_    0.530948 0.227679 0.664641 0.145341
H18   H     H_    0.032150 0.267967 0.340826 0.140759
H19   H     H_    0.023598 0.735651 0.637728 0.146149
H20   H     H_    0.741632 0.845426 0.309199 0.127638
H21   H     H_    0.764497 0.130826 0.344993 0.112474
H22   H     H_    0.266590 0.373495 0.642749 0.110696
H23   H     H_    0.852733 0.734041 0.312701 0.141228
H24   H     H_    0.273905 0.621965 0.368896 0.107937
H25   H     H_    0.359301 0.000013 0.131662 0.113694
H26   H     H_    0.859620 0.491795 0.131774 0.119003
H27   H     H_    0.672243 0.999520 0.250850 0.176219
H28   H     H_    0.172310 0.500194 0.250810 0.180728
H29   H     H_    0.808894 0.999342 0.122877 0.108872
H30   H     H_    0.308897 0.504944 0.122837 0.115028
H31   H     H_    0.875720 0.243936 0.344248 0.116356
H32   H     H_    0.809326 0.999866 0.867108 0.117024
H33   H     H_    0.309274 0.505733 0.867077 0.112688
H34   H     H_    0.673388 0.000681 0.743330 0.186248
H35   H     H_    0.173343 0.501809 0.743385 0.179195
H36   H     H_    0.359387 0.999943 0.873560 0.114779
N1    N     N_R   0.501200 0.000000 0.147910 -0.242847
N2    N     N_R   0.001200 0.500000 0.147910 -0.245582
N3    N     N_R   0.501270 0.000000 0.852040 -0.246823
N4    N     N_R   0.001270 0.500000 0.852040 -0.242458
O1    O     O_R   0.409820 0.909830 0.618810 -0.511565
O2    O     O_R   0.590170 0.909830 0.618760 -0.527460
O3    O     O_R   0.090170 0.590170 0.618760 -0.524114
O4    O     O_R   0.090170 0.409830 0.618760 -0.511232
O5    O     O_R   0.590190 0.090180 0.381190 -0.511069
O6    O     O_R   0.590190 0.909820 0.381190 -0.520208
O7    O     O_R   0.090190 0.590180 0.381190 -0.513468
O8    O     O_R   0.090190 0.409820 0.381190 -0.528325
O9    O     O_R   0.409820 0.090170 0.618810 -0.513292
O10   O     O_R   0.909820 0.409830 0.618810 -0.502653
O11   O     O_R   0.909820 0.590170 0.618810 -0.523704
O12   O     O_R   0.409840 0.909830 0.381240 -0.503822
O13   O     O_R   0.409840 0.090170 0.381240 -0.497677
O14   O     O_R   0.909840 0.409830 0.381240 -0.508095
O15   O     O_R   0.909840 0.590170 0.381240 -0.496416
O16   O     O_R   0.590170 0.090170 0.618760 -0.527393

loop_
_geom_bond_atom_site_label_1
_geom_bond_atom_site_label_2
_ccdc_geom_bond_type
C44   C49   A    
C33   C55   A    
Cu2   Cu4   S    
C35   H6    S    
C34   O15   A    
C22   C29   A    
C43   H15   S    
C36   C42   A    
C42   H14   S    
C4    C8    A    
C23   O10   A    
C39   C41   A    
C28   O4    A    
C3    H22   S    
C19   C21   A    
Cu3   O6    S    
C25   O5    A    
C1    C59   S    
C11   C14   A    
C31   C53   A    
C6    C25   S    
C60   C62   A    
Cu1   O16   S    
C13   H30   S    
C61   C63   A    
C18   N3    A    
C62   C64   A    
C28   O8    A    
C1    O1    A    
C12   O13   A    
Cu1   Cu3   S    
C63   H31   S    
C41   C46   A    
Cu2   O3    S    
Cu3   O12   S    
C8    C52   A    
C40   C44   A    
C21   N2    A    
C46   H17   S    
C12   C58   S    
C19   N4    A    
C31   H3    S    
C27   O3    A    
C55   C60   A    
C4    C56   A    
C34   C60   S    
C5    C49   A    
C2    C6    A    
Cu4   N2    S    
Cu3   O13   S    
Cu4   O15   S    
C32   C54   A    
C30   H2    S    
C52   C54   A    
C23   O14   A    
C54   C59   A    
C10   C21   A    
C45   C58   A    
C48   H19   S    
C45   H1    S    
C39   H10   S    
C32   H4    S    
Cu4   O14   S    
Cu3   N1    S    
C47   C51   A    
C49   C55   A    
C3    C45   A    
C6    C50   A    
C7    C28   S    
C5    C26   S    
C5    C64   A    
C51   C53   A    
C1    O12   A    
C37   C43   A    
C2    H21   S    
C35   C39   A    
C26   O6    A    
C36   H7    S    
C24   H26   S    
C9    C20   A    
C10   H28   S    
C41   H13   S    
C62   H23   S    
C40   H11   S    
C32   C37   A    
C15   H33   S    
C57   C61   A    
C9    C11   A    
Cu1   O1    S    
Cu4   O8    S    
C33   H5    S    
C37   H8    S    
Cu2   O11   S    
C13   C15   A    
C22   H25   S    
C14   C16   A    
C24   N2    A    
C2    C63   A    
C20   N1    A    
C43   C48   A    
C23   C61   S    
C16   H34   S    
C34   O11   A    
C15   C17   A    
C26   O2    A    
C30   N4    A    
C50   C57   A    
Cu2   N4    S    
C44   H16   S    
C10   C13   A    
C53   C58   A    
C14   H32   S    
C38   H9    S    
C22   N1    A    
C46   C50   A    
C3    C7    A    
C33   C38   A    
C56   H12   S    
C56   C59   A    
C11   H29   S    
C35   C57   A    
C9    H27   S    
C47   H18   S    
C17   H35   S    
C7    C51   A    
C38   C40   A    
C17   C19   A    
Cu1   N3    S    
C18   C20   A    
C42   C47   A    
Cu3   O5    S    
C25   O16   A    
C24   C30   A    
Cu1   O2    S    
Cu4   O7    S    
C12   O9    A    
C48   C52   A    
C29   H36   S    
C16   C18   A    
Cu2   O10   S    
C8    C27   S    
Cu1   O9    S    
C31   C36   A    
C29   N3    A    
Cu2   O4    S    
C64   H20   S    
C4    H24   S    
C27   O7    A    
