data_str_m3_o10_o27_f0_pcu.sym.2
_audit_creation_date              2012-12-10T16:57:47-0500
_audit_creation_method            fapswitch 2.2
_symmetry_space_group_name_H-M    P1
_symmetry_Int_Tables_number       1
_space_group_crystal_system       triclinic
_cell_length_a                    7.755425
_cell_length_b                    8.642867
_cell_length_c                    18.60091
_cell_angle_alpha                 90.265918
_cell_angle_beta                  83.704106
_cell_angle_gamma                 93.431314
_cell_volume                      1237.05866319

loop_
_atom_site_label
_atom_site_type_symbol
_atom_type_description
_atom_site_fract_x
_atom_site_fract_y
_atom_site_fract_z
_atom_type_partial_charge
C1    C     C_R   0.544801 0.794312 0.496300 0.956507
C2    C     C_R   0.717168 0.577989 0.174411 0.151163
C3    C     C_R   0.530245 0.677412 0.850775 0.029086
C4    C     C_R   0.585750 0.657791 0.145256 -0.000446
C5    C     C_R   0.657733 0.716605 0.794183 -0.218318
C6    C     C_R   0.427015 0.676759 0.187406 -0.201491
C7    C     C_R   0.645706 0.655854 0.725922 -0.242349
C8    C     C_R   0.397011 0.618494 0.257320 -0.264473
C9    C     C_R   0.503587 0.557184 0.711741 -0.110744
C10   C     C_R   0.519552 0.529904 0.285083 -0.126025
C11   C     C_R   0.599208 0.695734 0.067405 0.294506
C12   C     C_R   0.454925 0.205272 0.503175 0.962014
C13   C     C_R   0.573886 0.708238 0.923822 0.292463
C14   C     C_3   0.198591 0.434273 0.752159 -0.426333
C15   C     C_3   0.054933 0.541966 0.741048 -0.834049
C16   C     C_3   0.781340 0.363618 0.259589 -0.355984
C17   C     C_3   0.950679 0.412096 0.291264 -0.814645
C18   C     C_3   0.256049 0.519729 0.902706 -0.439497
C19   C     C_3   0.311001 0.365480 0.930075 -0.853519
C20   C     C_3   0.904625 0.594733 0.139436 -0.374730
C21   C     C_3   0.962314 0.452806 0.095493 -0.832358
C22   C     C_3   0.685070 0.006272 0.413616 -0.415785
C23   C     C_2   0.559043 0.954638 0.480121 -0.081094
C24   C     C_3   0.677393 0.897011 0.348872 -0.884494
C25   C     C_3   0.311154 0.983197 0.582129 -0.388099
C26   C     C_3   0.259628 0.102349 0.639549 -0.909642
C27   C     C_2   0.438100 0.043536 0.516944 -0.087867
C28   C     C_R   0.499415 0.507182 0.635966 0.846461
C29   C     C_R   0.502258 0.499934 0.363698 0.856766
C30   C     C_R   0.364373 0.525358 0.767466 0.142398
C31   C     C_R   0.675539 0.498204 0.240960 0.140834
C32   C     C_R   0.382278 0.579999 0.838725 0.180710
H1    H     H_    0.094609 0.619688 0.694016 0.263215
H2    H     H_    0.808974 0.289349 0.211472 0.200985
H3    H     H_    0.329214 0.280741 0.885256 0.255331
H4    H     H_    0.434606 0.382974 0.954737 0.277720
H5    H     H_    0.209730 0.315498 0.971626 0.251577
H6    H     H_    0.247007 0.603323 0.947855 0.220843
H7    H     H_    0.120686 0.505700 0.889067 0.223594
H8    H     H_    0.849974 0.383300 0.077374 0.265554
H9    H     H_    0.049595 0.492124 0.047104 0.257303
H10   H     H_    0.036557 0.377313 0.127167 0.244022
H11   H     H_    0.923588 0.698537 0.103796 0.198139
H12   H     H_    0.936100 0.471279 0.730519 0.259234
H13   H     H_    0.993509 0.622615 0.181022 0.199655
H14   H     H_    0.771975 0.788891 0.803816 0.150000
H15   H     H_    0.324931 0.737162 0.166307 0.161161
H16   H     H_    0.748579 0.687839 0.683434 0.162816
H17   H     H_    0.278133 0.644634 0.290101 0.171324
H18   H     H_    0.737005 0.786779 0.358729 0.280283
H19   H     H_    0.540609 0.873257 0.337701 0.263410
H20   H     H_    0.751668 0.951765 0.300137 0.242636
H21   H     H_    0.655434 0.119468 0.392425 0.221510
H22   H     H_    0.819859 0.015748 0.428860 0.222207
H23   H     H_    0.024266 0.614352 0.789599 0.248588
H24   H     H_    0.377768 0.167974 0.654719 0.249848
H25   H     H_    0.166869 0.180612 0.619698 0.284667
H26   H     H_    0.192813 0.042724 0.688584 0.244937
H27   H     H_    0.190795 0.930695 0.562333 0.229021
H28   H     H_    0.372164 0.893468 0.611909 0.218626
H29   H     H_    0.014537 0.377364 0.449388 0.187035
H30   H     H_    0.985517 0.621088 0.551701 0.181262
H31   H     H_    0.219755 0.362874 0.703914 0.224882
H32   H     H_    0.153208 0.348493 0.795189 0.212132
H33   H     H_    0.940989 0.522775 0.321535 0.265270
H34   H     H_    0.981512 0.319734 0.328207 0.230010
H35   H     H_    0.061370 0.424419 0.248386 0.240760
H36   H     H_    0.700759 0.284988 0.298237 0.182782
N1    N     N_R   0.690214 0.619026 0.949625 -0.178389
N2    N     N_R   0.488269 0.791474 0.041014 -0.187604
N3    N     N_R   0.701704 0.612595 0.020015 -0.171034
N4    N     N_R   0.475828 0.797732 0.970237 -0.187780
N5    N     N_2   0.950330 0.457950 0.481240 -0.172403
N6    N     N_2   0.049670 0.542050 0.518760 -0.173008
O1    O     O_R   0.389250 0.738570 0.504600 -0.634669
O2    O     O_R   0.610750 0.261430 0.495400 -0.631516
O3    O     O_R   0.678400 0.711620 0.492580 -0.622462
O4    O     O_R   0.321600 0.288380 0.507420 -0.615431
O5    O     O_R   0.355380 0.513500 0.607880 -0.609475
O6    O     O_R   0.644620 0.486500 0.392120 -0.606865
O7    O     O_R   0.644530 0.486550 0.595850 -0.612102
O8    O     O_R   0.355470 0.513450 0.404150 -0.614011
Zn1   Zn    Zn3+2 0.306930 0.517990 0.508030 0.915826
Zn2   Zn    Zn3+2 0.693070 0.482010 0.491970 0.917618

loop_
_geom_bond_atom_site_label_1
_geom_bond_atom_site_label_2
_ccdc_geom_bond_type
C24   H20   S    
C30   C32   A    
O7    Zn2   S    
C1    O3    A    
N5    N6    D    
N6    Zn1   S    
O6    Zn2   S    
O2    Zn2   S    
C11   N2    A    
C22   H22   S    
C16   C31   S    
C21   H8    S    
C17   H34   S    
C15   H12   S    
C19   H4    S    
C11   N3    A    
C18   C19   S    
N1    N3    A    
C28   O5    A    
C19   H5    S    
C16   H2    S    
C10   C31   A    
C16   C17   S    
C12   O4    A    
C16   H36   S    
C25   H28   S    
C23   C27   D    
N5    Zn2   S    
C20   H13   S    
C3    C13   S    
C24   H19   S    
C14   C30   S    
O4    Zn1   S    
C22   H21   S    
C24   H18   S    
C17   H35   S    
C6    H15   S    
C12   C27   S    
C2    C20   S    
C1    O1    A    
C4    C6    A    
C5    C7    A    
C6    C8    A    
O3    Zn2   S    
H29   N5    S    
C25   C26   S    
C2    C31   A    
C15   H23   S    
C2    C4    A    
C18   H7    S    
C14   H32   S    
C4    C11   S    
C26   H26   S    
C9    C30   A    
C21   H9    S    
C1    C23   S    
C12   O2    A    
C22   C24   S    
C18   C32   S    
C20   H11   S    
C7    C9    A    
C28   O7    A    
C22   C23   S    
C3    C5    A    
C26   H24   S    
C13   N4    A    
C25   C27   S    
C5    H14   S    
C17   H33   S    
C7    H16   S    
C18   H6    S    
C29   O8    A    
C19   H3    S    
O5    Zn1   S    
C10   C29   S    
O1    Zn1   S    
C29   O6    A    
C13   N1    A    
C14   H31   S    
C3    C32   A    
C26   H25   S    
C21   H10   S    
C20   C21   S    
C8    C10   A    
O8    Zn1   S    
C14   C15   S    
H30   N6    S    
N2    N4    A    
C25   H27   S    
C8    H17   S    
C15   H1    S    
C9    C28   S    
