data_str_m3_o14_o22_f0_pcu.sym.76
_audit_creation_date              2012-12-10T17:47:46-0500
_audit_creation_method            fapswitch 2.2
_symmetry_space_group_name_H-M    P1
_symmetry_Int_Tables_number       1
_space_group_crystal_system       triclinic
_cell_length_a                    10.754775
_cell_length_b                    10.72627
_cell_length_c                    9.960921
_cell_angle_alpha                 91.452077
_cell_angle_beta                  91.945128
_cell_angle_gamma                 92.393275
_cell_volume                      1147.00223652

loop_
_atom_site_label
_atom_site_type_symbol
_atom_type_description
_atom_site_fract_x
_atom_site_fract_y
_atom_site_fract_z
_atom_type_partial_charge
C1    C     C_R   0.500225 0.260784 0.498114 0.842741
C2    C     C_R   0.616005 0.079480 0.565783 0.076507
C3    C     C_R   0.515464 0.129899 0.494970 -0.076371
C4    C     C_R   0.258259 0.502464 0.498282 0.853934
C5    C     C_R   0.424482 0.055938 0.426818 -0.230232
C6    C     C_R   0.428911 0.929033 0.432366 -0.192183
C7    C     C_R   0.521095 0.874324 0.510727 -0.101287
C8    C     C_R   0.309421 0.372940 0.133650 -0.150023
C9    C     C_R   0.199105 0.337338 0.064682 -0.265452
C10   C     C_R   0.192930 0.343466 0.926364 -0.223333
C11   C     C_R   0.304318 0.361493 0.858794 0.233815
C12   C     C_3   0.879665 0.506825 0.505086 0.093961
C13   C     C_R   0.403758 0.435761 0.924509 0.148811
C14   C     C_R   0.404769 0.438074 0.068757 0.137379
C15   C     C_R   0.594324 0.554456 0.076461 -0.096419
C16   C     C_R   0.513362 0.739878 0.503318 0.850667
C17   C     C_R   0.595179 0.552290 0.934178 -0.162716
C18   C     C_R   0.742351 0.499977 0.502125 0.835580
C19   C     C_3   0.076845 0.452901 0.629784 -0.441673
C20   C     C_3   0.935527 0.438982 0.630277 -0.028441
C21   C     C_3   0.078632 0.648690 0.482982 0.401879
C22   C     C_3   0.063812 0.424759 0.381325 -0.502541
C23   C     C_3   0.933137 0.645983 0.503823 0.014992
C24   C     C_3   0.122218 0.509460 0.496947 0.109586
C25   C     C_3   0.114775 0.701198 0.343956 -0.857894
C26   C     C_3   0.860307 0.731332 0.408581 -0.920030
C27   C     C_3   0.705743 0.784733 0.742617 -0.919852
C28   C     C_3   0.330485 0.243861 0.780818 -0.801950
C29   C     C_3   0.890523 0.473808 0.772156 -0.925299
C30   C     C_3   0.143895 0.738992 0.590763 -0.944866
C31   C     C_3   0.922526 0.434912 0.377340 -0.445049
C32   C     C_R   0.715428 0.158210 0.618399 -0.191117
C33   C     C_R   0.812731 0.111493 0.693075 -0.223828
C34   C     C_R   0.811024 0.986874 0.721210 -0.110667
C35   C     C_R   0.711901 0.906205 0.674862 0.173843
C36   C     C_R   0.616279 0.949402 0.584566 0.067886
H1    H     H_    0.113920 0.510428 0.717533 0.216868
H2    H     H_    0.100116 0.451181 0.282964 0.213008
H3    H     H_    0.893998 0.482896 0.284253 0.206008
H4    H     H_    0.096008 0.801924 0.337737 0.232956
H5    H     H_    0.215546 0.694209 0.327516 0.246131
H6    H     H_    0.062982 0.652214 0.258804 0.230530
H7    H     H_    0.762410 0.736974 0.437735 0.231989
H8    H     H_    0.900610 0.828311 0.416318 0.249367
H9    H     H_    0.859821 0.697161 0.302626 0.250589
H10   H     H_    0.617791 0.777369 0.797301 0.274135
H11   H     H_    0.715953 0.710325 0.667799 0.265299
H12   H     H_    0.348695 0.096772 0.370999 0.137529
H13   H     H_    0.782204 0.775465 0.819141 0.202111
H14   H     H_    0.357176 0.872815 0.377388 0.157036
H15   H     H_    0.114460 0.358558 0.641505 0.156379
H16   H     H_    0.319873 0.344719 0.235300 0.200486
H17   H     H_    0.112759 0.296862 0.875163 0.150399
H18   H     H_    0.301535 0.252292 0.673815 0.230959
H19   H     H_    0.428296 0.217926 0.799292 0.255584
H20   H     H_    0.275880 0.160892 0.815458 0.202885
H21   H     H_    0.912375 0.338556 0.613764 0.161498
H22   H     H_    0.956794 0.444547 0.851813 0.237015
H23   H     H_    0.718935 0.256752 0.600858 0.151668
H24   H     H_    0.880581 0.575463 0.785756 0.242537
H25   H     H_    0.802221 0.422117 0.793256 0.270920
H26   H     H_    0.122871 0.712471 0.694595 0.226054
H27   H     H_    0.246424 0.743011 0.581095 0.256616
H28   H     H_    0.111337 0.835180 0.578447 0.242015
H29   H     H_    0.087746 0.325895 0.396352 0.168359
H30   H     H_    0.877956 0.339206 0.370362 0.173029
H31   H     H_    0.887602 0.172160 0.735206 0.141957
H32   H     H_    0.885432 0.954724 0.786037 0.133712
H33   H     H_    0.671830 0.599302 0.133551 0.144215
H34   H     H_    0.122699 0.293498 0.116502 0.155642
H35   H     H_    0.675568 0.590578 0.886666 0.157588
H36   H     H_    0.917688 0.686589 0.604969 0.159218
N1    N     N_R   0.498810 0.498800 0.142780 -0.117982
N2    N     N_R   0.498760 0.498720 0.857170 -0.111279
O1    O     O_R   0.500000 0.316780 0.614690 -0.619838
O2    O     O_R   0.499990 0.316750 0.385360 -0.628970
O3    O     O_R   0.314800 0.499990 0.614670 -0.617774
O4    O     O_R   0.314790 0.499970 0.385330 -0.646644
O5    O     O_R   0.500010 0.683250 0.614640 -0.612232
O6    O     O_R   0.500000 0.683220 0.385310 -0.608820
O7    O     O_R   0.685210 0.500030 0.614670 -0.634267
O8    O     O_R   0.685200 0.500010 0.385330 -0.620635
Zn1   Zn    Zn3+2 0.500010 0.500020 0.653130 0.926023
Zn2   Zn    Zn3+2 0.499990 0.499980 0.346870 0.929764

loop_
_geom_bond_atom_site_label_1
_geom_bond_atom_site_label_2
_ccdc_geom_bond_type
C31   H30   S    
C30   H28   S    
C7    C36   A    
C35   C36   A    
N2    Zn1   S    
O6    Zn2   S    
O2    Zn2   S    
C28   H20   S    
C26   H8    S    
C12   C23   S    
C25   H4    S    
C5    C6    A    
C4    C24   S    
O3    Zn1   S    
C2    C36   A    
C22   H2    S    
C18   O7    A    
C2    C32   A    
C34   C35   A    
C23   C26   S    
C10   H17   S    
C19   H1    S    
C26   H9    S    
C19   C20   S    
C8    C9    A    
C9    C10   A    
C8    H16   S    
N1    Zn2   S    
C13   C14   A    
O7    Zn1   S    
C28   H19   S    
C26   H7    S    
C20   C29   S    
C15   H33   S    
C5    H12   S    
C29   H25   S    
C22   C31   S    
C1    O1    A    
C14   N1    A    
C9    H34   S    
C34   H32   S    
C28   H18   S    
C27   C35   S    
C1    C3    S    
C22   H29   S    
C4    O4    A    
C19   H15   S    
C29   H24   S    
C12   C20   S    
C33   C34   A    
C6    H14   S    
C27   H10   S    
C7    C16   S    
C15   N1    A    
C17   H35   S    
O8    Zn2   S    
C30   H26   S    
C12   C31   S    
C17   N2    A    
C22   C24   S    
C25   H5    S    
C29   H22   S    
C33   H31   S    
C27   H11   S    
C15   C17   A    
C21   C25   S    
C8    C14   A    
C1    O2    A    
C23   H36   S    
C3    C5    A    
C25   H6    S    
C6    C7    A    
C21   C30   S    
C16   O5    A    
C32   C33   A    
C21   C23   S    
C2    C3    A    
C4    O3    A    
O5    Zn1   S    
C11   C13   A    
O1    Zn1   S    
C11   C28   S    
C18   O8    A    
C31   H3    S    
C19   C24   S    
C10   C11   A    
O4    Zn2   S    
C13   N2    A    
C21   C24   S    
C12   C18   S    
C32   H23   S    
C16   O6    A    
C20   H21   S    
C30   H27   S    
C27   H13   S    
