data_str_m3_o40_o40_f0_fof.sym.79
_audit_creation_date              2012-12-10T16:37:27-0500
_audit_creation_method            fapswitch 2.2
_symmetry_space_group_name_H-M    P1
_symmetry_Int_Tables_number       1
_space_group_crystal_system       triclinic
_cell_length_a                    16.622921
_cell_length_b                    16.940095
_cell_length_c                    16.939299
_cell_angle_alpha                 65.773968
_cell_angle_beta                  65.490766
_cell_angle_gamma                 65.488613
_cell_volume                      3782.02523091

loop_
_atom_site_label
_atom_site_type_symbol
_atom_type_description
_atom_site_fract_x
_atom_site_fract_y
_atom_site_fract_z
_atom_type_partial_charge
C1    C     C_R   0.463132 0.932964 0.689743 -0.212514
C2    C     C_R   0.463083 0.689725 0.933038 -0.212561
C3    C     C_R   0.914389 0.606120 0.343465 -0.209705
C4    C     C_R   0.926893 0.444978 0.704163 -0.226693
C5    C     C_R   0.960486 0.179587 0.438075 0.897906
C6    C     C_R   0.021320 0.823473 0.567867 0.909384
C7    C     C_R   0.179623 0.440057 0.957617 0.918905
C8    C     C_R   0.820366 0.560050 0.042157 0.881748
C9    C     C_R   0.431047 0.976241 0.177676 0.912363
C10   C     C_R   0.568960 0.023723 0.822327 0.911860
C11   C     C_R   0.568962 0.822328 0.023722 0.911833
C12   C     C_R   0.537193 0.066346 0.310420 -0.214644
C13   C     C_R   0.431048 0.177674 0.976244 0.912381
C14   C     C_R   0.021304 0.567874 0.823477 0.909411
C15   C     C_R   0.960483 0.438077 0.179586 0.897864
C16   C     C_R   0.820362 0.042156 0.560049 0.881780
C17   C     C_R   0.179623 0.957600 0.440065 0.918902
C18   C     C_R   0.507622 0.949510 0.732101 -0.173994
C19   C     C_R   0.492479 0.050134 0.268041 -0.174020
C20   C     C_R   0.944949 0.746000 0.488688 -0.166423
C21   C     C_R   0.911318 0.296101 0.557666 -0.177885
C22   C     C_R   0.696232 0.444695 0.087645 -0.176148
C23   C     C_R   0.927014 0.704134 0.444888 -0.226717
C24   C     C_R   0.304094 0.555344 0.911721 -0.169659
C25   C     C_R   0.304156 0.911571 0.555366 -0.169696
C26   C     C_R   0.696224 0.087594 0.444696 -0.176155
C27   C     C_R   0.492561 0.268016 0.050105 -0.174051
C28   C     C_R   0.507578 0.732088 0.949562 -0.174007
C29   C     C_R   0.911241 0.557665 0.296113 -0.177883
C30   C     C_R   0.944830 0.488782 0.746023 -0.166422
C31   C     C_R   0.548092 0.012438 0.544038 0.026481
C32   C     C_R   0.452397 0.986606 0.456078 0.026054
C33   C     C_R   0.947604 0.565319 0.565303 0.033074
C34   C     C_R   0.914480 0.343453 0.606118 -0.209728
C35   C     C_R   0.924009 0.472957 0.472955 0.025200
C36   C     C_R   0.548091 0.544024 0.012483 0.026457
C37   C     C_R   0.452411 0.456053 0.986650 0.026040
C38   C     C_R   0.572639 0.041370 0.448375 0.043850
C39   C     C_R   0.427939 0.957531 0.551742 0.042987
C40   C     C_R   0.933910 0.478848 0.611456 0.049974
C41   C     C_R   0.923908 0.564689 0.431456 0.045995
C42   C     C_R   0.477961 0.595620 0.968325 0.050404
C43   C     C_R   0.522566 0.404463 0.030780 0.049894
C44   C     C_R   0.522525 0.030762 0.404489 0.049876
C45   C     C_R   0.648139 0.400027 0.078211 -0.217176
C46   C     C_R   0.477990 0.968249 0.595639 0.050382
C47   C     C_R   0.427906 0.551719 0.957628 0.043009
C48   C     C_R   0.572660 0.448354 0.041410 0.043841
C49   C     C_R   0.923924 0.431466 0.564689 0.045999
C50   C     C_R   0.933941 0.611451 0.478812 0.049992
C51   C     C_R   0.568502 0.002842 0.683713 0.023238
C52   C     C_R   0.431644 0.996759 0.316376 0.024658
C53   C     C_R   0.978998 0.696125 0.564876 0.034516
C54   C     C_R   0.923157 0.331311 0.463739 0.037848
C55   C     C_R   0.670590 0.539455 0.061984 0.052017
C56   C     C_R   0.352405 0.600028 0.920850 -0.211474
C57   C     C_R   0.329617 0.460594 0.937550 0.051800
C58   C     C_R   0.329627 0.937483 0.460613 0.051839
C59   C     C_R   0.670585 0.061958 0.539454 0.052056
C60   C     C_R   0.431682 0.316358 0.996763 0.024702
C61   C     C_R   0.568488 0.683709 0.002870 0.023271
C62   C     C_R   0.923132 0.463737 0.331317 0.037849
C63   C     C_R   0.978946 0.564922 0.696128 0.034454
C64   C     C_R   0.604704 0.033090 0.726139 -0.149229
C65   C     C_R   0.395318 0.966753 0.273878 -0.145979
C66   C     C_R   0.017156 0.730753 0.602576 -0.145015
C67   C     C_R   0.352497 0.920668 0.600047 -0.211460
C68   C     C_R   0.929668 0.280064 0.410597 -0.181732
C69   C     C_R   0.719114 0.587507 0.068981 -0.192813
C70   C     C_R   0.280929 0.412519 0.930805 -0.204532
C71   C     C_R   0.280929 0.930764 0.412529 -0.204596
C72   C     C_R   0.719107 0.068971 0.587503 -0.192813
C73   C     C_R   0.395333 0.273872 0.966762 -0.145980
C74   C     C_R   0.604704 0.726140 0.033098 -0.149254
C75   C     C_R   0.929658 0.410597 0.280065 -0.181743
C76   C     C_R   0.017124 0.602599 0.730757 -0.144988
C77   C     C_R   0.673553 0.075808 0.674466 0.027728
C78   C     C_R   0.648125 0.078150 0.400039 -0.217222
C79   C     C_R   0.326417 0.924096 0.325490 0.023654
C80   C     C_R   0.051204 0.675282 0.675284 0.001169
C81   C     C_R   0.915360 0.325455 0.325455 0.041923
C82   C     C_R   0.673565 0.674472 0.075808 0.027745
C83   C     C_R   0.326422 0.325491 0.924114 0.023592
C84   C     C_R   0.594644 0.027113 0.588800 0.075409
C85   C     C_R   0.405658 0.972216 0.411292 0.077686
C86   C     C_R   0.971389 0.607511 0.607492 0.066627
C87   C     C_R   0.923013 0.422774 0.422776 0.079143
C88   C     C_R   0.594642 0.588796 0.027143 0.075402
C89   C     C_R   0.537280 0.310388 0.066319 -0.214652
C90   C     C_R   0.405674 0.411272 0.972251 0.077667
H1    H     H_    0.418346 0.890783 0.733018 0.130184
H2    H     H_    0.418287 0.732993 0.890862 0.130191
H3    H     H_    0.909426 0.676514 0.308411 0.138172
H4    H     H_    0.904790 0.385677 0.747554 0.138331
H5    H     H_    0.494081 0.917898 0.803270 0.159140
H6    H     H_    0.505737 0.082100 0.196918 0.159229
H7    H     H_    0.928803 0.818248 0.460438 0.192549
H8    H     H_    0.895470 0.232923 0.597061 0.168389
H9    H     H_    0.751764 0.404208 0.118297 0.151579
H10   H     H_    0.248468 0.595806 0.881172 0.157215
H11   H     H_    0.248565 0.880985 0.595813 0.157121
H12   H     H_    0.581888 0.108630 0.267219 0.130201
H13   H     H_    0.751759 0.118238 0.404184 0.151588
H14   H     H_    0.505863 0.196887 0.082043 0.159276
H15   H     H_    0.494010 0.803257 0.917950 0.159162
H16   H     H_    0.895354 0.597045 0.232946 0.168338
H17   H     H_    0.928652 0.460578 0.818276 0.192535
H18   H     H_    0.744761 0.157672 0.660149 0.170027
H19   H     H_    0.640793 0.171242 0.733918 0.176109
H20   H     H_    0.359078 0.828867 0.265831 0.175968
H21   H     H_    0.255129 0.842407 0.339633 0.180725
H22   H     H_    0.159962 0.723725 0.635391 0.162255
H23   H     H_    0.905000 0.747507 0.385533 0.138314
H24   H     H_    0.160011 0.635346 0.723662 0.162232
H25   H     H_    0.842187 0.336624 0.248549 0.162807
H26   H     H_    0.842185 0.248557 0.336621 0.162806
H27   H     H_    0.640815 0.733971 0.171210 0.176121
H28   H     H_    0.744769 0.660139 0.157687 0.169987
H29   H     H_    0.255134 0.339662 0.842401 0.180719
H30   H     H_    0.359080 0.265842 0.828875 0.175965
H31   H     H_    0.909625 0.308368 0.676498 0.138184
H32   H     H_    0.673496 0.327163 0.098682 0.133946
H33   H     H_    0.327145 0.672899 0.900223 0.135154
H34   H     H_    0.327333 0.899919 0.672907 0.135170
H35   H     H_    0.673498 0.098577 0.327176 0.133964
H36   H     H_    0.582023 0.267174 0.108562 0.130168
N1    N     N_3   0.700063 0.121223 0.711484 -0.397569
N2    N     N_3   0.299834 0.878868 0.288347 -0.394357
N3    N     N_3   0.114958 0.696127 0.696155 -0.401611
N4    N     N_3   0.886762 0.285050 0.285047 -0.389980
N5    N     N_3   0.700092 0.711493 0.121206 -0.397516
N6    N     N_3   0.299834 0.288364 0.878874 -0.394340
O1    O     O_R   0.982940 0.138950 0.510160 -0.636588
O2    O     O_R   0.982940 0.510160 0.138950 -0.636548
O3    O     O_R   0.861050 0.017060 0.489840 -0.644076
O4    O     O_R   0.138950 0.982940 0.510160 -0.623045
O5    O     O_R   0.867700 0.025880 0.612340 -0.606371
O6    O     O_R   0.132300 0.974120 0.387660 -0.592114
O7    O     O_R   0.025880 0.612340 0.867700 -0.603470
O8    O     O_R   0.974120 0.387660 0.132300 -0.598446
O9    O     O_R   0.612340 0.867700 0.025880 -0.595813
O10   O     O_R   0.387660 0.132300 0.974120 -0.593998
O11   O     O_R   0.387660 0.974120 0.132300 -0.594001
O12   O     O_R   0.017060 0.861050 0.489840 -0.662627
O13   O     O_R   0.612340 0.025880 0.867700 -0.595796
O14   O     O_R   0.132300 0.387660 0.974120 -0.592095
O15   O     O_R   0.867700 0.612340 0.025880 -0.606373
O16   O     O_R   0.974120 0.132300 0.387660 -0.598442
O17   O     O_R   0.025880 0.867700 0.612340 -0.603504
O18   O     O_R   0.138950 0.510160 0.982940 -0.623106
O19   O     O_R   0.861050 0.489840 0.017060 -0.644092
O20   O     O_R   0.510160 0.982940 0.138950 -0.654501
O21   O     O_R   0.489840 0.017060 0.861050 -0.653060
O22   O     O_R   0.489840 0.861050 0.017060 -0.653070
O23   O     O_R   0.510160 0.138950 0.982940 -0.654526
O24   O     O_R   0.017060 0.489840 0.861050 -0.662592
Zn1   Zn    Zn3+2 0.004880 0.004880 0.583590 0.956654
Zn2   Zn    Zn3+2 0.995120 0.995120 0.416410 0.944893
Zn3   Zn    Zn3+2 0.004880 0.583590 0.004880 0.956644
Zn4   Zn    Zn3+2 0.995120 0.416410 0.995120 0.944916
Zn5   Zn    Zn3+2 0.583590 0.004880 0.004880 0.954942
Zn6   Zn    Zn3+2 0.416410 0.995120 0.995120 0.961483

loop_
_geom_bond_atom_site_label_1
_geom_bond_atom_site_label_2
_ccdc_geom_bond_type
C15   C75   S    
C79   N2    S    
C9    O20   A    
O9    Zn5   S    
C65   C79   A    
C30   H17   S    
C64   C77   A    
C60   C73   A    
C36   C42   A    
C16   O5    A    
C16   C72   S    
O15   Zn3   S    
C67   H34   S    
C7    C70   S    
C71   C79   A    
C9    O11   A    
C15   O2    A    
O23   Zn5   S    
C5    O1    A    
C1    C18   A    
C26   C78   A    
C37   C90   A    
C68   C81   A    
C52   C85   A    
C27   C60   A    
C54   C87   A    
C12   H12   S    
C58   C71   A    
O14   Zn4   S    
C63   C76   A    
C40   C49   A    
C80   N3    S    
C27   H14   S    
C32   C39   A    
C55   C88   A    
C3    C29   A    
C13   O23   A    
H28   N5    S    
C11   O22   A    
C6    O17   A    
C35   C87   A    
C19   C52   A    
H19   N1    S    
C20   H7    S    
C4    C40   A    
C24   C57   A    
C31   C46   A    
C25   C67   A    
C35   C49   A    
C36   C48   A    
C53   C86   A    
C69   C82   A    
C57   C70   A    
C37   C47   A    
C43   C48   A    
O11   Zn6   S    
O20   Zn5   S    
C77   N1    S    
C59   C72   A    
C7    O14   A    
C28   C61   A    
O2    Zn3   S    
O7    Zn3   S    
C1    H1    S    
C5    O16   A    
C24   H10   S    
C30   C63   A    
C18   H5    S    
C74   C82   A    
C5    C68   S    
C35   C41   A    
C10   O21   A    
C18   C51   A    
C89   H36   S    
C32   C44   A    
C33   C40   A    
C57   C90   A    
C56   H33   S    
O24   Zn4   S    
C8    O19   A    
C59   C84   A    
O18   Zn3   S    
C75   C81   A    
C23   C50   A    
C21   C34   A    
C38   C78   A    
C33   C50   A    
C36   C88   A    
C31   C84   A    
C14   C76   S    
C37   C43   A    
C33   C86   A    
C38   C44   A    
C72   C77   A    
C70   C83   A    
C61   C88   A    
C26   H13   S    
C23   H23   S    
C7    O18   A    
O6    Zn2   S    
C20   C23   A    
C28   H15   S    
C6    O12   A    
C17   O4    A    
H29   N6    S    
C8    C69   S    
H26   N4    S    
C3    H3    S    
O16   Zn2   S    
C13   O10   A    
C2    H2    S    
C53   C66   A    
C11   O9    A    
C17   O6    A    
C39   C46   A    
C4    H4    S    
O4    Zn1   S    
C13   C73   S    
C17   C71   S    
C34   H31   S    
C63   C86   A    
H22   N3    S    
H24   N3    S    
C29   H16   S    
C8    O15   A    
C25   C58   A    
C62   C75   A    
O12   Zn2   S    
C58   C85   A    
C41   C50   A    
C15   O8    A    
C26   C59   A    
C45   C48   A    
C29   C62   A    
C3    C41   A    
C34   C49   A    
C22   H9    S    
C14   O24   A    
H30   N6    S    
C39   C67   A    
O22   Zn6   S    
C10   C64   S    
C51   C64   A    
C76   C80   A    
C20   C53   A    
C11   C74   S    
O10   Zn6   S    
C22   C55   A    
C60   C90   A    
C45   H32   S    
C24   C56   A    
C66   C80   A    
C62   C87   A    
C31   C38   A    
O5    Zn1   S    
O21   Zn6   S    
O19   Zn4   S    
C55   C69   A    
C83   N6    S    
C12   C44   A    
O8    Zn4   S    
C21   H8    S    
C78   H35   S    
C25   H11   S    
C81   N4    S    
C21   C54   A    
O13   Zn5   S    
C2    C42   A    
C32   C85   A    
C12   C19   A    
C1    C46   A    
C27   C89   A    
O1    Zn1   S    
C42   C47   A    
C43   C89   A    
H18   N1    S    
H27   N5    S    
C9    C65   S    
C19   H6    S    
C10   O13   A    
C6    C66   S    
C22   C45   A    
C54   C68   A    
C14   O7    A    
H21   N2    S    
O3    Zn2   S    
C2    C28   A    
C82   N5    S    
C16   O3    A    
O17   Zn1   S    
C51   C84   A    
C73   C83   A    
C4    C30   A    
C52   C65   A    
C61   C74   A    
H20   N2    S    
C47   C56   A    
H25   N4    S    
