data_str_m2_o1_o13_f0_pcu.sym.119
_audit_creation_date              2012-12-10T17:56:17-0500
_audit_creation_method            fapswitch 2.2
_symmetry_space_group_name_H-M    P1
_symmetry_Int_Tables_number       1
_space_group_crystal_system       triclinic
_cell_length_a                    13.013869
_cell_length_b                    10.822718
_cell_length_c                    9.587143
_cell_angle_alpha                 91.025702
_cell_angle_beta                  97.1439
_cell_angle_gamma                 92.267649
_cell_volume                      1338.41888805

loop_
_atom_site_label
_atom_site_type_symbol
_atom_type_description
_atom_site_fract_x
_atom_site_fract_y
_atom_site_fract_z
_atom_type_partial_charge
C1    C     C_R   0.498622 0.262198 0.499096 0.861305
C2    C     C_R   0.499599 0.737701 0.500631 0.847488
C3    C     C_R   0.497980 0.871556 0.500476 -0.027303
C4    C     C_R   0.496646 0.128100 0.498619 -0.022591
C5    C     C_R   0.435156 0.418524 0.057131 0.500151
C6    C     C_R   0.564757 0.581568 0.942854 0.511071
C7    C     C_R   0.437156 0.420009 0.910198 -0.068401
C8    C     C_R   0.563044 0.579762 0.089838 -0.059109
C9    C     C_R   0.300997 0.507523 0.473106 0.880390
C10   C     C_R   0.699274 0.493698 0.526873 0.901583
C11   C     C_R   0.812762 0.489642 0.543493 -0.174873
C12   C     C_R   0.187978 0.515510 0.455935 -0.156989
C13   C     C_R   0.024974 0.450853 0.321932 -0.077799
C14   C     C_R   0.975285 0.560503 0.675500 -0.111248
C15   C     C_R   0.131512 0.466745 0.332514 -0.196790
C16   C     C_R   0.868857 0.541434 0.665733 -0.187051
C17   C     C_R   0.135220 0.564754 0.563573 0.301156
C18   C     C_R   0.866160 0.442852 0.435258 0.380394
C19   C     C_R   0.028047 0.535134 0.559770 -0.005673
C20   C     C_R   0.972699 0.475041 0.438362 -0.002897
C21   C     C_R   0.503154 0.061737 0.373790 -0.120583
C22   C     C_R   0.489276 0.937703 0.624797 -0.053963
C23   C     C_R   0.504308 0.934107 0.374713 -0.165749
C24   C     C_R   0.488932 0.065479 0.624065 -0.163158
Cu1   Cu    Cu3+1 0.500000 0.500020 0.640660 1.084101
Cu2   Cu    Cu3+1 0.500000 0.499980 0.359340 1.078521
H1    H     H_    0.830345 0.569296 0.754085 0.243756
H2    H     H_    0.169818 0.438211 0.244184 0.239787
H3    H     H_    0.984818 0.417512 0.222152 0.222216
H4    H     H_    0.014867 0.596047 0.774571 0.202473
H5    H     H_    0.508938 0.108240 0.275984 0.209105
H6    H     H_    0.482300 0.890976 0.722207 0.223364
H7    H     H_    0.510676 0.884804 0.277023 0.187222
H8    H     H_    0.482637 0.114885 0.721713 0.184016
H9    H     H_    0.387548 0.356434 0.840937 0.195142
H10   H     H_    0.612549 0.643423 0.159110 0.195716
N1    N     N_R   0.500030 0.500030 0.852080 -0.256844
N2    N     N_R   0.499970 0.499970 0.147920 -0.262285
O1    O     O_R   0.499990 0.319660 0.618740 -0.618175
O2    O     O_R   0.500010 0.680340 0.381260 -0.619269
O3    O     O_R   0.499990 0.319630 0.381170 -0.512912
O4    O     O_R   0.500010 0.680370 0.618830 -0.507510
O5    O     O_R   0.349000 0.499990 0.599490 -0.546122
O6    O     O_R   0.651000 0.500010 0.400510 -0.540134
O7    O     O_R   0.348990 0.499960 0.361920 -0.550447
O8    O     O_R   0.651010 0.500040 0.638080 -0.551828
S1    S     S_3+6 0.804481 0.330201 0.310355 0.015757
O9    O     O_2   0.760978 0.393608 0.179133 -0.275615
O10   O     O_2   0.880771 0.237667 0.273927 -0.273074
O11   O     O_3   0.708657 0.252571 0.377735 -0.552440
H11   H     H_    0.692845 0.178555 0.315392 0.374947
S2    S     S_3+6 0.199598 0.675543 0.689211 0.036874
O12   O     O_2   0.286323 0.742228 0.628048 -0.278599
O13   O     O_2   0.126240 0.770620 0.727924 -0.242727
O14   O     O_3   0.248858 0.603757 0.835197 -0.494846
H12   H     H_    0.195020 0.540663 0.852648 0.342440
S3    S     S_3+6 0.344457 0.301427 0.101375 0.002357
O15   O     O_2   0.325044 0.290729 0.251115 -0.287856
O16   O     O_2   0.242401 0.322291 0.014680 -0.326158
O17   O     O_3   0.386351 0.165249 0.048755 -0.564409
H13   H     H_    0.327608 0.105015 0.053368 0.396928
S4    S     S_3+6 0.654029 0.700144 0.898305 0.009951
O18   O     O_2   0.755879 0.682636 0.987086 -0.299099
O19   O     O_2   0.674709 0.709460 0.748950 -0.297015
O20   O     O_3   0.609142 0.835740 0.947509 -0.565850
H14   H     H_    0.666899 0.897278 0.942505 0.389185

loop_
_geom_bond_atom_site_label_1
_geom_bond_atom_site_label_2
_ccdc_geom_bond_type
Cu1   O4    S    
C10   O8    A    
S4    O19   D    
O14   H12   S    
S2    O14   S    
C11   C18   A    
C9    O7    A    
S4    O18   D    
C11   C16   A    
C3    C23   A    
C19   C20   A    
S4    O20   S    
C12   C15   A    
C5    S3    S    
C6    S4    S    
C1    C4    S    
C18   S1    S    
Cu1   O5    S    
C16   H1    S    
C13   C15   A    
C2    C3    S    
C7    N1    A    
C6    N1    A    
Cu2   O6    S    
S1    O10   D    
C5    N2    A    
Cu1   O1    S    
C12   C17   A    
C4    C21   A    
C21   H5    S    
Cu2   O7    S    
Cu2   O2    S    
S3    O15   D    
C22   H6    S    
C8    N2    A    
C2    O4    A    
C14   C19   A    
C17   S2    S    
C1    O3    A    
C17   C19   A    
C14   H4    S    
O11   H11   S    
S1    O11   S    
C18   C20   A    
C21   C23   A    
C4    C24   A    
C9    C12   S    
C14   C16   A    
C9    O5    A    
S3    O16   D    
C10   C11   S    
C1    O1    A    
C15   H2    S    
C2    O2    A    
C7    H9    S    
S2    O12   D    
C23   H7    S    
O20   H14   S    
C8    H10   S    
C22   C24   A    
C13   H3    S    
C5    C7    A    
Cu2   N2    S    
C3    C22   A    
C6    C8    A    
C13   C20   A    
Cu1   N1    S    
Cu1   Cu2   S    
C10   O6    A    
Cu1   O8    S    
C24   H8    S    
S1    O9    D    
Cu2   O3    S    
S2    O13   D    
O17   H13   S    
S3    O17   S    
