data_str_m3_o1_o10_f0_pcu.sym.113
_audit_creation_date              2012-12-10T18:42:28-0500
_audit_creation_method            fapswitch 2.2
_symmetry_space_group_name_H-M    P1
_symmetry_Int_Tables_number       1
_space_group_crystal_system       triclinic
_cell_length_a                    8.811811
_cell_length_b                    10.642796
_cell_length_c                    9.931378
_cell_angle_alpha                 91.115617
_cell_angle_beta                  99.628049
_cell_angle_gamma                 92.039119
_cell_volume                      917.381304977

loop_
_atom_site_label
_atom_site_type_symbol
_atom_type_description
_atom_site_fract_x
_atom_site_fract_y
_atom_site_fract_z
_atom_type_partial_charge
C1    C     C_R   0.504877 0.260723 0.499847 0.934210
C2    C     C_R   0.495123 0.739277 0.500153 0.934211
C3    C     C_R   0.201992 0.500392 0.464202 0.934675
C4    C     C_R   0.798008 0.499608 0.535798 0.934676
C5    C     C_2   0.038010 0.501697 0.444945 -0.288650
C6    C     C_2   0.961990 0.498303 0.555055 -0.288650
C7    C     C_R   0.614512 0.062743 0.438497 -0.035911
C8    C     C_R   0.385488 0.937257 0.561503 -0.035911
C9    C     C_R   0.604400 0.933321 0.438013 -0.189081
C10   C     C_R   0.395599 0.066679 0.561987 -0.189081
C11   C     C_R   0.492903 0.871826 0.500075 -0.088471
C12   C     C_R   0.507097 0.128174 0.499925 -0.088471
C13   C     C_R   0.596173 0.578995 0.090413 -0.215921
C14   C     C_R   0.403827 0.421005 0.909587 -0.215921
C15   C     C_R   0.599784 0.579502 0.948381 0.462979
C16   C     C_R   0.400216 0.420498 0.051618 0.462979
H1    H     H_    0.687286 0.879645 0.393832 0.189081
H2    H     H_    0.312714 0.120355 0.606168 0.189081
H3    H     H_    0.674170 0.639444 0.161082 0.224599
H4    H     H_    0.325830 0.360556 0.838918 0.224599
N1    N     N_R   0.499960 0.499970 0.857200 -0.172325
N2    N     N_R   0.500040 0.500030 0.142800 -0.172325
O1    O     O_R   0.499990 0.316750 0.614620 -0.629239
O2    O     O_R   0.500010 0.683250 0.385380 -0.629238
O3    O     O_R   0.499990 0.316780 0.385290 -0.545996
O4    O     O_R   0.500010 0.683220 0.614710 -0.545996
O5    O     O_R   0.271750 0.499990 0.587840 -0.617704
O6    O     O_R   0.728250 0.500010 0.412160 -0.617704
O7    O     O_R   0.271750 0.500010 0.358510 -0.553677
O8    O     O_R   0.728250 0.499990 0.641490 -0.553677
Zn1   Zn    Zn3+2 0.500000 0.499980 0.653120 1.075409
Zn2   Zn    Zn3+2 0.500000 0.500020 0.346880 1.075409
C17   C     C_2   0.963607 0.504580 0.299237 1.054572
O9    O     O_2   0.975630 0.599995 0.234707 -0.542015
O10   O     O_R   0.884073 0.397185 0.236278 -0.742151
H5    H     H_    0.836522 0.410532 0.137752 0.367132
C18   C     C_2   0.036393 0.495420 0.700763 1.054572
O11   O     O_2   0.024370 0.400005 0.765293 -0.542015
O12   O     O_R   0.115927 0.602815 0.763722 -0.742150
H6    H     H_    0.163478 0.589468 0.862248 0.367132
C19   C     C_2   0.742697 0.124728 0.381779 0.952367
O13   O     O_2   0.805174 0.222110 0.434325 -0.620799
O14   O     O_R   0.796429 0.068401 0.271287 -0.744308
H7    H     H_    0.885136 0.118519 0.242605 0.371724
C20   C     C_2   0.257303 0.875271 0.618221 0.952367
O15   O     O_2   0.194826 0.777890 0.565675 -0.620799
O16   O     O_R   0.203571 0.931599 0.728713 -0.744307
H8    H     H_    0.114864 0.881480 0.757395 0.371724
S1    S     S_3+6 0.760229 0.670471 0.909968 0.085156
O17   O     O_2   0.788187 0.782478 0.006866 -0.250378
O18   O     O_2   0.896321 0.589001 0.939744 -0.252524
O19   O     O_3   0.752892 0.725426 0.752566 -0.538567
H9    H     H_    0.855689 0.765909 0.751889 0.375810
S2    S     S_3+6 0.239771 0.329529 0.090032 0.085156
O20   O     O_2   0.103679 0.411000 0.060256 -0.252524
O21   O     O_2   0.211812 0.217523 0.993134 -0.250377
O22   O     O_3   0.247108 0.274574 0.247434 -0.538566
H10   H     H_    0.144310 0.234092 0.248112 0.375810

loop_
_geom_bond_atom_site_label_1
_geom_bond_atom_site_label_2
_ccdc_geom_bond_type
O14   H7    S    
O2    Zn2   S    
S2    O21   D    
C18   O11   D    
C9    C11   A    
C19   O13   D    
C19   O14   S    
O10   H5    S    
C13   C15   A    
C15   N1    A    
O8    Zn1   S    
S1    O19   S    
C7    C9    A    
O3    Zn2   S    
C3    O5    A    
C17   O9    D    
C6    C18   S    
O4    Zn1   S    
C2    O4    A    
C20   O15   D    
C1    O3    A    
N1    Zn1   S    
O22   H10   S    
C5    C6    D    
C1    C12   S    
N2    Zn2   S    
C10   H2    S    
C8    C11   A    
C2    C11   S    
C10   C12   A    
C14   N1    A    
C8    C10   A    
C17   O10   S    
C13   N2    A    
C1    O1    A    
O7    Zn2   S    
C16   S2    S    
C15   S1    S    
C2    O2    A    
C7    C12   A    
C18   O12   S    
C14   C16   A    
C13   H3    S    
O5    Zn1   S    
C14   H4    S    
O6    Zn2   S    
O19   H9    S    
C4    C6    S    
S1    O17   D    
C20   O16   S    
C9    H1    S    
O12   H6    S    
C3    O7    A    
S1    O18   D    
S2    O20   D    
C16   N2    A    
C4    O6    A    
C8    C20   S    
C4    O8    A    
O16   H8    S    
C7    C19   S    
C5    C17   S    
C3    C5    S    
S2    O22   S    
O1    Zn1   S    
