data_str_m2_o13_o14_f0_pcu.sym.24
_audit_creation_date              2012-10-26T19:03:26-0400
_audit_creation_method            fapswitch 2.2
_symmetry_space_group_name_H-M    P1
_symmetry_Int_Tables_number       1
_space_group_crystal_system       triclinic
_cell_length_a                    10.764743
_cell_length_b                    12.997732
_cell_length_c                    11.790699
_cell_angle_alpha                 99.766528
_cell_angle_beta                  92.941274
_cell_angle_gamma                 93.07772
_cell_volume                      1620.40511941

loop_
_atom_site_label
_atom_site_type_symbol
_atom_type_description
_atom_site_fract_x
_atom_site_fract_y
_atom_site_fract_z
_atom_type_partial_charge
C1    C     C_R   0.500120 0.299631 0.478696 0.529114
C2    C     C_R   0.479884 0.123976 0.357975 -0.132688
C3    C     C_R   0.518045 0.140842 0.565009 -0.124320
C4    C     C_R   0.262776 0.497780 0.500693 0.534164
C5    C     C_R   0.507947 0.032265 0.556815 0.004022
C6    C     C_R   0.478713 0.969370 0.446879 0.032604
C7    C     C_R   0.463462 0.860373 0.437240 0.204794
C8    C     C_R   0.527868 0.876279 0.640776 -0.164080
C9    C     C_R   0.528332 0.984817 0.655053 -0.025238
C10   C     C_R   0.359170 0.422308 0.025574 0.239194
C11   C     C_R   0.375422 0.426548 0.146468 0.360280
C12   C     C_R   0.074523 0.593394 0.547711 -0.016303
C13   C     C_R   0.561390 0.536294 0.153819 0.098298
C14   C     C_R   0.542817 0.540456 0.032623 -0.122327
C15   C     C_R   0.449193 0.472284 0.966962 -0.029007
C16   C     C_R   0.499728 0.700571 0.521173 0.542496
C17   C     C_R   0.446176 0.458631 0.843563 0.379083
C18   C     C_R   0.603403 0.595151 0.851010 0.352898
C19   C     C_R   0.615327 0.608536 0.973352 -0.066073
C20   C     C_R   0.736911 0.502174 0.499705 0.514798
C21   C     C_R   0.147629 0.687027 0.590345 -0.124640
C22   C     C_R   0.092246 0.778959 0.633160 -0.120612
C23   C     C_R   0.128850 0.499513 0.503282 -0.029554
C24   C     C_R   0.962257 0.780169 0.634370 0.249381
C25   C     C_R   0.889146 0.688490 0.591809 -0.024730
C26   C     C_R   0.943777 0.594279 0.547716 -0.052675
C27   C     C_R   0.109764 0.304808 0.426623 0.077818
C28   C     C_R   0.163803 0.255487 0.512409 -0.082117
C29   C     C_R   0.195596 0.151656 0.485566 -0.105272
C30   C     C_R   0.175288 0.096969 0.372797 -0.102441
C31   C     C_R   0.124492 0.146347 0.286375 -0.118804
C32   C     C_R   0.090699 0.249610 0.313241 -0.017605
C33   C     C_R   0.550050 0.045035 0.773757 0.025653
C34   C     C_R   0.054870 0.407154 0.459600 0.005538
C35   C     C_R   0.455358 0.103094 0.825756 -0.110566
C36   C     C_R   0.473481 0.155446 0.939779 -0.126680
C37   C     C_R   0.585967 0.150287 0.002598 -0.112346
C38   C     C_R   0.680282 0.092087 0.951732 -0.110545
C39   C     C_R   0.662319 0.039135 0.837939 -0.090192
C40   C     C_R   0.690807 0.702228 0.034331 0.008323
C41   C     C_R   0.821281 0.707863 0.030187 -0.072324
C42   C     C_R   0.891183 0.800458 0.077229 -0.102297
C43   C     C_R   0.831422 0.888231 0.127361 -0.109127
C44   C     C_R   0.701594 0.883798 0.129904 -0.111189
C45   C     C_R   0.925360 0.408257 0.456983 0.216880
C46   C     C_R   0.631189 0.791403 0.082879 -0.104782
C47   C     C_R   0.686049 0.571845 0.210054 0.098167
C48   C     C_R   0.709067 0.670483 0.280417 -0.049927
C49   C     C_R   0.830668 0.706466 0.320860 -0.128918
C50   C     C_R   0.930242 0.644508 0.291594 -0.110168
C51   C     C_R   0.908210 0.545565 0.223607 -0.111414
C52   C     C_R   0.786798 0.509405 0.182588 -0.081414
C53   C     C_R   0.870509 0.502062 0.500008 0.004354
C54   C     C_R   0.497523 0.814111 0.532878 0.013477
C55   C     C_R   0.500441 0.186549 0.466669 0.008942
C56   C     C_R   0.469141 0.016298 0.348045 -0.147395
Cu1   Cu    Cu3+1 0.509250 0.507730 0.615930 1.046514
Cu2   Cu    Cu3+1 0.490750 0.492270 0.384070 0.978225
H1    H     H_    0.468789 0.158088 0.280653 0.127451
H2    H     H_    0.198887 0.016298 0.352392 0.108811
H3    H     H_    0.108832 0.103897 0.199094 0.098880
H4    H     H_    0.046880 0.285817 0.246548 0.143028
H5    H     H_    0.367267 0.106806 0.778352 0.104619
H6    H     H_    0.399942 0.199306 0.979759 0.133510
H7    H     H_    0.599730 0.190855 0.090840 0.113561
H8    H     H_    0.767041 0.087475 0.000708 0.113386
H9    H     H_    0.735617 0.993495 0.799910 0.159611
H10   H     H_    0.374660 0.317796 0.805883 0.325214
H11   H     H_    0.692623 0.726978 0.834992 0.315842
H12   H     H_    0.539716 0.190455 0.647813 0.147642
H13   H     H_    0.196679 0.342706 0.014300 0.357755
H14   H     H_    0.868287 0.640839 0.989814 0.134832
H15   H     H_    0.991637 0.804256 0.074488 0.112025
H16   H     H_    0.885645 0.959895 0.163565 0.112287
H17   H     H_    0.655609 0.952345 0.167310 0.120539
H18   H     H_    0.530511 0.789415 0.083512 0.129053
H19   H     H_    0.328846 0.340268 0.255608 0.359682
H20   H     H_    0.634894 0.722411 0.297513 0.175003
H21   H     H_    0.848014 0.783484 0.372711 0.131925
H22   H     H_    0.024419 0.673026 0.322058 0.133278
H23   H     H_    0.248108 0.690576 0.590535 0.137460
H24   H     H_    0.985342 0.497350 0.201721 0.138537
H25   H     H_    0.771326 0.433577 0.127639 0.104046
H26   H     H_    0.968016 0.927510 0.701785 0.318380
H27   H     H_    0.767946 0.319955 0.432293 0.335135
H28   H     H_    0.348417 0.834760 0.301855 0.308175
H29   H     H_    0.150962 0.849307 0.664917 0.096946
H30   H     H_    0.789053 0.692876 0.591425 0.169068
H31   H     H_    0.548883 0.840194 0.715363 0.155556
H32   H     H_    0.453816 0.970668 0.262286 0.113834
H33   H     H_    0.176461 0.295971 0.600773 0.157939
H34   H     H_    0.234800 0.113211 0.552435 0.113256
N1    N     N_R   0.523180 0.519350 0.790130 -0.187654
N2    N     N_R   0.476820 0.480650 0.209890 -0.253354
O1    O     O_R   0.506570 0.354460 0.582000 -0.476594
O2    O     O_3   0.672003 0.656673 0.789039 -0.663339
O3    O     O_3   0.253052 0.373473 0.963609 -0.703824
O4    O     O_3   0.286060 0.374451 0.198031 -0.737044
O5    O     O_3   0.903750 0.869693 0.675165 -0.725608
O6    O     O_3   0.856536 0.314780 0.415670 -0.709208
O7    O     O_3   0.415037 0.797887 0.336248 -0.708704
O8    O     O_R   0.490940 0.341410 0.386200 -0.548805
O9    O     O_R   0.327470 0.506530 0.597920 -0.463314
O10   O     O_R   0.311840 0.493480 0.402120 -0.472488
O11   O     O_R   0.509060 0.658590 0.613800 -0.490490
O12   O     O_R   0.493430 0.645540 0.418000 -0.454088
O13   O     O_R   0.688160 0.506520 0.597880 -0.458938
O14   O     O_R   0.672530 0.493470 0.402080 -0.509470
O15   O     O_3   0.368521 0.383439 0.774400 -0.630588

loop_
_geom_bond_atom_site_label_1
_geom_bond_atom_site_label_2
_ccdc_geom_bond_type
Cu1   O11   S    
C44   H17   S    
C24   O5    S    
C18   O2    S    
C41   C42   A    
C31   H3    S    
C35   C36   A    
H11   O2    S    
C46   H18   S    
C52   H25   S    
C40   C46   A    
H13   O3    S    
C12   C23   A    
C28   C29   A    
C37   C38   A    
C11   O4    S    
C21   C22   A    
C36   C37   A    
C10   C15   A    
C38   C39   A    
C4    O9    A    
C18   C19   A    
C48   H20   S    
C3    C55   A    
C38   H8    S    
C8    C9    A    
C37   H7    S    
Cu2   O8    S    
C16   O12   A    
C20   O13   A    
C43   H16   S    
C56   H32   S    
C45   C53   A    
Cu1   N1    S    
C13   C14   A    
C9    C33   S    
C44   C46   A    
C27   C34   S    
Cu1   O9    S    
C51   C52   A    
C3    H12   S    
C24   C25   A    
C10   C11   A    
C8    C54   A    
C13   C47   S    
C4    C23   S    
C2    H1    S    
C25   C26   A    
C12   C21   A    
C25   H30   S    
C49   H21   S    
C12   C26   A    
Cu2   O12   S    
C10   O3    S    
C43   C44   A    
C5    C9    A    
C29   C30   A    
C47   C48   A    
C30   C31   A    
C1    O1    A    
C23   C34   A    
C50   C51   A    
H19   O4    S    
C34   C45   A    
C33   C39   A    
C22   H29   S    
C51   H24   S    
C47   C52   A    
C16   O11   A    
C41   H14   S    
C11   N2    A    
C40   C41   A    
Cu1   O13   S    
C21   H23   S    
Cu1   O1    S    
C22   C24   A    
Cu2   O10   S    
C42   C43   A    
C26   C53   A    
C30   H2    S    
C15   C17   A    
C48   C49   A    
C42   H15   S    
C27   C32   A    
H26   O5    S    
C39   H9    S    
C14   C19   A    
C31   C32   A    
C6    C56   A    
C20   C53   S    
C3    C5    A    
C45   O6    S    
C50   H22   S    
C6    C7    A    
C13   N2    A    
C2    C55   A    
Cu2   N2    S    
C32   H4    S    
H27   O6    S    
C2    C56   A    
Cu1   Cu2   S    
C5    C6    A    
C17   O15   S    
C4    O10   A    
C33   C35   A    
C28   H33   S    
Cu2   O14   S    
H10   O15   S    
C1    C55   S    
C16   C54   S    
C19   C40   S    
C17   N1    A    
C49   C50   A    
C7    O7    S    
C27   C28   A    
C18   N1    A    
C14   C15   A    
C35   H5    S    
C8    H31   S    
C7    C54   A    
C36   H6    S    
H28   O7    S    
C1    O8    A    
C29   H34   S    
C20   O14   A    
