data_str_m2_o41_o41_f0_fof.sym.10
_audit_creation_date              2012-10-26T17:13:00-0400
_audit_creation_method            fapswitch 2.2
_symmetry_space_group_name_H-M    P1
_symmetry_Int_Tables_number       1
_space_group_crystal_system       triclinic
_cell_length_a                    16.793625
_cell_length_b                    16.772291
_cell_length_c                    16.778868
_cell_angle_alpha                 67.576243
_cell_angle_beta                  67.580367
_cell_angle_gamma                 67.559439
_cell_volume                      3881.10466313

loop_
_atom_site_label
_atom_site_type_symbol
_atom_type_description
_atom_site_fract_x
_atom_site_fract_y
_atom_site_fract_z
_atom_type_partial_charge
C1    C     C_R   0.324145 0.956786 0.448991 0.013847
C2    C     C_R   0.308754 0.431796 0.009072 -0.014343
C3    C     C_R   0.545690 0.427189 0.962108 -0.002770
C4    C     C_R   0.041045 0.452734 0.572018 -0.002198
C5    C     C_R   0.963483 0.545736 0.426570 -0.002827
C6    C     C_R   0.991635 0.690259 0.568717 -0.010764
C7    C     C_R   0.012516 0.308529 0.429681 -0.014189
C8    C     C_R   0.451140 0.993425 0.451659 0.051775
C9    C     C_R   0.548493 0.007570 0.548027 0.030855
C10   C     C_R   0.995858 0.451238 0.449985 0.039185
C11   C     C_R   0.008843 0.547390 0.548315 0.038203
C12   C     C_R   0.451221 0.451814 0.992896 0.038762
C13   C     C_R   0.547724 0.548854 0.007359 0.038513
C14   C     C_R   0.013911 0.831514 0.569773 0.530322
C15   C     C_R   0.675713 0.043736 0.550832 -0.005422
C16   C     C_R   0.986899 0.168181 0.430049 0.535252
C17   C     C_R   0.831545 0.569756 0.013873 0.532963
C18   C     C_R   0.168245 0.430151 0.986492 0.529326
C19   C     C_R   0.569753 0.013810 0.831619 0.529936
C20   C     C_R   0.430224 0.986277 0.168346 0.524860
C21   C     C_R   0.435190 0.171744 0.971969 0.523700
C22   C     C_R   0.564673 0.828259 0.028292 0.518596
C23   C     C_R   0.971824 0.435250 0.171757 0.526227
C24   C     C_R   0.028556 0.564564 0.828224 0.521835
C25   C     C_R   0.171736 0.971948 0.435213 0.527903
C26   C     C_R   0.957490 0.448717 0.323964 -0.004147
C27   C     C_R   0.828259 0.028115 0.564751 0.525273
C28   C     C_R   0.402713 0.985695 0.403330 0.050777
C29   C     C_R   0.597038 0.015029 0.596434 0.031845
C30   C     C_R   0.988311 0.402906 0.401418 0.036325
C31   C     C_R   0.015341 0.595865 0.597383 0.033268
C32   C     C_R   0.402920 0.403179 0.985441 0.035378
C33   C     C_R   0.596208 0.597067 0.015233 0.035585
C34   C     C_R   0.269442 0.962651 0.398353 -0.024095
C35   C     C_R   0.730532 0.037522 0.601555 -0.023849
C36   C     C_R   0.962683 0.398276 0.269448 -0.021465
C37   C     C_R   0.044434 0.550321 0.675794 -0.008398
C38   C     C_R   0.038631 0.601152 0.730356 -0.028527
C39   C     C_R   0.398119 0.269516 0.962739 -0.023083
C40   C     C_R   0.601388 0.730414 0.038072 -0.024335
C41   C     C_R   0.610509 0.011053 0.737521 -0.026329
C42   C     C_R   0.389411 0.989192 0.262380 -0.026918
C43   C     C_R   0.737319 0.610350 0.011448 -0.025087
C44   C     C_R   0.262126 0.389394 0.989518 -0.025963
C45   C     C_R   0.011497 0.737211 0.610561 -0.027348
C46   C     C_R   0.990230 0.262118 0.389084 -0.020457
C47   C     C_R   0.499555 0.948344 0.735079 -0.060665
C48   C     C_R   0.448570 0.324561 0.956445 -0.004744
C49   C     C_R   0.499796 0.052843 0.264614 -0.072927
C50   C     C_R   0.947665 0.734637 0.500606 -0.059917
C51   C     C_R   0.060120 0.264160 0.495143 -0.072556
C52   C     C_R   0.734704 0.499988 0.947772 -0.059533
C53   C     C_R   0.264343 0.500388 0.052636 -0.074862
C54   C     C_R   0.303759 0.922031 0.542831 -0.022148
C55   C     C_R   0.695897 0.078872 0.457012 -0.027485
C56   C     C_R   0.542168 0.304697 0.920785 -0.029052
C57   C     C_R   0.456905 0.696210 0.078969 -0.024615
C58   C     C_R   0.921328 0.542401 0.304581 -0.029264
C59   C     C_R   0.550687 0.675692 0.044140 -0.005353
C60   C     C_R   0.080006 0.456497 0.695974 -0.028885
C61   C     C_R   0.306626 0.971036 0.306862 -0.152328
C62   C     C_R   0.693406 0.028949 0.693097 -0.137668
C63   C     C_R   0.970797 0.306828 0.306793 -0.136939
C64   C     C_R   0.030107 0.692710 0.693164 -0.139157
C65   C     C_R   0.306620 0.306456 0.971523 -0.140323
C66   C     C_R   0.692835 0.693192 0.029660 -0.136425
C67   C     C_R   0.643862 0.079305 0.407656 -0.002354
C68   C     C_R   0.355341 0.922274 0.592192 0.003550
C69   C     C_R   0.078637 0.406255 0.645533 0.002075
C70   C     C_R   0.568250 0.991606 0.690707 -0.010369
C71   C     C_R   0.921049 0.591574 0.356713 -0.006228
C72   C     C_R   0.407403 0.644629 0.078882 0.002048
C73   C     C_R   0.591337 0.356901 0.920246 -0.005663
C74   C     C_R   0.550207 0.059998 0.310649 -0.037450
C75   C     C_R   0.448987 0.941736 0.688958 -0.021465
C76   C     C_R   0.310360 0.551077 0.059429 -0.037592
C77   C     C_R   0.688466 0.450062 0.940035 -0.025514
C78   C     C_R   0.074091 0.311200 0.540341 -0.025967
C79   C     C_R   0.940545 0.688510 0.450269 -0.025560
C80   C     C_R   0.662567 0.117878 0.313371 0.268856
C81   C     C_R   0.431482 0.009053 0.309080 -0.012206
C82   C     C_R   0.335885 0.884816 0.686651 0.271946
C83   C     C_R   0.115949 0.311329 0.665245 0.241560
C84   C     C_R   0.881803 0.685795 0.338615 0.265035
C85   C     C_R   0.313051 0.664084 0.116668 0.267837
C86   C     C_R   0.685332 0.338676 0.880958 0.267162
C87   C     C_R   0.623851 0.097736 0.264080 0.251829
C88   C     C_R   0.374575 0.905311 0.735568 0.273115
C89   C     C_R   0.263822 0.625195 0.096622 0.249980
C90   C     C_R   0.734719 0.376998 0.901307 0.259827
C91   C     C_R   0.123853 0.266304 0.604726 0.213562
C92   C     C_R   0.690453 0.568194 0.991794 -0.008560
C93   C     C_R   0.902076 0.735111 0.377122 0.261592
C94   C     C_R   0.524915 0.030531 0.405238 -0.006414
C95   C     C_R   0.474590 0.970707 0.594403 -0.006834
C96   C     C_R   0.035914 0.404900 0.521724 -0.002865
C97   C     C_R   0.971013 0.593884 0.474942 -0.005473
C98   C     C_R   0.404890 0.525643 0.030053 -0.006762
C99   C     C_R   0.593973 0.475317 0.969809 -0.005432
C100  C     C_R   0.573242 0.038027 0.453458 -0.005226
C101  C     C_R   0.426231 0.963218 0.546240 0.011533
C102  C     C_R   0.453158 0.573844 0.037690 -0.003309
Cu1   Cu    Cu3+1 0.995180 0.995180 0.424630 1.138616
Cu2   Cu    Cu3+1 0.004820 0.004820 0.575370 1.103592
Cu3   Cu    Cu3+1 0.995180 0.424630 0.995180 1.110094
Cu4   Cu    Cu3+1 0.004820 0.575370 0.004820 1.147136
Cu5   Cu    Cu3+1 0.424630 0.995180 0.995180 1.147814
Cu6   Cu    Cu3+1 0.575370 0.004820 0.004820 1.145910
H1    H     H_    0.269513 0.965962 0.269291 0.175979
H2    H     H_    0.087859 0.192625 0.510245 0.210548
H3    H     H_    0.804898 0.490315 0.913060 0.194407
H4    H     H_    0.194178 0.509973 0.087590 0.198693
H5    H     H_    0.248142 0.893387 0.577473 0.203018
H6    H     H_    0.751748 0.107207 0.422361 0.208474
H7    H     H_    0.576764 0.248981 0.892113 0.207438
H8    H     H_    0.422422 0.752037 0.107424 0.208155
H9    H     H_    0.892029 0.576971 0.249328 0.206948
H10   H     H_    0.115074 0.424180 0.746935 0.201673
H11   H     H_    0.192512 0.895151 0.946826 0.398573
H12   H     H_    0.730640 0.033683 0.730757 0.183632
H13   H     H_    0.801271 0.118707 0.049284 0.403333
H14   H     H_    0.882425 0.949994 0.199275 0.404086
H15   H     H_    0.324276 0.182812 0.596108 0.352060
H16   H     H_    0.950803 0.203322 0.867920 0.402015
H17   H     H_    0.049680 0.803823 0.114494 0.402360
H18   H     H_    0.261353 0.692688 0.861354 0.383256
H19   H     H_    0.864078 0.195906 0.214810 0.368362
H20   H     H_    0.859473 0.264976 0.688313 0.369597
H21   H     H_    0.300078 0.748359 0.294124 0.369179
H22   H     H_    0.688020 0.859393 0.266500 0.382470
H23   H     H_    0.964648 0.269491 0.270084 0.164220
H24   H     H_    0.098067 0.258641 0.904326 0.365492
H25   H     H_    0.035151 0.730353 0.730266 0.185187
H26   H     H_    0.269073 0.269110 0.966769 0.174849
H27   H     H_    0.730417 0.730420 0.034540 0.184273
H28   H     H_    0.489530 0.913490 0.805366 0.188507
H29   H     H_    0.509370 0.087698 0.194375 0.199145
H30   H     H_    0.912711 0.804879 0.491136 0.192672
O1    O     O_R   0.124540 0.978640 0.385460 -0.498325
O2    O     O_R   0.124540 0.385460 0.978640 -0.518103
O3    O     O_R   0.021360 0.875460 0.614540 -0.499106
O4    O     O_R   0.978640 0.124540 0.385460 -0.504392
O5    O     O_R   0.013780 0.867370 0.487190 -0.479896
O6    O     O_R   0.986220 0.132630 0.512810 -0.516516
O7    O     O_R   0.867370 0.487190 0.013780 -0.479160
O8    O     O_R   0.132630 0.512810 0.986220 -0.486764
O9    O     O_R   0.487190 0.013780 0.867370 -0.478308
O10   O     O_R   0.512810 0.986220 0.132630 -0.489196
O11   O     O_R   0.512810 0.132630 0.986220 -0.499343
O12   O     O_R   0.875460 0.021360 0.614540 -0.503364
O13   O     O_R   0.487190 0.867370 0.013780 -0.505366
O14   O     O_R   0.986220 0.512810 0.132630 -0.497242
O15   O     O_R   0.013780 0.487190 0.867370 -0.480560
O16   O     O_R   0.132630 0.986220 0.512810 -0.497790
O17   O     O_R   0.867370 0.013780 0.487190 -0.497767
O18   O     O_2   0.372267 0.814096 0.906971 -0.296907
O19   O     O_2   0.324803 0.978106 0.871398 -0.247508
O20   O     O_3   0.214222 0.900138 0.881799 -0.384178
O21   O     O_2   0.672341 0.030626 0.124197 -0.285546
O22   O     O_2   0.621564 0.194153 0.095000 -0.291819
O23   O     O_R   0.978640 0.385460 0.124540 -0.508068
O24   O     O_3   0.781562 0.109421 0.115044 -0.426079
O25   O     O_2   0.807088 0.904373 0.380675 -0.286217
O26   O     O_2   0.970418 0.874202 0.326723 -0.256634
O27   O     O_3   0.887907 0.884870 0.219991 -0.427022
O28   O     O_2   0.158460 0.086547 0.653504 -0.210384
O29   O     O_2   0.244957 0.154673 0.504817 -0.343838
O30   O     O_3   0.288649 0.141635 0.641444 -0.428823
O31   O     O_2   0.902253 0.382067 0.804623 -0.262013
O32   O     O_2   0.874876 0.326552 0.967918 -0.254995
O33   O     O_3   0.884474 0.220430 0.885136 -0.439045
O34   O     O_R   0.021360 0.614540 0.875460 -0.498504
O35   O     O_2   0.124044 0.672443 0.029771 -0.287172
O36   O     O_2   0.094605 0.624243 0.193187 -0.290503
O37   O     O_3   0.115286 0.783832 0.105862 -0.424752
O38   O     O_2   0.175355 0.850386 0.759180 -0.218300
O39   O     O_2   0.297528 0.745369 0.680705 -0.314218
O40   O     O_3   0.297887 0.735453 0.837615 -0.442054
O41   O     O_2   0.701721 0.261759 0.174533 -0.183117
O42   O     O_2   0.700808 0.256297 0.321845 -0.306213
O43   O     O_3   0.834273 0.147430 0.238676 -0.478392
O44   O     O_2   0.759142 0.179929 0.842430 -0.244587
O45   O     O_R   0.385460 0.124540 0.978640 -0.495928
O46   O     O_2   0.675202 0.302312 0.742205 -0.298112
O47   O     O_3   0.832255 0.306266 0.726863 -0.448238
O48   O     O_2   0.240414 0.825599 0.149256 -0.244396
O49   O     O_2   0.173849 0.705357 0.259404 -0.181640
O50   O     O_3   0.327814 0.702451 0.260664 -0.547033
O51   O     O_2   0.843970 0.759780 0.179599 -0.234050
O52   O     O_2   0.742953 0.676726 0.301842 -0.301531
O53   O     O_3   0.728785 0.833825 0.305386 -0.437966
O54   O     O_2   0.146277 0.152532 0.794239 -0.157693
O55   O     O_2   0.237704 0.252965 0.756836 -0.276223
O56   O     O_R   0.614540 0.875460 0.021360 -0.497337
O57   O     O_3   0.072610 0.292391 0.852557 -0.499543
O58   O     O_R   0.614540 0.021360 0.875460 -0.498932
O59   O     O_R   0.385460 0.978640 0.124540 -0.503612
O60   O     O_R   0.875460 0.614540 0.021360 -0.497247
S1    S     S_3+6 0.322223 0.898856 0.851959 0.105252
S2    S     S_3+6 0.259671 0.727102 0.197501 0.065588
S3    S     S_3+6 0.798503 0.738811 0.278652 0.065981
S4    S     S_3+6 0.146017 0.248857 0.768150 0.057046
S5    S     S_3+6 0.674045 0.108498 0.146629 0.067436
S6    S     S_3+6 0.891323 0.852584 0.326851 0.083482
S7    S     S_3+6 0.204431 0.159650 0.600273 0.037796
S8    S     S_3+6 0.852070 0.327151 0.889272 0.089287
S9    S     S_3+6 0.146507 0.675613 0.106898 0.068869
S10   S     S_3+6 0.273948 0.803154 0.740823 0.066939
S11   S     S_3+6 0.723907 0.200101 0.260327 0.066827
S12   S     S_3+6 0.737766 0.279105 0.797233 0.057883

loop_
_geom_bond_atom_site_label_1
_geom_bond_atom_site_label_2
_ccdc_geom_bond_type
C84   S3    S    
Cu3   O15   S    
C23   O14   A    
C49   C74   A    
C6    C45   A    
C49   H29   S    
C47   H28   S    
C39   C65   A    
C74   C94   A    
C17   O7    A    
O37   S9    S    
C61   H1    S    
C50   C79   A    
O22   S5    D    
C82   S10   S    
C72   C85   A    
C75   C95   A    
O57   S4    S    
H22   O53   S    
C20   C42   S    
H16   O33   S    
O29   S7    D    
C88   S1    S    
O43   S11   S    
C16   O6    A    
O27   S6    S    
O32   S8    D    
C80   C87   A    
Cu1   O1    S    
C43   C66   A    
C82   C88   A    
C58   C71   A    
C57   C59   A    
C54   C68   A    
O50   S2    S    
C76   C98   A    
C54   H5    S    
O44   S12   D    
Cu6   O11   S    
C2    C32   A    
C15   C35   A    
C93   S6    S    
C3    C12   A    
O26   S6    D    
C4    C96   A    
C78   C96   A    
C41   C70   A    
O40   S10   S    
C1    C28   A    
C24   C38   S    
Cu5   Cu6   S    
C20   O10   A    
C77   C99   A    
O28   S7    D    
C63   H23   S    
C74   C87   A    
C14   C45   S    
C36   C63   A    
C8    C101  A    
C9    C95   A    
C62   H12   S    
C65   H26   S    
O30   S7    S    
C9    C29   A    
C25   C34   S    
Cu4   O60   S    
Cu5   O13   S    
C6    C31   A    
C25   O16   A    
C14   O3    A    
C11   C31   A    
C19   O58   A    
C33   C59   A    
H14   O27   S    
C90   S8    S    
C12   C32   A    
C32   C48   A    
O48   S2    D    
C44   C65   A    
C42   C81   A    
C41   C62   A    
C83   S4    S    
C3    C73   A    
C87   S5    S    
C4    C69   A    
C91   S7    S    
C1    C34   A    
C15   C29   A    
C57   H8    S    
C38   C64   A    
C27   O17   A    
O25   S6    D    
C77   C90   A    
Cu4   O14   S    
C11   C97   A    
H20   O47   S    
C7    C46   A    
C8    C94   A    
C68   C101  A    
C86   C90   A    
C33   C92   A    
C2    C44   A    
O31   S8    D    
Cu5   O59   S    
C85   C89   A    
C52   H3    S    
O51   S3    D    
C10   C96   A    
C98   C102  A    
C58   H9    S    
C19   O9    A    
O55   S4    D    
C31   C37   A    
Cu5   O45   S    
O19   S1    D    
C15   C55   A    
C13   C99   A    
C16   O4    A    
C1    C54   A    
C17   C43   S    
C47   C70   A    
C13   C33   A    
C37   C38   A    
C69   C83   A    
C18   C44   S    
H24   O57   S    
Cu5   O9    S    
C10   C30   A    
C85   S2    S    
O21   S5    D    
C21   C39   S    
C94   C100  A    
C22   C40   S    
C71   C84   A    
Cu2   O6    S    
O20   S1    S    
C17   O60   A    
O35   S9    D    
C6    C50   A    
C4    C11   A    
C18   O2    A    
C26   C58   A    
C42   C61   A    
C67   C100  A    
H15   O30   S    
C53   H4    S    
Cu1   O17   S    
C5    C97   A    
C26   C30   A    
C51   H2    S    
C21   O11   A    
C47   C75   A    
O36   S9    D    
C8    C28   A    
Cu3   O23   S    
C52   C92   A    
O18   S1    D    
Cu6   O58   S    
C22   O13   A    
C16   C46   S    
C52   C77   A    
H17   O37   S    
Cu1   O4    S    
Cu1   Cu2   S    
C24   O15   A    
C29   C70   A    
C26   C36   A    
C48   C56   A    
O41   S11   D    
C64   H25   S    
C23   O23   A    
C56   C73   A    
C25   O1    A    
C28   C81   A    
Cu2   O3    S    
Cu4   O34   S    
C79   C97   A    
C20   O59   A    
C22   O56   A    
C67   C80   A    
C86   S12   S    
C18   O8    A    
C2    C53   A    
Cu1   O5    S    
C55   C67   A    
C50   H30   S    
O52   S3    D    
C79   C93   A    
C55   H6    S    
C78   C91   A    
C27   O12   A    
H19   O43   S    
C83   C91   A    
Cu3   Cu4   S    
O24   S5    S    
C45   C64   A    
C95   C101  A    
C43   C92   A    
Cu4   O8    S    
O39   S10   D    
C21   O45   A    
O49   S2    D    
O46   S12   D    
Cu6   O56   S    
C27   C35   S    
O38   S10   D    
C14   O5    A    
C51   C78   A    
C68   C82   A    
C5    C10   A    
C5    C71   A    
Cu3   O2    S    
C89   S9    S    
C46   C63   A    
C72   C102  A    
C60   C69   A    
H11   O20   S    
Cu2   O12   S    
H13   O24   S    
C56   H7    S    
C9    C100  A    
H18   O40   S    
C35   C62   A    
C49   C81   A    
C84   C93   A    
C34   C61   A    
C57   C72   A    
O42   S11   D    
C24   O34   A    
C73   C86   A    
C37   C60   A    
C7    C51   A    
C66   H27   S    
C53   C76   A    
C3    C99   A    
C75   C88   A    
C7    C30   A    
C23   C36   S    
H21   O50   S    
C12   C98   A    
C40   C59   A    
O33   S8    S    
O54   S4    D    
O47   S12   S    
C80   S11   S    
C76   C89   A    
C40   C66   A    
O53   S3    S    
Cu2   O16   S    
C13   C102  A    
Cu3   O7    S    
C60   H10   S    
C19   C41   S    
C39   C48   A    
Cu6   O10   S    
