data_str_m2_o10_o28_f0_pcu.sym.166
_audit_creation_date              2012-12-10T16:50:11-0500
_audit_creation_method            fapswitch 2.2
_symmetry_space_group_name_H-M    P1
_symmetry_Int_Tables_number       1
_space_group_crystal_system       triclinic
_cell_length_a                    23.499715
_cell_length_b                    8.722746
_cell_length_c                    7.442509
_cell_angle_alpha                 103.207721
_cell_angle_beta                  94.260209
_cell_angle_gamma                 92.010423
_cell_volume                      1478.99203418

loop_
_atom_site_label
_atom_site_type_symbol
_atom_type_description
_atom_site_fract_x
_atom_site_fract_y
_atom_site_fract_z
_atom_type_partial_charge
C1    C     C_R   0.497294 0.200177 0.453196 0.798297
C2    C     C_R   0.499458 0.799621 0.546207 0.816133
C3    C     C_R   0.238366 0.590547 0.399893 -0.277475
C4    C     C_R   0.754412 0.406061 0.326016 -0.290355
C5    C     C_R   0.297986 0.594257 0.401133 0.460867
C6    C     C_R   0.695076 0.410215 0.327472 0.438138
C7    C     C_R   0.329129 0.503973 0.504955 -0.185633
C8    C     C_R   0.671084 0.485890 0.490623 -0.195503
C9    C     C_R   0.300414 0.406347 0.598757 -0.410645
C10   C     C_R   0.707020 0.547527 0.651999 -0.358329
C11   C     C_R   0.240598 0.398141 0.590388 0.557517
C12   C     C_R   0.766371 0.537953 0.651856 0.552160
C13   C     C_R   0.209667 0.490921 0.490149 0.180099
C14   C     C_R   0.790536 0.472583 0.485404 0.176268
C15   C     C_2   0.496861 0.032628 0.424658 0.155916
C16   C     C_2   0.491644 0.964967 0.569051 0.209921
C17   C     C_R   0.391242 0.501490 0.502344 0.840112
C18   C     C_R   0.608895 0.496742 0.496975 0.845162
C19   C     C_R   0.883097 0.616240 0.541220 0.641723
C20   C     C_R   0.117286 0.355257 0.387176 0.618485
C21   C     C_R   0.877944 0.340152 0.404200 0.548180
C22   C     C_R   0.122898 0.618876 0.572637 0.555237
C23   C     C_R   0.937174 0.343074 0.391337 -0.071408
C24   C     C_R   0.063304 0.620431 0.567294 -0.071366
C25   C     C_R   0.970198 0.482437 0.473551 -0.080710
C26   C     C_R   0.030249 0.483686 0.474368 -0.077992
C27   C     C_R   0.943183 0.620308 0.555212 -0.123766
C28   C     C_R   0.057157 0.348296 0.383317 -0.123903
C29   C     C_R   0.963815 0.209616 0.299038 -0.270972
C30   C     C_R   0.036403 0.754694 0.656005 -0.269034
C31   C     C_R   0.023308 0.210721 0.293387 0.482539
C32   C     C_R   0.976731 0.757619 0.647300 0.480034
Cu1   Cu    Cu3+1 0.506340 0.517380 0.684380 0.977264
Cu2   Cu    Cu3+1 0.493660 0.482620 0.315620 0.994675
H1    H     H_    0.938461 0.104316 0.227382 0.214372
H2    H     H_    0.061582 0.857943 0.734527 0.215940
H3    H     H_    0.214000 0.664809 0.327986 0.182211
H4    H     H_    0.772365 0.350710 0.199276 0.184924
H5    H     H_    0.324269 0.332134 0.672281 0.169621
H6    H     H_    0.689175 0.605921 0.778301 0.199071
H7    H     H_    0.454407 0.381735 0.948800 0.234148
H8    H     H_    0.545385 0.619091 0.051299 0.254078
N1    N     N_R   0.851789 0.475936 0.477255 -0.451720
N2    N     N_R   0.148506 0.487857 0.483522 -0.448584
N3    N     N_2   0.484110 0.456420 0.038520 -0.202522
N4    N     N_2   0.515890 0.543580 0.961480 -0.202354
O1    O     O_R   0.504120 0.286130 0.619770 -0.551269
O2    O     O_R   0.495880 0.713870 0.380230 -0.568734
O3    O     O_R   0.493410 0.256770 0.308360 -0.564153
O4    O     O_R   0.506590 0.743230 0.691640 -0.575876
O5    O     O_R   0.423230 0.514630 0.655730 -0.615830
O6    O     O_R   0.576770 0.485370 0.344270 -0.537602
O7    O     O_R   0.412530 0.485280 0.344320 -0.575927
O8    O     O_R   0.587470 0.514720 0.655680 -0.582087
O9    O     O_2   0.855998 0.751738 0.587543 -0.451680
O10   O     O_2   0.144633 0.231274 0.296212 -0.473805
O11   O     O_2   0.846954 0.202083 0.346249 -0.537049
O12   O     O_2   0.155200 0.747156 0.666888 -0.531532
O13   O     O_3   0.047585 0.082125 0.186807 -0.530662
C33   C     C_3   0.047486 0.957588 0.278849 -0.200483
H9    H     H_    0.068418 0.995455 0.422358 0.162413
H10   H     H_    0.003440 0.907198 0.279745 0.129532
H11   H     H_    0.072437 0.861961 0.202301 0.199586
O14   O     O_3   0.951693 0.885717 0.752193 -0.523552
C34   C     C_3   0.956682 0.014843 0.668848 -0.188159
H12   H     H_    0.937318 0.984366 0.523248 0.165042
H13   H     H_    0.001890 0.059302 0.675743 0.127118
H14   H     H_    0.932764 0.112497 0.746288 0.201922
O15   O     O_3   0.326403 0.697109 0.316790 -0.585222
C35   C     C_3   0.315123 0.646821 0.122757 -0.291878
H15   H     H_    0.330634 0.527003 0.070948 0.161398
H16   H     H_    0.338418 0.728140 0.055778 0.173704
H17   H     H_    0.269138 0.651035 0.078573 0.160669
O16   O     O_3   0.661087 0.347101 0.165913 -0.572387
C36   C     C_3   0.650603 0.184699 0.153361 -0.201322
H18   H     H_    0.628478 0.163820 0.273574 0.154223
H19   H     H_    0.690862 0.120951 0.141249 0.163862
H20   H     H_    0.621993 0.134710 0.026459 0.208416
O17   O     O_3   0.211939 0.288625 0.663738 -0.543816
C37   C     C_3   0.210208 0.348844 0.855475 -0.280390
H21   H     H_    0.192896 0.468469 0.887135 0.149487
H22   H     H_    0.253116 0.349353 0.928861 0.147139
H23   H     H_    0.181163 0.269889 0.908888 0.232870
O18   O     O_3   0.801414 0.604333 0.810189 -0.533347
C38   C     C_3   0.796758 0.509825 0.938731 -0.287560
H24   H     H_    0.806529 0.385428 0.878464 0.162187
H25   H     H_    0.753643 0.515343 0.991166 0.181241
H26   H     H_    0.828437 0.556359 0.058781 0.199544
O19   O     O_3   0.505823 0.946734 0.248448 -0.582142
C39   C     C_3   0.452334 0.913865 0.143991 -0.210143
H27   H     H_    0.433563 0.022990 0.119675 0.162968
H28   H     H_    0.421739 0.851377 0.213040 0.169632
H29   H     H_    0.458288 0.835891 0.007520 0.216007
O20   O     O_3   0.476012 0.048687 0.738504 -0.565602
C40   C     C_3   0.415690 0.042944 0.730946 -0.321709
H30   H     H_    0.398198 0.920803 0.721303 0.167034
H31   H     H_    0.396534 0.089083 0.613679 0.148555
H32   H     H_    0.402389 0.119202 0.859819 0.168550

loop_
_geom_bond_atom_site_label_1
_geom_bond_atom_site_label_2
_ccdc_geom_bond_type
C40   H30   S    
C20   O10   S    
C17   O5    A    
C40   H32   S    
C18   O6    A    
C38   H24   S    
C33   H11   S    
C23   C29   A    
C10   H6    S    
C24   C26   A    
C15   C16   D    
C9    H5    S    
C12   O18   S    
C33   H10   S    
H8    N4    S    
C31   O13   S    
C5    O15   S    
C2    O4    A    
C21   N1    A    
C22   N2    A    
C34   H13   S    
C35   H15   S    
C1    C15   S    
C2    C16   S    
C3    C13   A    
O13   C33   S    
Cu1   N4    S    
O15   C35   S    
C37   H23   S    
C10   C12   A    
C26   C28   A    
C20   N2    A    
C19   N1    A    
C6    O16   S    
C38   H25   S    
O16   C36   S    
O18   C38   S    
C32   O14   S    
C37   H22   S    
C5    C7    A    
C1    O1    A    
C6    C8    A    
C20   C28   A    
C2    O2    A    
Cu1   O4    S    
N3    N4    D    
C8    C18   S    
C33   H9    S    
C36   H18   S    
C21   O11   S    
C15   O19   S    
C36   H19   S    
C39   H28   S    
C34   H14   S    
C35   H17   S    
Cu1   Cu2   S    
Cu2   N3    S    
C9    C11   A    
C11   O17   S    
C4    C6    A    
C12   C14   A    
C21   C23   A    
C25   C27   A    
Cu1   O1    S    
C22   C24   A    
Cu2   O2    S    
C17   O7    A    
C19   C27   A    
C39   H29   S    
C38   H26   S    
C19   O9    S    
Cu1   O8    S    
C7    C9    A    
Cu2   O3    S    
C27   C32   A    
C16   O20   S    
C28   C31   A    
C4    H4    S    
C37   H21   S    
C3    C5    A    
C7    C17   S    
C22   O12   S    
C40   H31   S    
Cu1   O5    S    
C29   H1    S    
Cu2   O6    S    
C30   H2    S    
O14   C34   S    
C25   C26   A    
C29   C31   A    
C30   C32   A    
C11   C13   A    
C39   H27   S    
C23   C25   A    
C4    C14   A    
O20   C40   S    
C36   H20   S    
C24   C30   A    
C18   O8    A    
O17   C37   S    
C3    H3    S    
Cu2   O7    S    
C8    C10   A    
C34   H12   S    
H7    N3    S    
C35   H16   S    
O19   C39   S    
C1    O3    A    
C13   N2    S    
C14   N1    S    
