data_str_m9_o11_o18_f0_sra.sym.118
_audit_creation_date              2012-12-11T14:21:03-0500
_audit_creation_method            fapswitch 2.2
_symmetry_space_group_name_H-M    P1
_symmetry_Int_Tables_number       1
_space_group_crystal_system       triclinic
_cell_length_a                    21.977484
_cell_length_b                    7.200074
_cell_length_c                    14.924299
_cell_angle_alpha                 89.999717
_cell_angle_beta                  107.769093
_cell_angle_gamma                 89.999988
_cell_volume                      2248.95099713

loop_
_atom_site_label
_atom_site_type_symbol
_atom_type_description
_atom_site_fract_x
_atom_site_fract_y
_atom_site_fract_z
_atom_type_partial_charge
O1    O     O_R   0.584770 0.505770 0.002090 -0.510683
O2    O     O_R   0.415230 0.005770 0.997910 -0.510682
O3    O     O_R   0.467060 0.173340 0.861950 -0.552278
O4    O     O_R   0.532940 0.673340 0.138050 -0.552278
C1    C     C_R   0.455196 0.344231 0.825475 0.753703
C2    C     C_R   0.544804 0.844230 0.174525 0.753703
O5    O     O_R   0.587510 0.175890 0.993210 -0.520886
O6    O     O_R   0.412490 0.675890 0.006790 -0.520886
O7    O     O_R   0.536540 0.008150 0.130100 -0.523395
O8    O     O_R   0.463460 0.508150 0.869900 -0.523397
C3    C     C_R   0.612579 0.344936 0.996008 0.652758
C4    C     C_R   0.387421 0.844936 0.003992 0.652759
O9    O     O_3   0.483140 0.340040 0.044760 -0.372442
O10   O     O_3   0.516860 0.840040 0.955240 -0.372444
V1    V     V_3+5 0.503130 0.064190 0.991700 1.674632
V2    V     V_3+5 0.496870 0.564190 0.008300 1.674633
C5    C     C_2   0.215864 0.733483 0.008342 0.490528
C6    C     C_2   0.784136 0.233483 0.991658 0.490528
C7    C     C_2   0.177643 0.884985 0.985763 0.372215
C8    C     C_2   0.822357 0.384985 0.014237 0.372217
C9    C     C_2   0.279605 0.721391 0.993174 0.492903
C10   C     C_2   0.720395 0.221391 0.006827 0.492902
C11   C     C_2   0.322901 0.860533 0.014914 0.360938
C12   C     C_2   0.677099 0.360533 0.985086 0.360937
C13   C     C_R   0.928432 0.880866 0.722133 -0.299639
C14   C     C_R   0.071568 0.380863 0.277867 -0.299634
C15   C     C_R   0.570688 0.849127 0.277890 -0.212992
C16   C     C_R   0.429312 0.349130 0.722110 -0.212993
C17   C     C_R   0.936302 0.779300 0.571121 0.717234
C18   C     C_R   0.063698 0.279283 0.428878 0.717227
C19   C     C_R   0.965076 0.808086 0.667297 0.250883
C20   C     C_R   0.034924 0.308074 0.332703 0.250883
C21   C     C_R   0.863555 0.921932 0.679970 0.420622
C22   C     C_R   0.136444 0.421933 0.320030 0.420624
C23   C     C_R   0.831871 0.858955 0.586683 -0.115028
C24   C     C_R   0.168128 0.358953 0.413317 -0.115028
C25   C     C_R   0.870000 0.808572 0.528969 -0.309296
C26   C     C_R   0.130000 0.308560 0.471031 -0.309292
C27   C     C_R   0.763957 0.840914 0.549923 -0.150716
C28   C     C_R   0.236042 0.340916 0.450077 -0.150718
C29   C     C_R   0.734660 0.824972 0.451415 -0.173463
C30   C     C_R   0.265340 0.324969 0.548585 -0.173462
C31   C     C_R   0.773795 0.773417 0.394884 0.395013
C32   C     C_R   0.226205 0.273405 0.605115 0.395013
C33   C     C_R   0.840319 0.775722 0.431918 0.452342
C34   C     C_R   0.159681 0.275705 0.568081 0.452344
C35   C     C_R   0.725035 0.816011 0.608952 0.629308
C36   C     C_R   0.274965 0.316022 0.391048 0.629308
C37   C     C_R   0.658709 0.804342 0.572465 0.353457
C38   C     C_R   0.341291 0.304357 0.427535 0.353456
C39   C     C_R   0.628486 0.810881 0.473853 -0.199779
C40   C     C_R   0.371514 0.310892 0.526146 -0.199780
C41   C     C_R   0.666704 0.843473 0.414000 -0.139751
C42   C     C_R   0.333296 0.343475 0.586000 -0.139751
C43   C     C_R   0.562048 0.775635 0.433531 0.417073
C44   C     C_R   0.437952 0.275651 0.566469 0.417072
C45   C     C_R   0.533498 0.789798 0.334985 0.222169
C46   C     C_R   0.466502 0.289809 0.665014 0.222169
C47   C     C_R   0.635507 0.891202 0.318449 0.318470
C48   C     C_R   0.364492 0.391200 0.681551 0.318468
O11   O     O_R   0.036450 0.233070 0.130130 -0.548190
O12   O     O_R   0.963550 0.733070 0.869870 -0.548189
O13   O     O_R   0.912470 0.560570 0.006790 -0.502508
O14   O     O_R   0.087530 0.060570 0.993210 -0.502509
C49   C     C_R   0.887329 0.391636 0.003945 0.655627
C50   C     C_R   0.112671 0.891636 0.996055 0.655627
O15   O     O_R   0.032920 0.562940 0.138050 -0.528556
O16   O     O_R   0.967080 0.062940 0.861950 -0.528559
O17   O     O_R   0.084790 0.730500 0.002090 -0.527180
O18   O     O_R   0.915210 0.230500 0.997910 -0.527180
C51   C     C_R   0.045071 0.394123 0.174894 0.785934
C52   C     C_R   0.954928 0.894124 0.825106 0.785934
O19   O     O_3   0.016820 0.396170 0.955260 -0.375896
O20   O     O_3   0.983180 0.896170 0.044740 -0.375895
V3    V     V_3+5 0.996880 0.672090 0.008300 1.697999
V4    V     V_3+5 0.003120 0.172090 0.991700 1.697995
F1    F     F_    0.194958 0.577537 0.041298 -0.582129
F2    F     F_    0.805042 0.077537 0.958702 -0.582130
O21   O     O_3   0.029312 0.765521 0.703855 -0.573282
H1    H     H_    0.046069 0.809731 0.769556 0.286135
O22   O     O_3   0.970689 0.265502 0.296143 -0.573285
H2    H     H_    0.953931 0.309717 0.230443 0.286135
O23   O     O_3   0.833835 0.031905 0.730030 -0.570635
H3    H     H_    0.798305 0.099345 0.684549 0.316018
O24   O     O_3   0.166163 0.531915 0.269972 -0.570636
H4    H     H_    0.201693 0.599355 0.315454 0.316016
O25   O     O_3   0.749051 0.702084 0.305221 -0.557187
H5    H     H_    0.710454 0.628781 0.302989 0.307531
O26   O     O_3   0.250950 0.202068 0.694777 -0.557189
H6    H     H_    0.289548 0.128770 0.697009 0.307531
F3    F     F_    0.750985 0.782153 0.702430 -0.579067
F4    F     F_    0.249016 0.282169 0.297570 -0.579066
O27   O     O_3   0.527116 0.714059 0.490877 -0.616228
H7    H     H_    0.481417 0.700598 0.454744 0.343644
O28   O     O_3   0.472885 0.214082 0.509122 -0.616227
H8    H     H_    0.518584 0.200621 0.545256 0.343649
F5    F     F_    0.196541 0.035512 0.945870 -0.574950
F6    F     F_    0.803458 0.535511 0.054129 -0.574950
F7    F     F_    0.295039 0.556290 0.961368 -0.580882
F8    F     F_    0.704961 0.056290 0.038632 -0.580882
F9    F     F_    0.309392 0.020719 0.053420 -0.576241
F10   F     F_    0.690608 0.520719 0.946580 -0.576241
O29   O     O_3   0.874840 0.739914 0.370710 -0.547764
H9    H     H_    0.909261 0.834223 0.382823 0.365365
O30   O     O_3   0.125161 0.239889 0.629288 -0.547762
H10   H     H_    0.090739 0.334195 0.617176 0.365359
O31   O     O_3   0.666719 0.980072 0.262995 -0.590663
H11   H     H_    0.703350 0.049987 0.304620 0.323267
O32   O     O_3   0.333279 0.480061 0.737006 -0.590661
H12   H     H_    0.296647 0.549975 0.695382 0.323268
O33   O     O_3   0.469328 0.746017 0.297516 -0.626261
H13   H     H_    0.452700 0.789954 0.231752 0.294955
O34   O     O_3   0.530673 0.246033 0.702484 -0.626259
H14   H     H_    0.547300 0.289965 0.768248 0.294955
O35   O     O_3   0.625078 0.791174 0.636398 -0.547955
H15   H     H_    0.591280 0.887599 0.619185 0.341859
O36   O     O_3   0.374922 0.291198 0.363602 -0.547955
H16   H     H_    0.408720 0.387625 0.380816 0.341861
F11   F     F_    0.973287 0.706759 0.521605 -0.606657
F12   F     F_    0.026715 0.206733 0.478393 -0.606661

loop_
_geom_bond_atom_site_label_1
_geom_bond_atom_site_label_2
_ccdc_geom_bond_type
C13   C19   A    
C44   O28   S    
O25   H5    S    
O13   C49   A    
C14   C20   A    
O27   H7    S    
C38   O36   S    
C45   O33   S    
O28   H8    S    
O1    C3    A    
C43   O27   S    
O2    C4    A    
C2    O7    A    
O22   H2    S    
C41   C47   A    
C27   C29   A    
C42   C48   A    
O24   H4    S    
O5    C3    A    
C20   O22   S    
C17   F11   S    
C4    C11   S    
C18   F12   S    
C23   C25   A    
C9    F7    S    
C50   O17   A    
C49   O18   A    
C34   O30   S    
C3    C12   S    
C18   C26   A    
C7    C50   S    
C48   O32   S    
C33   O29   S    
C5    C7    D    
C14   C22   A    
C12   F10   S    
O23   H3    S    
C40   C42   A    
C37   C39   A    
C46   O34   S    
C38   C40   A    
O31   H11   S    
O15   C51   A    
C6    F2    S    
O11   C51   A    
C36   C38   A    
O6    V2    S    
C14   C51   S    
C29   C31   A    
C30   C32   A    
C32   C34   A    
C16   C48   A    
O11   V4    S    
C7    F5    S    
C10   F8    S    
O20   V3    S    
C8    C49   S    
C24   C28   A    
C35   C37   A    
C15   C45   A    
C13   C52   S    
O5    V1    S    
C39   C43   A    
C47   O31   S    
O16   C52   A    
C39   C41   A    
C22   O24   S    
O14   C50   A    
O4    V2    S    
C23   C27   A    
C1    C16   S    
C31   C33   A    
C2    C15   S    
O6    C4    A    
C5    F1    S    
O14   V4    S    
O12   C52   A    
O1    V2    S    
O2    V1    S    
C21   O23   S    
C29   C41   A    
O4    C2    A    
C37   O35   S    
C9    C11   D    
O18   V4    S    
O19   V4    S    
C10   C12   D    
O12   V3    S    
O15   V3    S    
C25   C33   A    
C24   C26   A    
O3    V1    S    
C27   C35   A    
O34   H14   S    
C28   C36   A    
O33   H13   S    
C6    C10   S    
C35   F3    S    
O3    C1    A    
C6    C8    D    
C19   O21   S    
C16   C46   A    
O16   V4    S    
O30   H10   S    
C31   O25   S    
C43   C45   A    
O7    V1    S    
C1    O8    A    
C17   C19   A    
O8    V2    S    
O36   H16   S    
C30   C42   A    
C18   C20   A    
O35   H15   S    
C11   F9    S    
O13   V3    S    
C28   C30   A    
C21   C23   A    
C44   C46   A    
O17   V3    S    
C22   C24   A    
C5    C9    S    
C26   C34   A    
O21   H1    S    
C8    F6    S    
C36   F4    S    
O9    V2    S    
C17   C25   A    
O29   H9    S    
O10   V1    S    
C15   C47   A    
O26   H6    S    
O32   H12   S    
C32   O26   S    
C40   C44   A    
C13   C21   A    
