data_str_m2_o9_o18_f0_pcu.sym.122
_audit_creation_date              2013-03-05T16:48:29-0500
_audit_creation_method            fapswitch 2.2
_symmetry_space_group_name_H-M    P1
_symmetry_Int_Tables_number       1
_space_group_crystal_system       triclinic
_cell_length_a                    10.808024
_cell_length_b                    14.717149
_cell_length_c                    14.640252
_cell_angle_alpha                 64.069453
_cell_angle_beta                  103.670698
_cell_angle_gamma                 103.728017
_cell_volume                      2010.89544525

loop_
_atom_site_label
_atom_site_type_symbol
_atom_site_description
_atom_site_fract_x
_atom_site_fract_y
_atom_site_fract_z
_atom_type_partial_charge
O1    O     O_R   0.455540 0.022090 0.338120 -0.537928
O2    O     O_R   0.544460 0.977910 0.661880 -0.541207
O3    O     O_R   0.512510 0.160150 0.379180 -0.592721
O4    O     O_R   0.487490 0.839850 0.620820 -0.598128
C1    C     C_R   0.478106 0.120442 0.311270 0.812650
C2    C     C_R   0.522211 0.879476 0.688571 0.810080
O5    O     O_R   0.291160 0.930970 0.479480 -0.529117
O6    O     O_R   0.708840 0.069030 0.520520 -0.529975
O7    O     O_R   0.348130 0.069020 0.520540 -0.602666
O8    O     O_R   0.651870 0.930980 0.479460 -0.597820
C3    C     C_R   0.262623 0.999394 0.501338 0.805133
C4    C     C_R   0.737276 0.000524 0.498872 0.803770
Cu1   Cu    Cu3+1 0.466270 0.918260 0.475690 0.993509
Cu2   Cu    Cu3+1 0.533730 0.081740 0.524310 0.999784
H1    H     H_    0.414228 0.067496 0.899421 0.116154
H2    H     H_    0.560772 0.949639 0.103192 0.112987
C5    C     C_R   0.279680 0.959624 0.847909 -0.121621
C6    C     C_R   0.688738 0.054700 0.162253 -0.137855
H3    H     H_    0.289729 0.896346 0.922196 0.135939
H4    H     H_    0.662185 0.122042 0.095797 0.137452
C7    C     C_R   0.197880 0.944245 0.764661 -0.152388
C8    C     C_R   0.779090 0.065149 0.244304 -0.155127
H5    H     H_    0.144781 0.868836 0.775368 0.136847
H6    H     H_    0.821572 0.140828 0.240887 0.137233
C9    C     C_R   0.183914 0.026353 0.668325 0.107068
C10   C     C_R   0.814009 0.978026 0.330458 0.110417
C11   C     C_R   0.251313 0.124044 0.656645 -0.022318
C12   C     C_R   0.757717 0.880466 0.333748 -0.040920
H7    H     H_    0.238928 0.188520 0.583352 0.129380
H8    H     H_    0.783448 0.812576 0.400023 0.141699
C13   C     C_R   0.335174 0.138639 0.739534 -0.132322
C14   C     C_R   0.666041 0.870362 0.252128 -0.118085
H9    H     H_    0.388321 0.213777 0.729820 0.127140
H10   H     H_    0.621513 0.795091 0.255428 0.128501
C15   C     C_R   0.349442 0.056369 0.835150 -0.138392
C16   C     C_R   0.631679 0.957446 0.166367 -0.112823
C17   C     C_R   0.961795 0.009382 0.579790 -0.148904
C18   C     C_R   0.037461 0.989915 0.420453 -0.152025
H11   H     H_    0.931441 0.012694 0.643410 0.212731
H12   H     H_    0.067434 0.986022 0.356975 0.217297
C19   C     C_R   0.870618 0.000010 0.498038 -0.087063
C20   C     C_R   0.129086 0.000172 0.501964 -0.094532
C21   C     C_R   0.907817 0.988759 0.418049 -0.025147
C22   C     C_R   0.091563 0.011930 0.581730 -0.024360
C23   C     C_R   0.453534 0.188297 0.201448 -0.061824
C24   C     C_R   0.520051 0.810123 0.797285 -0.055478
C25   C     C_R   0.384522 0.213578 0.023007 -0.201874
C26   C     C_R   0.493495 0.777893 0.968811 -0.202886
C27   C     C_R   0.414429 0.148715 0.125842 -0.144338
C28   C     C_R   0.520704 0.846508 0.871197 -0.141450
C29   C     C_R   0.461624 0.293350 0.172248 -0.235322
C30   C     C_R   0.500600 0.704721 0.824568 -0.227306
C31   C     C_R   0.417466 0.357580 0.071145 0.083458
C32   C     C_R   0.455505 0.635669 0.916479 0.078594
C33   C     C_R   0.387390 0.318087 0.995009 0.126282
C34   C     C_R   0.458732 0.672941 0.991400 0.131662
C35   C     C_R   0.410807 0.461684 0.042897 0.016857
C36   C     C_R   0.413896 0.530050 0.938134 0.011916
C37   C     C_R   0.368892 0.488714 0.861343 0.121503
C38   C     C_R   0.394204 0.500279 0.112887 0.139708
C39   C     C_R   0.358072 0.382791 0.892145 -0.247320
C40   C     C_R   0.422816 0.605780 0.086553 -0.253254
H13   H     H_    0.326973 0.350127 0.835315 0.148405
H14   H     H_    0.415574 0.636040 0.140276 0.137327
H15   H     H_    0.522121 0.677729 0.773635 0.155814
H16   H     H_    0.506915 0.325166 0.227948 0.163473
H17   H     H_    0.538876 0.927697 0.852913 0.180542
H18   H     H_    0.409091 0.068062 0.145661 0.183994
H19   H     H_    0.358102 0.181954 0.965490 0.139647
H20   H     H_    0.494798 0.807239 0.025284 0.124534
N1    N     N_R   0.584450 0.204570 0.560790 -0.244006
N2    N     N_R   0.415550 0.795430 0.439210 -0.244858
C41   C     C_R   0.720835 0.288736 0.666764 0.017592
C42   C     C_R   0.270995 0.703616 0.343705 0.009916
C43   C     C_R   0.687951 0.207130 0.635367 0.532136
C44   C     C_R   0.306628 0.788324 0.370262 0.529137
C45   C     C_R   0.510953 0.281231 0.517299 -0.074556
C46   C     C_R   0.489706 0.719203 0.483326 -0.086416
C47   C     C_R   0.547423 0.370080 0.539611 -0.066186
C48   C     C_R   0.450166 0.626918 0.467081 -0.066686
C49   C     C_R   0.664559 0.378028 0.605614 -0.044377
C50   C     C_R   0.329749 0.615895 0.405854 -0.047889
C51   C     C_R   0.472410 0.451194 0.498387 0.043581
C52   C     C_R   0.524153 0.544836 0.510624 0.035849
C53   C     C_R   0.650815 0.555577 0.561024 -0.273551
C54   C     C_R   0.343603 0.438145 0.452811 -0.305403
C55   C     C_R   0.721680 0.474691 0.607265 0.359003
C56   C     C_R   0.270367 0.517377 0.410764 0.315445
H21   H     H_    0.574750 0.729177 0.535911 0.154589
H22   H     H_    0.428065 0.274320 0.461571 0.144919
H23   H     H_    0.699792 0.628446 0.561098 0.170395
H24   H     H_    0.295194 0.364180 0.455384 0.170582
C57   C     C_3   0.309416 0.548334 0.750621 -0.411074
C58   C     C_3   0.204204 0.605027 0.744615 -0.643058
H25   H     H_    0.132655 0.551582 0.794936 0.273889
H26   H     H_    0.244350 0.669569 0.767978 0.221606
H27   H     H_    0.154535 0.636852 0.664139 0.283345
H28   H     H_    0.381286 0.600102 0.700791 0.195585
H29   H     H_    0.262126 0.494969 0.712929 0.231662
C59   C     C_3   0.323569 0.436510 0.205332 -0.394479
C60   C     C_3   0.192110 0.380665 0.176405 -0.747902
H30   H     H_    0.141498 0.340269 0.244479 0.267980
H31   H     H_    0.132359 0.436180 0.114332 0.255763
H32   H     H_    0.202029 0.322652 0.150596 0.248150
H33   H     H_    0.380856 0.382311 0.270211 0.189490
H34   H     H_    0.304670 0.486970 0.237290 0.213691
N3    N     N_R   0.856898 0.497018 0.641964 0.103297
O9    O     O_R   0.940679 0.459296 0.623130 -0.319001
O10   O     O_R   0.897738 0.564451 0.681674 -0.413163
N4    N     N_R   0.132492 0.492675 0.387947 0.115775
O11   O     O_R   0.056871 0.535223 0.409383 -0.301518
O12   O     O_R   0.082138 0.417819 0.359494 -0.381515
N5    N     N_R   0.216446 0.857927 0.335913 0.122231
O13   O     O_R   0.234795 0.946801 0.260538 -0.410243
O14   O     O_R   0.101993 0.822360 0.362162 -0.387261
N6    N     N_R   0.774367 0.134144 0.673752 0.121920
O15   O     O_R   0.755218 0.050124 0.754691 -0.403724
O16   O     O_R   0.889899 0.166476 0.649442 -0.375924
C61   C     C_3   0.796605 0.270762 0.773828 -0.301170
C62   C     C_3   0.713198 0.199405 0.856737 -0.879134
H35   H     H_    0.629689 0.235263 0.849383 0.237539
H36   H     H_    0.676410 0.124804 0.851065 0.281609
H37   H     H_    0.771170 0.185292 0.933854 0.256035
H38   H     H_    0.884950 0.238467 0.785738 0.259760
H39   H     H_    0.828174 0.341235 0.787726 0.232970
C63   C     C_3   0.183170 0.713565 0.242428 -0.291264
C64   C     C_3   0.247748 0.792100 0.150349 -0.897708
H40   H     H_    0.261238 0.870479 0.146641 0.290730
H41   H     H_    0.343220 0.773331 0.154892 0.228409
H42   H     H_    0.186380 0.790931 0.078299 0.253442
H43   H     H_    0.161095 0.641468 0.231216 0.222496
H44   H     H_    0.089952 0.734730 0.239596 0.266556

loop_
_geom_bond_atom_site_label_1
_geom_bond_atom_site_label_2
_geom_bond_distance
_ccdc_geom_bond_type
C47   C51   1.429891 A    
C57   C58   1.528351 S    
C41   C61   1.526745 S    
C27   H18   1.081959 S    
C11   H7    1.082422 S    
C19   C21   1.408602 A    
Cu2   N1    2.022171 S    
C48   C52   1.431493 A    
C53   H23   1.077787 S    
C25   C27   1.393521 A    
C61   H38   1.110056 S    
O5    C3    1.299031 A    
C59   H33   1.102546 S    
C60   H30   1.109538 S    
C42   C44   1.406732 A    
O1    C1    1.299736 A    
C14   C16   1.398264 A    
C8    H6    1.083145 S    
C18   H12   1.081476 S    
C18   C20   1.398389 A    
C54   C56   1.394696 A    
C23   C29   1.398659 A    
C24   C30   1.397519 A    
N6    O15   1.299614 A    
C3    C20   1.448255 S    
C38   C40   1.399998 A    
C41   C49   1.411183 A    
O4    Cu1   1.910422 S    
C39   H13   1.084996 S    
N4    O11   1.301776 A    
C25   H19   1.083162 S    
N2    C46   1.366176 A    
C62   H36   1.107842 S    
C40   H14   1.083987 S    
N3    O9    1.301782 A    
C13   H9    1.082865 S    
C23   C27   1.403250 A    
C28   H17   1.082453 S    
C57   H29   1.112547 S    
C62   H37   1.110281 S    
N2    C44   1.374021 A    
C56   N4    1.441560 S    
C26   C28   1.394318 A    
C60   H31   1.110896 S    
Cu1   Cu2   2.691984 S    
N3    O10   1.301201 A    
O2    C2    1.301209 A    
C20   C22   1.411412 A    
C42   C50   1.409417 A    
C9    C22   1.478254 S    
H1    C15   1.082311 S    
C30   C32   1.399979 A    
C10   C21   1.477812 S    
C31   C33   1.411237 A    
C46   H21   1.076751 S    
C32   C34   1.415707 A    
C45   H22   1.078140 S    
C37   C39   1.403846 A    
C53   C55   1.394571 A    
C11   C13   1.398552 A    
C12   C14   1.399131 A    
C45   C47   1.428281 A    
C52   C53   1.401905 A    
C48   C50   1.413927 A    
C47   C49   1.414393 A    
C31   C35   1.416932 A    
C35   C38   1.431461 A    
C58   H27   1.110608 S    
C38   C59   1.527360 S    
C36   C37   1.438684 A    
C1    C23   1.474005 S    
C5    C7    1.398295 A    
C29   C31   1.403139 A    
C29   H16   1.077176 S    
C14   H10   1.082714 S    
O7    Cu2   1.959713 S    
C64   H41   1.110064 S    
C4    C19   1.445938 S    
C51   C52   1.430703 A    
C63   H44   1.109819 S    
O6    C4    1.297672 A    
C44   N5    1.429657 S    
C46   C48   1.429263 A    
C58   H26   1.107194 S    
O7    C3    1.289484 A    
C49   C55   1.418344 A    
O3    Cu2   1.910422 S    
O8    C4    1.289322 A    
C61   H39   1.103310 S    
O4    C2    1.300330 A    
C60   H32   1.108138 S    
C7    H5    1.083363 S    
C34   C40   1.391970 A    
O1    Cu1   1.920162 S    
C41   C43   1.408182 A    
C64   H40   1.106323 S    
N1    C45   1.366508 A    
C62   H35   1.111380 S    
C25   C33   1.402378 A    
N5    O13   1.298406 A    
C32   C36   1.422530 A    
C26   C34   1.404582 A    
C7    C9    1.402716 A    
O6    Cu2   1.961306 S    
C2    C24   1.470048 S    
C6    C8    1.398595 A    
C10   C12   1.404547 A    
C26   H20   1.083608 S    
O3    C1    1.303259 A    
O8    Cu1   1.959712 S    
C61   C62   1.530329 S    
Cu1   N2    2.022171 S    
C9    C11   1.404893 A    
C5    C15   1.398238 A    
C24   C28   1.399667 A    
C59   H34   1.110478 S    
C17   C22   1.387962 A    
C12   H8    1.083315 S    
C64   H42   1.110246 S    
C18   C21   1.389525 A    
C17   H11   1.081325 S    
C54   H24   1.078535 S    
H2    C16   1.082607 S    
N1    C43   1.372418 A    
C35   C36   1.422851 A    
C42   C63   1.527001 S    
C63   H43   1.106068 S    
C63   C64   1.529548 S    
C50   C56   1.417144 A    
C33   C39   1.392329 A    
C13   C15   1.397720 A    
C59   C60   1.529477 S    
C5    H3    1.080866 S    
N6    O16   1.300854 A    
C6    H4    1.082087 S    
C17   C19   1.394626 A    
C58   H25   1.110516 S    
O2    Cu2   1.920163 S    
N4    O12   1.301151 A    
O5    Cu1   1.961305 S    
C51   C54   1.402239 A    
C55   N3    1.438401 S    
C8    C10   1.402739 A    
C43   N6    1.429006 S    
C37   C57   1.530358 S    
C6    C16   1.398489 A    
C57   H28   1.103134 S    
C30   H15   1.073692 S    
N5    O14   1.301278 A    
