data_str_m9_o8_o16_f0_sra.sym.47
_audit_creation_date              2012-12-11T17:44:00-0500
_audit_creation_method            fapswitch 2.2
_symmetry_space_group_name_H-M    P1
_symmetry_Int_Tables_number       1
_space_group_crystal_system       monoclinic
_cell_length_a                    20.26528
_cell_length_b                    22.733317
_cell_length_c                    6.943286
_cell_angle_alpha                 90.0
_cell_angle_beta                  87.435166
_cell_angle_gamma                 90.0
_cell_volume                      3195.54683562

loop_
_atom_site_label
_atom_site_type_symbol
_atom_type_description
_atom_site_fract_x
_atom_site_fract_y
_atom_site_fract_z
_atom_type_partial_charge
O1    O     O_R   0.751270 0.447300 0.600030 -0.542272
O2    O     O_R   0.248730 0.947300 0.399970 -0.542271
O3    O     O_R   0.613530 0.440160 0.952150 -0.532957
O4    O     O_R   0.386470 0.940160 0.047850 -0.532958
O5    O     O_R   0.613050 0.552700 0.122560 -0.533433
O6    O     O_R   0.386950 0.052700 0.877440 -0.533434
C1    C     C_R   0.591610 0.425376 0.786318 0.690100
C2    C     C_R   0.408390 0.925376 0.213682 0.690101
O7    O     O_R   0.750780 0.440350 0.929820 -0.548796
O8    O     O_R   0.249220 0.940350 0.070180 -0.548797
O9    O     O_R   0.751280 0.552900 0.100070 -0.548224
O10   O     O_R   0.248720 0.052900 0.899930 -0.548224
C3    C     C_R   0.773996 0.426379 0.758341 0.707446
C4    C     C_R   0.226003 0.926379 0.241659 0.707445
O11   O     O_R   0.613040 0.447100 0.622520 -0.539939
O12   O     O_R   0.386960 0.947100 0.377480 -0.539939
O13   O     O_3   0.682160 0.536920 0.777780 -0.358032
O14   O     O_3   0.317840 0.036920 0.222220 -0.358032
V1    V     V_3+5 0.682160 0.493150 0.052630 1.440592
V2    V     V_3+5 0.317840 0.993150 0.947370 1.440592
O15   O     O_R   0.750790 0.559840 0.429870 -0.508115
O16   O     O_R   0.249210 0.059840 0.570130 -0.508115
C5    C     C_R   0.773624 0.574407 0.258359 0.723264
C6    C     C_R   0.226376 0.074407 0.741641 0.723264
O17   O     O_R   0.613540 0.559650 0.452200 -0.542285
O18   O     O_R   0.386460 0.059650 0.547800 -0.542285
C7    C     C_R   0.591558 0.574354 0.285942 0.766368
C8    C     C_R   0.408442 0.074354 0.714057 0.766369
V3    V     V_3+5 0.682160 0.506850 0.552630 1.469736
V4    V     V_3+5 0.317840 0.006850 0.447370 1.469736
O19   O     O_3   0.682150 0.463080 0.277610 -0.375155
O20   O     O_3   0.317850 0.963080 0.722390 -0.375155
C9    C     C_R   0.579508 0.860816 0.197407 -0.163263
C10   C     C_R   0.420492 0.360816 0.802593 -0.163264
H1    H     H_    0.538562 0.946874 0.162780 0.110836
H2    H     H_    0.461438 0.446873 0.837220 0.110836
H3    H     H_    0.670483 0.777976 0.226639 0.126721
H4    H     H_    0.329517 0.277976 0.773361 0.126721
H5    H     H_    0.629745 0.876996 0.180613 0.120720
H6    H     H_    0.370255 0.376996 0.819388 0.120720
C11   C     C_R   0.462417 0.881878 0.215202 -0.037663
C12   C     C_R   0.537583 0.381878 0.784798 -0.037663
C13   C     C_R   0.471110 0.593211 0.276932 0.252052
C14   C     C_R   0.528889 0.093211 0.723068 0.252053
C15   C     C_R   0.416658 0.631044 0.268113 0.350101
C16   C     C_R   0.583342 0.131044 0.731887 0.350101
C17   C     C_R   0.426341 0.692223 0.262130 -0.297497
C18   C     C_R   0.573659 0.192223 0.737870 -0.297497
C19   C     C_R   0.490182 0.717154 0.261013 0.045402
C20   C     C_R   0.509818 0.217154 0.738987 0.045402
C21   C     C_R   0.545436 0.678224 0.270117 0.002778
C22   C     C_R   0.454564 0.178224 0.729883 0.002778
C23   C     C_R   0.501002 0.779444 0.244299 0.110710
C24   C     C_R   0.498998 0.279444 0.755701 0.110710
C25   C     C_R   0.566958 0.800664 0.226862 0.132130
C26   C     C_R   0.433042 0.300664 0.773138 0.132130
C27   C     C_R   0.620128 0.761805 0.237481 -0.191135
C28   C     C_R   0.379872 0.261805 0.762519 -0.191135
C29   C     C_R   0.609665 0.701783 0.261201 -0.146474
C30   C     C_R   0.390335 0.201783 0.738799 -0.146474
C31   C     C_R   0.449016 0.821669 0.242581 -0.212701
C32   C     C_R   0.550984 0.321669 0.757419 -0.212700
C33   C     C_R   0.527672 0.900800 0.188111 -0.180713
C34   C     C_R   0.472328 0.400800 0.811889 -0.180713
C35   C     C_R   0.535496 0.616311 0.282142 -0.195444
C36   C     C_R   0.464504 0.116311 0.717858 -0.195444
H7    H     H_    0.397794 0.809515 0.263178 0.095063
H8    H     H_    0.602206 0.309515 0.736822 0.095062
H9    H     H_    0.382946 0.719158 0.252652 0.120106
H10   H     H_    0.617054 0.219158 0.747348 0.120106
H11   H     H_    0.652704 0.673764 0.268050 0.109879
H12   H     H_    0.347296 0.173764 0.731949 0.109879
C37   C     C_R   0.170376 0.883667 0.256126 -0.108152
C38   C     C_R   0.829624 0.383667 0.743874 -0.108152
C39   C     C_R   0.132474 0.872172 0.095511 -0.227189
C40   C     C_R   0.867526 0.372172 0.904489 -0.227189
C41   C     C_R   0.078647 0.833187 0.107289 0.285143
C42   C     C_R   0.921353 0.333187 0.892711 0.285143
C43   C     C_R   0.062867 0.803364 0.284103 0.358822
C44   C     C_R   0.937133 0.303364 0.715897 0.358822
C45   C     C_R   0.100825 0.815438 0.443349 -0.208579
C46   C     C_R   0.899175 0.315438 0.556651 -0.208579
C47   C     C_R   0.153694 0.854980 0.430461 -0.200109
C48   C     C_R   0.846306 0.354980 0.569539 -0.200109
C49   C     C_R   0.901296 0.691708 0.379290 -0.244606
C50   C     C_R   0.098704 0.191708 0.620710 -0.244606
C51   C     C_R   0.846727 0.653095 0.400096 0.310768
C52   C     C_R   0.153273 0.153095 0.599904 0.310768
C53   C     C_R   0.938446 0.695874 0.202995 0.396236
C54   C     C_R   0.061554 0.195874 0.797004 0.396236
N1    N     N_2   0.007205 0.765279 0.315025 -0.303891
N2    N     N_2   0.992795 0.265280 0.684975 -0.303891
N3    N     N_2   0.994473 0.733660 0.174421 -0.299048
N4    N     N_2   0.005527 0.233660 0.825578 -0.299048
C55   C     C_R   0.829154 0.617673 0.242185 -0.077299
C56   C     C_R   0.170846 0.117673 0.757815 -0.077299
H13   H     H_    0.914531 0.718243 0.501181 0.134197
H14   H     H_    0.085469 0.218244 0.498818 0.134197
H15   H     H_    0.089362 0.793669 0.579128 0.151698
H16   H     H_    0.910638 0.293669 0.420872 0.151698
H17   H     H_    0.181668 0.862881 0.557243 0.145929
H18   H     H_    0.818332 0.362881 0.442757 0.145929
C57   C     C_R   0.866166 0.622879 0.066603 -0.274255
C58   C     C_R   0.133834 0.122879 0.933397 -0.274255
C59   C     C_R   0.919860 0.661343 0.047844 -0.202062
C60   C     C_R   0.080140 0.161343 0.952156 -0.202062
H19   H     H_    0.854228 0.596434 0.943178 0.175350
H20   H     H_    0.145772 0.096434 0.056821 0.175349
H21   H     H_    0.947527 0.664045 0.910965 0.135652
H22   H     H_    0.052473 0.164045 0.089035 0.135652
H23   H     H_    0.143571 0.894672 0.960296 0.149138
H24   H     H_    0.856428 0.394672 0.039704 0.149138
N5    N     N_2   0.040295 0.827366 0.941855 -0.528304
H25   H     H_    0.034749 0.785153 0.891534 0.273883
C61   C     C_3   0.980495 0.862062 0.945971 -0.511582
H26   H     H_    0.956806 0.858022 0.805433 0.196569
H27   H     H_    0.992137 0.909188 0.970104 0.199634
H28   H     H_    0.945296 0.846336 0.061986 0.211003
N6    N     N_2   0.959705 0.327366 0.058145 -0.528305
H29   H     H_    0.965251 0.285153 0.108466 0.273884
C62   C     C_3   0.019505 0.362062 0.054029 -0.511582
H30   H     H_    0.043194 0.358022 0.194567 0.196569
H31   H     H_    0.007862 0.409188 0.029898 0.199635
H32   H     H_    0.054704 0.346336 0.938014 0.211002
N7    N     N_2   0.461449 0.531172 0.271538 -0.520130
H33   H     H_    0.426413 0.517898 0.177356 0.281669
C63   C     C_3   0.451906 0.504078 0.458900 -0.514054
H34   H     H_    0.405047 0.519640 0.531026 0.211786
H35   H     H_    0.493738 0.514585 0.550907 0.194555
H36   H     H_    0.449389 0.455598 0.441472 0.201375
N8    N     N_2   0.538551 0.031172 0.728462 -0.520129
H37   H     H_    0.573586 0.017898 0.822645 0.281669
C64   C     C_3   0.548095 0.004078 0.541101 -0.514058
H38   H     H_    0.594954 0.019639 0.468976 0.211787
H39   H     H_    0.506263 0.014585 0.449093 0.194555
H40   H     H_    0.550611 0.955598 0.558528 0.201375
O21   O     O_3   0.354141 0.606868 0.264878 -0.646381
H41   H     H_    0.321027 0.638851 0.259043 0.289283
O22   O     O_3   0.645859 0.106868 0.735122 -0.646381
H42   H     H_    0.678973 0.138851 0.740958 0.289283
O23   O     O_3   0.809922 0.650016 0.572206 -0.639807
H43   H     H_    0.828373 0.677745 0.666025 0.282856
O24   O     O_3   0.190078 0.150016 0.427794 -0.639807
H44   H     H_    0.171627 0.177746 0.333975 0.282856

loop_
_geom_bond_atom_site_label_1
_geom_bond_atom_site_label_2
_ccdc_geom_bond_type
C9    C25   A    
C52   C56   A    
C10   C26   A    
O11   V3    S    
C48   H18   S    
C23   C25   A    
C14   C36   A    
C11   C31   A    
O4    C2    A    
V1    O19   S    
C13   N7    S    
C58   C60   A    
C17   C19   A    
C14   N8    S    
O9    V1    S    
C9    H5    S    
C38   C40   A    
C5    C55   S    
C10   H6    S    
C40   C42   A    
O3    C1    A    
C6    C56   S    
V2    O20   S    
C42   C44   A    
C27   C29   A    
C30   H12   S    
C28   C30   A    
O24   H44   S    
O13   V3    S    
C21   C35   A    
C1    C12   S    
O7    C3    A    
C17   H9    S    
C62   H32   S    
C22   C30   A    
O5    C7    A    
C23   C31   A    
O7    V1    S    
O6    C8    A    
O8    V2    S    
C19   C21   A    
C51   C55   A    
C64   H40   S    
C20   C22   A    
O3    V1    S    
O14   V4    S    
C47   H17   S    
C12   C32   A    
C52   O24   S    
C43   N1    S    
C9    C33   A    
C15   C17   A    
C2    O12   A    
H4    C28   S    
C40   H24   S    
C37   C39   A    
C41   N5    S    
N2    N4    D    
O18   C8    A    
C45   C47   A    
C14   C16   A    
C54   N4    S    
C50   H14   S    
C16   C18   A    
C49   C51   A    
O17   V3    S    
O22   H42   S    
C24   C26   A    
C55   C57   A    
C4    C37   S    
C2    C11   S    
C54   C60   A    
C44   C46   A    
C50   C54   A    
C38   C48   A    
C43   C45   A    
C49   C53   A    
C1    O11   A    
C45   H15   S    
C15   O21   S    
C61   H27   S    
O15   V3    S    
C44   N2    S    
C8    C36   S    
C63   H35   S    
C7    C35   S    
N1    N3    D    
C13   C15   A    
C31   H7    S    
C13   C35   A    
C61   H28   S    
O10   V2    S    
C10   C34   A    
C41   C43   A    
C57   C59   A    
C20   C24   A    
C51   O23   S    
C18   C20   A    
C39   C41   A    
C62   H30   S    
N6    C62   S    
O18   V4    S    
C46   C48   A    
C25   C27   A    
O8    C4    A    
C64   H38   S    
O16   C6    A    
O1    C3    A    
C11   C33   A    
C63   H34   S    
C12   C34   A    
C58   H20   S    
C22   C36   A    
N7    C63   S    
N5    H25   S    
C60   H22   S    
C56   C58   A    
C59   H21   S    
O16   V4    S    
C46   H16   S    
C18   H10   S    
N8    C64   S    
C57   H19   S    
N6    H29   S    
O5    V1    S    
O17   C7    A    
C24   C32   A    
O21   H41   S    
O10   C6    A    
C39   H23   S    
C32   H8    S    
O2    V4    S    
O15   C5    A    
C42   N6    S    
C63   H36   S    
V3    O19   S    
O23   H43   S    
V4    O20   S    
O1    V3    S    
N7    H33   S    
O6    V2    S    
C19   C23   A    
C50   C52   A    
O9    C5    A    
O13   V1    S    
C26   C28   A    
O14   V2    S    
C53   N3    S    
N8    H37   S    
O2    C4    A    
C62   H31   S    
C49   H13   S    
O4    V2    S    
C21   C29   A    
C3    C38   S    
C53   C59   A    
C64   H39   S    
H1    C33   S    
H2    C34   S    
O12   V4    S    
C37   C47   A    
H3    C27   S    
C61   H26   S    
C29   H11   S    
C16   O22   S    
N5    C61   S    
