data_str_m2_o1_o13_f0_pcu.sym.205
_audit_creation_date              2012-12-10T17:56:20-0500
_audit_creation_method            fapswitch 2.2
_symmetry_space_group_name_H-M    P1
_symmetry_Int_Tables_number       1
_space_group_crystal_system       triclinic
_cell_length_a                    13.026332
_cell_length_b                    10.876079
_cell_length_c                    9.497524
_cell_angle_alpha                 90.802745
_cell_angle_beta                  95.556672
_cell_angle_gamma                 91.530959
_cell_volume                      1338.5783825

loop_
_atom_site_label
_atom_site_type_symbol
_atom_type_description
_atom_site_fract_x
_atom_site_fract_y
_atom_site_fract_z
_atom_type_partial_charge
C1    C     C_R   0.505197 0.262327 0.499045 0.971456
C2    C     C_R   0.495433 0.737743 0.501172 0.985784
C3    C     C_R   0.493736 0.871763 0.504131 -0.168790
C4    C     C_R   0.507713 0.128337 0.496810 -0.200448
C5    C     C_R   0.422180 0.442036 0.063118 0.042653
C6    C     C_R   0.577449 0.558727 0.936825 0.083076
C7    C     C_R   0.422511 0.441415 0.914261 -0.049365
C8    C     C_R   0.577275 0.559021 0.085706 0.037237
C9    C     C_R   0.300669 0.496363 0.474199 0.949102
C10   C     C_R   0.699382 0.502711 0.525831 0.964776
C11   C     C_R   0.811418 0.521183 0.539212 -0.253462
C12   C     C_R   0.188543 0.479091 0.460694 -0.245649
C13   C     C_R   0.042492 0.340599 0.481855 -0.129016
C14   C     C_R   0.956234 0.660159 0.512410 -0.182201
C15   C     C_R   0.146060 0.358502 0.463316 0.291861
C16   C     C_R   0.853039 0.641864 0.532620 0.292537
C17   C     C_R   0.124023 0.581307 0.463083 0.236010
C18   C     C_R   0.876477 0.419553 0.538181 0.330212
C19   C     C_R   0.020100 0.561185 0.492530 -0.059703
C20   C     C_R   0.979632 0.439652 0.505497 -0.049322
C21   C     C_R   0.527977 0.058266 0.376136 0.448503
C22   C     C_R   0.475170 0.941744 0.625780 0.461210
C23   C     C_R   0.517126 0.931450 0.380977 -0.157343
C24   C     C_R   0.484254 0.068707 0.620031 -0.223393
Cu1   Cu    Cu3+1 0.500000 0.500020 0.640660 1.076936
Cu2   Cu    Cu3+1 0.500000 0.499980 0.359340 1.098293
H1    H     H_    0.012144 0.247462 0.479240 0.238863
H2    H     H_    0.984971 0.753697 0.509801 0.239778
H3    H     H_    0.360807 0.393703 0.849222 0.171952
H4    H     H_    0.638927 0.606823 0.150750 0.163136
N1    N     N_R   0.500030 0.500030 0.852080 -0.186937
N2    N     N_R   0.499970 0.499970 0.147920 -0.182379
O1    O     O_R   0.499990 0.319660 0.618740 -0.584779
O2    O     O_R   0.500010 0.680340 0.381260 -0.584892
O3    O     O_R   0.499990 0.319630 0.381170 -0.515259
O4    O     O_R   0.500010 0.680370 0.618830 -0.519649
O5    O     O_R   0.349000 0.499990 0.599490 -0.588490
O6    O     O_R   0.651000 0.500010 0.400510 -0.584201
O7    O     O_R   0.348990 0.499960 0.361920 -0.559913
O8    O     O_R   0.651010 0.500040 0.638080 -0.548698
S1    S     S_3+6 0.832006 0.269687 0.585514 0.031604
O9    O     O_2   0.813467 0.190370 0.454290 -0.208055
O10   O     O_2   0.913668 0.213005 0.685059 -0.259405
O11   O     O_3   0.723316 0.272749 0.666975 -0.541601
H5    H     H_    0.708842 0.186029 0.690870 0.385610
S2    S     S_3+6 0.170520 0.732847 0.424117 0.057283
O12   O     O_2   0.274355 0.732427 0.368364 -0.271079
O13   O     O_2   0.095708 0.787488 0.313324 -0.190438
O14   O     O_3   0.177917 0.823444 0.570054 -0.459603
H6    H     H_    0.159559 0.769422 0.647378 0.344779
S3    S     S_3+6 0.777812 0.774052 0.543060 0.022684
O15   O     O_2   0.712011 0.784756 0.405378 -0.280939
O16   O     O_2   0.710311 0.762489 0.661988 -0.314220
O17   O     O_3   0.852531 0.902499 0.569420 -0.431700
H7    H     H_    0.884443 0.897512 0.668102 0.368874
S4    S     S_3+6 0.220876 0.226082 0.451006 0.041855
O18   O     O_2   0.288136 0.239083 0.332030 -0.249002
O19   O     O_2   0.287246 0.213398 0.588045 -0.333505
O20   O     O_3   0.145571 0.098396 0.420965 -0.410172
H8    H     H_    0.129109 0.071543 0.515653 0.394782
S5    S     S_3+6 0.568613 0.119997 0.217226 0.099762
O21   O     O_2   0.646375 0.223741 0.248233 -0.235415
O22   O     O_2   0.616510 0.021799 0.133984 -0.217132
O23   O     O_3   0.464756 0.171498 0.119274 -0.483819
H9    H     H_    0.488824 0.187875 0.025350 0.371616
S6    S     S_3+6 0.440987 0.879510 0.788042 0.078351
O24   O     O_2   0.536732 0.833273 0.868904 -0.262042
O25   O     O_2   0.396229 0.976935 0.875825 -0.233069
O26   O     O_3   0.353322 0.763374 0.759330 -0.503502
H10   H     H_    0.349500 0.725377 0.852927 0.368532
H11   H     H_    0.530330 0.878148 0.287676 0.226856
H12   H     H_    0.470794 0.122107 0.713144 0.219413
H13   H     H_    0.360077 0.395074 0.110126 0.186929
H14   H     H_    0.639348 0.606060 0.889759 0.176286

loop_
_geom_bond_atom_site_label_1
_geom_bond_atom_site_label_2
_ccdc_geom_bond_type
C12   C17   A    
Cu1   N1    S    
S5    O23   S    
S6    O25   D    
C16   S3    S    
C11   C18   A    
Cu2   N2    S    
C7    H3    S    
C6    H14   S    
C5    C7    A    
C11   C16   A    
C21   S5    S    
C19   C20   A    
C12   C15   A    
C10   O6    A    
C1    C4    S    
C8    H4    S    
O23   H9    S    
S3    O17   S    
Cu1   O1    S    
C9    O5    A    
C2    C3    S    
C1    O1    A    
O20   H8    S    
S4    O18   D    
C4    C21   A    
S1    O10   D    
S2    O14   S    
C2    O2    A    
O26   H10   S    
C14   C19   A    
Cu2   O6    S    
C24   H12   S    
C17   C19   A    
S4    O19   D    
C6    N1    A    
C22   C24   A    
C13   C15   A    
Cu1   O8    S    
C5    H13   S    
S5    O21   D    
C4    C24   A    
S1    O11   S    
C14   C16   A    
Cu2   O7    S    
S6    O26   S    
C7    N1    A    
C9    C12   S    
Cu1   O4    S    
S3    O15   D    
C8    N2    A    
S2    O13   D    
C23   H11   S    
Cu2   O3    S    
C9    O7    A    
S6    O24   D    
C17   S2    S    
C1    O3    A    
C18   C20   A    
C10   O8    A    
O14   H6    S    
C10   C11   S    
C18   S1    S    
C2    O4    A    
S5    O22   D    
S4    O20   S    
S2    O12   D    
C13   H1    S    
C3    C22   A    
C6    C8    A    
C3    C23   A    
C13   C20   A    
C14   H2    S    
Cu1   Cu2   S    
O17   H7    S    
S1    O9    D    
C21   C23   A    
Cu2   O2    S    
C5    N2    A    
C22   S6    S    
O11   H5    S    
Cu1   O5    S    
S3    O16   D    
C15   S4    S    
