data_str_m2_o14_o18_f0_pcu.sym.18
_audit_creation_date              2012-10-26T18:50:22-0400
_audit_creation_method            fapswitch 2.2
_symmetry_space_group_name_H-M    P1
_symmetry_Int_Tables_number       1
_space_group_crystal_system       triclinic
_cell_length_a                    9.620447
_cell_length_b                    10.93781
_cell_length_c                    15.592992
_cell_angle_alpha                 85.727988
_cell_angle_beta                  74.155509
_cell_angle_gamma                 89.60421
_cell_volume                      1573.91805556

loop_
_atom_site_label
_atom_site_type_symbol
_atom_type_description
_atom_site_fract_x
_atom_site_fract_y
_atom_site_fract_z
_atom_type_partial_charge
C1    C     C_R   0.002644 0.263206 0.496318 0.545251
C2    C     C_R   0.227759 0.454093 0.048470 0.041275
C3    C     C_R   0.327561 0.492882 0.093437 0.036297
C4    C     C_R   0.918045 0.498775 0.671705 0.547069
C5    C     C_R   0.081069 0.436123 0.094162 -0.107451
C6    C     C_R   0.031319 0.455200 0.184642 -0.104952
C7    C     C_R   0.274099 0.510849 0.185101 -0.124978
C8    C     C_R   0.273182 0.117274 0.439345 -0.110019
C9    C     C_R   0.399446 0.056206 0.444122 0.201252
C10   C     C_R   0.387345 0.943511 0.494124 -0.080746
C11   C     C_R   0.252372 0.886517 0.531409 0.249944
C12   C     C_R   0.672985 0.502593 0.906270 -0.010442
C13   C     C_R   0.128036 0.938326 0.510295 -0.049289
C14   C     C_R   0.136454 0.063949 0.481629 -0.078972
C15   C     C_R   0.006869 0.129948 0.493707 -0.053262
C16   C     C_R   0.998841 0.737650 0.504077 0.555731
C17   C     C_R   0.877130 0.066131 0.509022 -0.141192
C18   C     C_R   0.877816 0.940370 0.502578 0.246629
C19   C     C_R   0.999799 0.872219 0.510256 -0.004931
C20   C     C_R   0.700724 0.642968 0.366892 -0.111044
C21   C     C_R   0.658982 0.705306 0.297307 -0.143142
C22   C     C_R   0.514160 0.713799 0.300646 0.213419
C23   C     C_R   0.773735 0.539082 0.951488 0.051050
C24   C     C_R   0.412326 0.651496 0.371006 -0.068564
C25   C     C_R   0.453344 0.572070 0.435337 0.079128
C26   C     C_R   0.602765 0.570031 0.434411 0.124861
C27   C     C_R   0.546053 0.436968 0.564997 -0.003614
C28   C     C_R   0.081997 0.499133 0.328255 0.518525
C29   C     C_R   0.397144 0.435263 0.565066 0.382954
C30   C     C_R   0.872131 0.502647 0.769159 -0.001355
C31   C     C_R   0.128145 0.490870 0.230885 -0.010723
C32   C     C_R   0.922079 0.547949 0.906618 -0.149985
C33   C     C_R   0.970927 0.528719 0.816430 -0.163381
C34   C     C_R   0.523579 0.486676 0.953573 0.016674
C35   C     C_R   0.725478 0.486583 0.814343 -0.128378
C36   C     C_3   0.833846 0.741297 0.063713 -0.135798
C37   C     C_3   0.565028 0.212943 0.423146 -0.117690
C38   C     C_3   0.158828 0.812508 0.676567 -0.091215
C39   C     C_3   0.780283 0.921670 0.388401 -0.108608
C40   C     C_3   0.425888 0.894358 0.258254 -0.127799
C41   C     C_3   0.315506 0.255739 0.649899 -0.140149
C42   C     C_R   0.476793 0.510058 0.045743 -0.014382
C43   C     C_R   0.580500 0.550434 0.086991 -0.103252
C44   C     C_R   0.725069 0.568552 0.040415 0.258613
C45   C     C_R   0.419664 0.446583 0.912153 -0.123776
C46   C     C_R   0.275121 0.431623 0.958649 -0.140617
Cu1   Cu    Cu3+1 0.140660 0.499990 0.500010 1.002078
Cu2   Cu    Cu3+1 0.859340 0.500010 0.499990 0.930924
H1    H     H_    0.004964 0.405237 0.060132 0.131403
H2    H     H_    0.910800 0.777308 0.097568 0.130142
H3    H     H_    0.282556 0.202990 0.398842 0.153598
H4    H     H_    0.557676 0.205054 0.495659 0.107356
H5    H     H_    0.494430 0.286601 0.406739 0.120342
H6    H     H_    0.677911 0.240313 0.387154 0.148021
H7    H     H_    0.482747 0.899666 0.504879 0.189453
H8    H     H_    0.042430 0.806559 0.679341 0.117313
H9    H     H_    0.185451 0.903921 0.695642 0.091791
H10   H     H_    0.179007 0.743151 0.727149 0.137002
H11   H     H_    0.870383 0.870842 0.345814 0.086593
H12   H     H_    0.776922 0.114256 0.514244 0.147091
H13   H     H_    0.799252 0.021624 0.370004 0.143389
H14   H     H_    0.678752 0.899982 0.372743 0.168401
H15   H     H_    0.808587 0.660480 0.368119 0.192987
H16   H     H_    0.738412 0.757532 0.245387 0.128355
H17   H     H_    0.515207 0.947904 0.270819 0.160771
H18   H     H_    0.330235 0.888489 0.317775 0.118253
H19   H     H_    0.392616 0.944787 0.202874 0.141703
H20   H     H_    0.302976 0.670219 0.372975 0.186440
H21   H     H_    0.317969 0.209528 0.588692 0.131332
H22   H     H_    0.222820 0.215639 0.703525 0.140285
H23   H     H_    0.579304 0.388668 0.618931 0.113447
H24   H     H_    0.414458 0.236140 0.671774 0.080232
H25   H     H_    0.918199 0.438509 0.218868 0.150694
H26   H     H_    0.199853 0.400635 0.923972 0.109359
H27   H     H_    0.000929 0.572515 0.940571 0.151529
H28   H     H_    0.445529 0.423980 0.843689 0.110853
H29   H     H_    0.343846 0.538166 0.223573 0.139271
H30   H     H_    0.085246 0.538556 0.783170 0.155367
H31   H     H_    0.654214 0.464890 0.775154 0.123885
H32   H     H_    0.554220 0.570400 0.155767 0.164023
H33   H     H_    0.728753 0.787810 0.088395 0.158983
H34   H     H_    0.878870 0.765350 0.990808 0.110093
N1    N     N_R   0.648320 0.501210 0.499140 -0.269234
N2    N     N_R   0.352470 0.501290 0.499110 -0.221211
O1    O     O_R   0.118810 0.319640 0.500010 -0.493644
O2    O     O_3   0.534433 0.099577 0.394519 -0.610472
O3    O     O_3   0.246325 0.785745 0.591698 -0.527856
O4    O     O_3   0.764098 0.887953 0.480072 -0.551539
O5    O     O_3   0.472720 0.777300 0.231893 -0.597872
O6    O     O_3   0.293132 0.382574 0.638078 -0.540575
O7    O     O_R   0.881240 0.319660 0.500000 -0.524182
O8    O     O_R   0.055570 0.499980 0.629840 -0.427116
O9    O     O_R   0.818000 0.500010 0.629830 -0.516745
O10   O     O_R   0.118760 0.680340 0.500000 -0.482633
O11   O     O_R   0.881190 0.680360 0.499990 -0.461400
O12   O     O_R   0.182000 0.499990 0.370170 -0.545633
O13   O     O_R   0.944430 0.500020 0.370160 -0.533068
O14   O     O_3   0.819130 0.613269 0.084036 -0.588542

loop_
_geom_bond_atom_site_label_1
_geom_bond_atom_site_label_2
_ccdc_geom_bond_type
C28   O13   A    
C3    C42   A    
C26   N1    A    
Cu2   O11   S    
C27   C29   A    
Cu1   O8    S    
C34   C42   A    
C32   H27   S    
C27   H23   S    
C45   C46   A    
C2    C46   A    
Cu2   O13   S    
C12   C23   A    
C30   C35   A    
C45   H28   S    
Cu1   O1    S    
C3    C7    A    
C5    C6    A    
C33   H30   S    
C18   C19   A    
C21   H16   S    
C38   H10   S    
C44   O14   S    
C22   O5    S    
C11   O3    S    
C8    C9    A    
Cu2   O7    S    
C25   N2    A    
Cu1   O12   S    
C1    C15   S    
C40   O5    S    
C9    C10   A    
C7    H29   S    
C37   H5    S    
C6    C31   A    
C1    O7    A    
C40   H18   S    
C21   C22   A    
C5    H1    S    
C39   O4    S    
C29   O6    S    
C1    O1    A    
C39   H13   S    
C7    C31   A    
Cu2   O9    S    
C13   C19   A    
C37   O2    S    
C24   C25   A    
C29   N2    A    
C36   H34   S    
C37   H4    S    
C43   H32   S    
C40   H19   S    
C18   O4    S    
C23   C44   A    
C43   C44   A    
C9    O2    S    
C38   H9    S    
Cu1   Cu2   S    
C36   H33   S    
C39   H11   S    
C17   C18   A    
C34   C45   A    
Cu1   N2    S    
C12   C35   A    
C10   H7    S    
C8    H3    S    
C41   H24   S    
C37   H6    S    
C40   H17   S    
C22   C24   A    
C2    C5    A    
C42   C43   A    
C12   C34   A    
C46   H26   S    
C36   H2    S    
C6    H25   S    
C41   H21   S    
C15   C17   A    
C39   H14   S    
C16   O11   A    
C8    C14   A    
C30   C33   A    
C28   C31   S    
C16   O10   A    
Cu2   N1    S    
C38   O3    S    
C28   O12   A    
C23   C32   A    
C20   H15   S    
C27   N1    A    
C2    C3    A    
C25   C26   A    
C32   C33   A    
C11   C13   A    
C20   C26   A    
C16   C19   S    
C35   H31   S    
Cu1   O10   S    
C41   O6    S    
C10   C11   A    
C24   H20   S    
C17   H12   S    
C4    O9    A    
C38   H8    S    
C20   C21   A    
C14   C15   A    
C36   O14   S    
C13   C14   A    
C4    C30   S    
C41   H22   S    
C4    O8    A    
