data_str_m2_o10_o17_f0_pcu.sym.164
_audit_creation_date              2012-12-10T16:44:41-0500
_audit_creation_method            fapswitch 2.2
_symmetry_space_group_name_H-M    P1
_symmetry_Int_Tables_number       1
_space_group_crystal_system       triclinic
_cell_length_a                    14.983827
_cell_length_b                    8.674838
_cell_length_c                    7.454042
_cell_angle_alpha                 102.921396
_cell_angle_beta                  93.922437
_cell_angle_gamma                 92.499335
_cell_volume                      940.416463636

loop_
_atom_site_label
_atom_site_type_symbol
_atom_type_description
_atom_site_fract_x
_atom_site_fract_y
_atom_site_fract_z
_atom_type_partial_charge
C1    C     C_R   0.497536 0.199789 0.453284 0.866678
C2    C     C_R   0.502463 0.800211 0.546716 0.866678
C3    C     C_R   0.031536 0.208634 0.422750 -0.210177
C4    C     C_R   0.968463 0.791366 0.577250 -0.210177
C5    C     C_2   0.496120 0.031836 0.427043 -0.369027
C6    C     C_2   0.503880 0.968164 0.572957 -0.369027
C7    C     C_R   0.329252 0.498062 0.502615 0.813979
C8    C     C_R   0.670748 0.501938 0.497385 0.813979
C9    C     C_R   0.818471 0.653602 0.532304 0.115663
C10   C     C_R   0.181529 0.346398 0.467696 0.115663
C11   C     C_R   0.766935 0.507900 0.492029 -0.042807
C12   C     C_R   0.233065 0.492100 0.507971 -0.042807
C13   C     C_R   0.806924 0.363558 0.452946 -0.290571
C14   C     C_R   0.193076 0.636442 0.547054 -0.290571
C15   C     C_R   0.899444 0.359615 0.455828 0.116795
C16   C     C_R   0.100556 0.640385 0.544172 0.116796
C17   C     C_R   0.953029 0.502638 0.497874 0.029958
C18   C     C_R   0.046971 0.497362 0.502126 0.029958
C19   C     C_R   0.912886 0.650637 0.535814 0.105691
C20   C     C_R   0.087113 0.349363 0.464186 0.105691
C21   C     C_R   0.938917 0.214065 0.418684 -0.205204
C22   C     C_R   0.061083 0.785934 0.581316 -0.205204
Cu1   Cu    Cu3+1 0.510010 0.517380 0.684380 0.956949
Cu2   Cu    Cu3+1 0.489990 0.482620 0.315620 0.956949
H1    H     H_    0.765432 0.253651 0.422878 0.138844
H2    H     H_    0.234568 0.746348 0.577122 0.138844
H3    H     H_    0.897981 0.103787 0.386281 0.140490
H4    H     H_    0.102019 0.896213 0.613719 0.140490
H5    H     H_    0.058582 0.092956 0.392474 0.160347
H6    H     H_    0.941418 0.907044 0.607526 0.160347
H7    H     H_    0.488605 0.960251 0.286457 0.182476
H8    H     H_    0.511395 0.039749 0.713543 0.182476
H9    H     H_    0.430037 0.377727 0.948808 0.228881
H10   H     H_    0.569963 0.622272 0.051192 0.228881
N1    N     N_2   0.474890 0.456420 0.038520 -0.214368
N2    N     N_2   0.525110 0.543580 0.961480 -0.214368
O1    O     O_R   0.506510 0.286130 0.619770 -0.584016
O2    O     O_R   0.493490 0.713870 0.380230 -0.584016
O3    O     O_R   0.489600 0.256770 0.308360 -0.586618
O4    O     O_R   0.510400 0.743230 0.691640 -0.586618
O5    O     O_R   0.378710 0.514640 0.655720 -0.586134
O6    O     O_R   0.621290 0.485360 0.344280 -0.586134
O7    O     O_R   0.361800 0.485290 0.344300 -0.572561
O8    O     O_R   0.638200 0.514710 0.655700 -0.572561
C23   C     C_3   0.773840 0.810230 0.570686 -0.878223
H11   H     H_    0.699741 0.796960 0.560326 0.225257
H12   H     H_    0.795815 0.878659 0.712488 0.236172
H13   H     H_    0.792435 0.879681 0.469067 0.221526
C24   C     C_3   0.226160 0.189770 0.429314 -0.878223
H14   H     H_    0.300259 0.203040 0.439675 0.225257
H15   H     H_    0.207565 0.120319 0.530933 0.221526
H16   H     H_    0.204185 0.121341 0.287512 0.236172

loop_
_geom_bond_atom_site_label_1
_geom_bond_atom_site_label_2
_ccdc_geom_bond_type
C5    H7    S    
C6    H8    S    
Cu1   Cu2   S    
C9    C23   S    
C10   C24   S    
C7    O7    A    
C4    C22   A    
C2    O2    A    
Cu2   O2    S    
N1    N2    D    
Cu1   O5    S    
C1    O1    A    
C9    C11   A    
C24   H16   S    
C23   H12   S    
C17   C18   A    
C21   H3    S    
C3    C20   A    
C22   H4    S    
C23   H11   S    
C14   H2    S    
C11   C13   A    
C13   H1    S    
C2    C6    S    
C10   C12   A    
C8    C11   S    
C1    C5    S    
C17   C19   A    
Cu1   O1    S    
C12   C14   A    
C24   H14   S    
H10   N2    S    
C13   C15   A    
C5    C6    D    
C14   C16   A    
C7    C12   S    
C3    C21   A    
Cu2   N1    S    
C1    O3    A    
C8    O6    A    
Cu1   O4    S    
C2    O4    A    
C15   C21   A    
Cu2   O3    S    
Cu2   O6    S    
C18   C20   A    
C16   C18   A    
Cu1   N2    S    
C23   H13   S    
C3    H5    S    
Cu2   O7    S    
C16   C22   A    
H9    N1    S    
C15   C17   A    
C4    C19   A    
C9    C19   A    
C4    H6    S    
Cu1   O8    S    
C8    O8    A    
C7    O5    A    
C10   C20   A    
C24   H15   S    
