data_str_m2_o9_o18_f0_pcu.sym.183
_audit_creation_date              2012-12-10T19:45:43-0500
_audit_creation_method            fapswitch 2.2
_symmetry_space_group_name_H-M    P1
_symmetry_Int_Tables_number       1
_space_group_crystal_system       triclinic
_cell_length_a                    10.80459
_cell_length_b                    14.669153
_cell_length_c                    14.817884
_cell_angle_alpha                 64.374618
_cell_angle_beta                  103.927167
_cell_angle_gamma                 103.059833
_cell_volume                      2035.26882096

loop_
_atom_site_label
_atom_site_type_symbol
_atom_type_description
_atom_site_fract_x
_atom_site_fract_y
_atom_site_fract_z
_atom_type_partial_charge
C1    C     C_R   0.474632 0.119999 0.312714 0.794682
C2    C     C_R   0.523905 0.880037 0.687561 0.805740
C3    C     C_R   0.870696 0.002010 0.495464 -0.081528
C4    C     C_R   0.129050 0.998123 0.503787 -0.081469
C5    C     C_R   0.905440 0.961566 0.435532 0.004097
C6    C     C_R   0.094202 0.038206 0.563832 0.001298
C7    C     C_R   0.440013 0.188274 0.207095 -0.049383
C8    C     C_R   0.553612 0.812463 0.794475 -0.060187
C9    C     C_R   0.282077 0.235423 0.053236 0.042515
C10   C     C_R   0.683387 0.778014 0.961046 0.043864
C11   C     C_R   0.326672 0.163165 0.148612 -0.301988
C12   C     C_R   0.646365 0.845798 0.861334 -0.311393
C13   C     C_R   0.505826 0.286778 0.172570 -0.253913
C14   C     C_R   0.495600 0.711685 0.827446 -0.152305
C15   C     C_R   0.459097 0.362383 0.080408 0.038495
C16   C     C_R   0.542824 0.638275 0.921206 0.073622
C17   C     C_R   0.359246 0.332213 0.012797 0.130026
C18   C     C_R   0.636644 0.671451 0.990701 0.075969
C19   C     C_R   0.514623 0.466087 0.052103 -0.051206
C20   C     C_R   0.495416 0.532531 0.948233 0.063895
C21   C     C_R   0.429347 0.491037 0.875432 -0.105469
C22   C     C_R   0.590650 0.505554 0.123687 -0.136427
C23   C     C_R   0.262756 0.999070 0.501862 0.786047
C24   C     C_R   0.737157 0.001072 0.497796 0.795627
C25   C     C_R   0.349992 0.395284 0.907480 -0.075169
C26   C     C_R   0.674562 0.597001 0.088102 0.015059
C27   C     C_R   0.723796 0.284858 0.665405 -0.118974
C28   C     C_R   0.279400 0.717602 0.331222 -0.124475
C29   C     C_R   0.683872 0.202366 0.636875 -0.028102
C30   C     C_R   0.316765 0.798319 0.362506 -0.027080
C31   C     C_R   0.517584 0.285272 0.511382 0.080373
C32   C     C_R   0.484226 0.715647 0.486697 0.058496
C33   C     C_R   0.551033 0.371922 0.536324 -0.068233
C34   C     C_R   0.452451 0.630282 0.459757 -0.102549
C35   C     C_R   0.662672 0.374437 0.610021 0.038978
C36   C     C_R   0.341808 0.628520 0.384928 0.042970
C37   C     C_R   0.479021 0.456367 0.488348 0.044637
C38   C     C_R   0.525415 0.546377 0.506725 0.008961
C39   C     C_R   0.646041 0.551699 0.568338 -0.270326
C40   C     C_R   0.359885 0.451981 0.424831 -0.322364
C41   C     C_R   0.713262 0.467091 0.622187 0.507745
C42   C     C_R   0.293991 0.537106 0.369668 0.515265
C43   C     C_R   0.365649 0.047553 0.776895 -0.119170
C44   C     C_R   0.631875 0.949067 0.224401 -0.118438
C45   C     C_R   0.266106 0.009484 0.716962 -0.101209
C46   C     C_R   0.729792 0.988014 0.284622 -0.097969
C47   C     C_R   0.190141 0.076201 0.634157 0.117932
C48   C     C_R   0.809650 0.922849 0.365422 0.115116
C49   C     C_R   0.212687 0.180759 0.613864 -0.171341
C50   C     C_R   0.793130 0.819167 0.382697 -0.180451
C51   C     C_R   0.312400 0.218436 0.673885 -0.071792
C52   C     C_R   0.695463 0.780686 0.321972 -0.061451
C53   C     C_R   0.389439 0.152071 0.754861 -0.041353
C54   C     C_R   0.613957 0.845319 0.243678 -0.044599
C55   C     C_R   0.965031 0.040744 0.558016 -0.227564
C56   C     C_R   0.034781 0.959330 0.441249 -0.234462
Cu1   Cu    Cu3+1 0.466270 0.918260 0.475690 0.948286
Cu2   Cu    Cu3+1 0.533730 0.081740 0.524310 0.942286
H1    H     H_    0.467545 0.181710 0.800470 0.153236
H2    H     H_    0.537360 0.815043 0.197635 0.155923
H3    H     H_    0.561322 0.719512 0.546983 0.160635
H4    H     H_    0.440756 0.280888 0.451165 0.118263
H5    H     H_    0.269170 0.865912 0.323411 0.116851
H6    H     H_    0.730592 0.134377 0.677098 0.115951
H7    H     H_    0.693454 0.623360 0.571459 0.145535
H8    H     H_    0.312733 0.381096 0.419805 0.130173
H9    H     H_    0.425407 0.996229 0.839522 0.132176
H10   H     H_    0.569045 0.999124 0.163492 0.137879
H11   H     H_    0.250405 0.928692 0.733194 0.107401
H12   H     H_    0.741297 0.068198 0.270140 0.107651
H13   H     H_    0.155777 0.233312 0.549833 0.133895
H14   H     H_    0.853582 0.767798 0.444702 0.137810
H15   H     H_    0.331001 0.299382 0.656830 0.143704
H16   H     H_    0.681956 0.700483 0.336317 0.181497
H17   H     H_    0.937957 0.070280 0.605110 0.154934
H18   H     H_    0.062068 0.929869 0.394185 0.153079
H19   H     H_    0.413859 0.691168 0.777877 0.139998
H20   H     H_    0.594011 0.303917 0.219111 0.150870
H21   H     H_    0.687171 0.925760 0.836553 0.139244
H22   H     H_    0.268563 0.089591 0.180362 0.130812
N1    N     N_R   0.584450 0.204570 0.560790 -0.173895
N2    N     N_R   0.415550 0.795430 0.439210 -0.176296
O1    O     O_R   0.455540 0.022090 0.338120 -0.582357
O2    O     O_R   0.544460 0.977910 0.661880 -0.587743
O3    O     O_R   0.512510 0.160150 0.379180 -0.586771
O4    O     O_R   0.487490 0.839850 0.620820 -0.570316
O5    O     O_R   0.291160 0.930970 0.479480 -0.589547
O6    O     O_R   0.708840 0.069030 0.520520 -0.585118
O7    O     O_R   0.348130 0.069020 0.520540 -0.575778
O8    O     O_R   0.651870 0.930980 0.479460 -0.573113
C57   C     C_2   0.147761 0.211274 0.007037 0.423218
H23   H     H_    0.105001 0.132292 0.024580 0.058440
O9    O     O_2   0.081329 0.278756 0.953754 -0.530394
C58   C     C_2   0.759697 0.825339 0.031385 0.417619
H24   H     H_    0.821601 0.897548 0.002265 0.058575
O10   O     O_2   0.748904 0.787999 0.120790 -0.562120
C59   C     C_2   0.461256 0.536788 0.770477 0.325362
H25   H     H_    0.392173 0.527565 0.707538 0.055895
O11   O     O_2   0.568011 0.583151 0.753951 -0.571508
C60   C     C_2   0.563147 0.465476 0.229407 0.322178
H26   H     H_    0.482592 0.406386 0.253190 0.087599
O12   O     O_2   0.624874 0.501933 0.289577 -0.565257
O13   O     O_3   0.838928 0.479478 0.671448 -0.584727
C61   C     C_3   0.846514 0.522627 0.741733 -0.160190
H27   H     H_    0.765442 0.489111 0.785873 0.211961
H28   H     H_    0.852534 0.607011 0.703448 0.140651
H29   H     H_    0.936659 0.505628 0.797009 0.199200
O14   O     O_3   0.172147 0.526381 0.313961 -0.569055
C62   C     C_3   0.173118 0.483736 0.244865 -0.205277
H30   H     H_    0.158681 0.399056 0.282048 0.127387
H31   H     H_    0.262437 0.512038 0.210016 0.159541
H32   H     H_    0.090861 0.506287 0.182256 0.218866
C63   C     C_2   0.821592 0.268781 0.757977 0.457068
H33   H     H_    0.901148 0.228285 0.771245 0.067440
O15   O     O_2   0.808781 0.293295 0.823753 -0.503906
C64   C     C_2   0.182507 0.735153 0.237968 0.470290
H34   H     H_    0.100937 0.772943 0.226344 0.069223
O16   O     O_2   0.198167 0.715095 0.170021 -0.502204
C65   C     C_2   0.276824 0.355813 0.829950 0.386905
H35   H     H_    0.223652 0.405402 0.760406 0.068328
O17   O     O_2   0.278163 0.268294 0.842127 -0.571164
C66   C     C_2   0.808382 0.601802 0.144594 0.468376
H36   H     H_    0.830341 0.551943 0.223977 0.125277
O18   O     O_2   0.897696 0.656332 0.101126 -0.539815

loop_
_geom_bond_atom_site_label_1
_geom_bond_atom_site_label_2
_ccdc_geom_bond_type
C56   H18   S    
C27   C29   A    
C5    C56   A    
C36   C42   A    
C19   C20   A    
C18   C26   A    
C6    C55   A    
C9    C57   S    
C61   H28   S    
C59   H25   S    
C53   H1    S    
C47   C49   A    
C54   H2    S    
O14   C62   S    
C15   C19   A    
C32   H3    S    
C37   C40   A    
C52   H16   S    
C62   H31   S    
C38   C39   A    
C14   H19   S    
C10   C58   S    
C12   H21   S    
Cu1   O4    S    
C45   C47   A    
C50   H14   S    
C28   C64   S    
C1    C7    S    
C3    C55   A    
C43   C53   A    
C44   C46   A    
C49   C51   A    
C50   C52   A    
C23   O7    A    
Cu1   O5    S    
C8    C12   A    
C55   H17   S    
C48   C50   A    
C29   H6    S    
C23   O5    A    
C30   H5    S    
C4    C56   A    
C39   H7    S    
C31   H4    S    
C3    C24   S    
C25   C65   S    
C61   H27   S    
C59   O11   D    
C52   C54   A    
C65   O17   D    
C1    O3    A    
C5    C48   S    
C46   C48   A    
C22   C60   S    
C6    C47   S    
C45   H11   S    
C19   C22   A    
C39   C41   A    
Cu1   O1    S    
Cu1   O8    S    
C62   H32   S    
C57   H23   S    
C4    C23   S    
C27   C35   A    
C33   C37   A    
C41   O13   S    
Cu2   O6    S    
C51   C53   A    
C32   C34   A    
C30   N2    A    
C7    C11   A    
C43   H9    S    
C29   N1    A    
C37   C38   A    
Cu2   O2    S    
C57   O9    D    
C21   C59   S    
C16   C20   A    
C60   O12   D    
C2    O2    A    
C58   O10   D    
C9    C11   A    
C10   C12   A    
C27   C63   S    
C4    C6    A    
C13   C15   A    
C49   H13   S    
C14   C16   A    
C44   H10   S    
C66   O18   D    
Cu2   O3    S    
C63   H33   S    
C9    C17   A    
C15   C17   A    
C21   C25   A    
C13   H20   S    
Cu2   N1    S    
C31   C33   A    
C8    C14   A    
C34   C38   A    
C24   O6    A    
C2    C8    S    
C51   H15   S    
C3    C5    A    
C24   O8    A    
C65   H35   S    
C1    O1    A    
C32   N2    A    
C31   N1    A    
C17   C25   A    
C28   C30   A    
C43   C45   A    
C62   H30   S    
Cu1   Cu2   S    
C10   C18   A    
C40   C42   A    
C60   H26   S    
C33   C35   A    
C64   O16   D    
C64   H34   S    
C2    O4    A    
C34   C36   A    
C58   H24   S    
C35   C41   A    
Cu2   O7    S    
C46   H12   S    
C11   H22   S    
C44   C54   A    
C7    C13   A    
C20   C21   A    
C28   C36   A    
C16   C18   A    
C22   C26   A    
O13   C61   S    
Cu1   N2    S    
C40   H8    S    
C26   C66   S    
C66   H36   S    
C42   O14   S    
C61   H29   S    
C63   O15   D    
