data_str_m3_o10_o29_f0_pcu.sym.57
_audit_creation_date              2013-03-05T15:42:41-0500
_audit_creation_method            fapswitch 2.2
_symmetry_space_group_name_H-M    P1
_symmetry_Int_Tables_number       1
_space_group_crystal_system       triclinic
_cell_length_a                    7.803381
_cell_length_b                    8.562892
_cell_length_c                    27.270432
_cell_angle_alpha                 90.848891
_cell_angle_beta                  86.826026
_cell_angle_gamma                 93.253185
_cell_volume                      1816.3451686

loop_
_atom_site_label
_atom_site_type_symbol
_atom_site_description
_atom_site_fract_x
_atom_site_fract_y
_atom_site_fract_z
_atom_type_partial_charge
O1    O     O_R   0.389250 0.738570 0.503220 -0.614449
O2    O     O_R   0.610750 0.261430 0.496780 -0.608094
O3    O     O_R   0.678390 0.711630 0.494810 -0.604432
O4    O     O_R   0.321610 0.288370 0.505190 -0.617230
C1    C     C_R   0.545339 0.794422 0.498771 0.939259
C2    C     C_R   0.454663 0.205577 0.501245 0.931205
O5    O     O_R   0.355440 0.513440 0.575450 -0.593170
O6    O     O_R   0.644560 0.486560 0.424550 -0.576773
O7    O     O_R   0.644590 0.486500 0.567040 -0.586647
O8    O     O_R   0.355410 0.513500 0.432960 -0.586953
C3    C     C_R   0.503704 0.498833 0.594195 0.877998
C4    C     C_R   0.497826 0.501440 0.405759 0.858181
Zn1   Zn    Zn3+2 0.306940 0.517990 0.505620 1.082597
Zn2   Zn    Zn3+2 0.693060 0.482010 0.494380 1.101475
C5    C     C_R   0.718931 0.595142 0.815702 0.595255
C6    C     C_R   0.633440 0.390848 0.179068 0.596860
O9    O     O_2   0.760095 0.721369 0.787463 -0.504347
O10   O     O_2   0.611113 0.262654 0.207468 -0.496772
N1    N     N_R   0.640207 0.464017 0.795887 -0.343031
N2    N     N_R   0.621706 0.537130 0.199636 -0.338274
C7    C     C_R   0.610262 0.329738 0.822263 0.562021
C8    C     C_R   0.666201 0.668398 0.172675 0.567374
C9    C     C_R   0.673088 0.373859 0.711323 -0.117393
C10   C     C_R   0.677369 0.627222 0.282786 -0.114168
C11   C     C_R   0.635948 0.381578 0.662601 -0.174783
C12   C     C_R   0.642367 0.618735 0.332878 -0.207835
C13   C     C_R   0.425156 0.576580 0.682515 -0.010993
C14   C     C_R   0.390898 0.442951 0.320417 -0.014587
C15   C     C_R   0.462449 0.566478 0.732600 0.374762
C16   C     C_R   0.414813 0.469049 0.269242 0.363679
C17   C     C_R   0.589645 0.466952 0.746268 0.149739
C18   C     C_R   0.566933 0.550638 0.250667 0.154288
C19   C     C_R   0.716710 0.465123 0.894013 -0.044166
C20   C     C_R   0.707731 0.506442 0.099817 -0.044145
C21   C     C_R   0.754870 0.599428 0.865421 -0.022831
C22   C     C_R   0.667170 0.373211 0.128516 -0.018342
C23   C     C_R   0.823959 0.735671 0.887205 -0.088989
C24   C     C_R   0.657035 0.225729 0.106193 -0.101844
C25   C     C_R   0.650955 0.327001 0.871565 -0.028267
C26   C     C_R   0.716951 0.654655 0.122720 -0.020806
C27   C     C_R   0.516771 0.484835 0.647386 -0.075063
C28   C     C_R   0.503903 0.523173 0.352392 -0.057991
H1    H     H_    0.859224 0.839097 0.865684 0.199251
H2    H     H_    0.626913 0.121569 0.127719 0.206452
C29   C     C_R   0.780758 0.627097 0.019879 0.050789
C30   C     C_R   0.700419 0.333539 0.973497 0.049958
C31   C     C_R   0.706061 0.343262 0.025309 0.050182
C32   C     C_R   0.790707 0.614553 0.967911 0.043247
C33   C     C_R   0.733960 0.491931 0.048167 0.080411
C34   C     C_R   0.738431 0.470485 0.945248 0.081648
C35   C     C_R   0.805866 0.772174 0.044734 -0.211436
C36   C     C_R   0.647629 0.193474 0.948981 -0.219021
C37   C     C_R   0.771964 0.785670 0.095096 -0.122446
C38   C     C_R   0.621814 0.191046 0.899062 -0.120495
O11   O     O_2   0.657927 0.811541 0.193765 -0.520247
O12   O     O_2   0.537869 0.200515 0.801104 -0.498620
C39   C     C_R   0.841720 0.743448 0.937544 -0.215003
C40   C     C_R   0.674958 0.210696 0.055512 -0.221140
H3    H     H_    0.730951 0.680025 0.356751 0.200889
H4    H     H_    0.703705 0.307892 0.636317 0.202751
H5    H     H_    0.794648 0.689120 0.268992 0.204205
H6    H     H_    0.770085 0.297258 0.721952 0.190449
H7    H     H_    0.787961 0.899806 0.112282 0.184208
H8    H     H_    0.574858 0.082429 0.882332 0.205247
H9    H     H_    0.844395 0.879486 0.026180 0.137216
H10   H     H_    0.616668 0.084575 0.967512 0.146133
H11   H     H_    0.894179 0.853238 0.951499 0.147946
H12   H     H_    0.661144 0.093288 0.041238 0.138140
C41   C     C_2   0.569296 0.957811 0.498055 -0.337162
C42   C     C_2   0.430714 0.042188 0.501998 -0.348960
H13   H     H_    0.700469 0.008140 0.494264 0.206374
H14   H     H_    0.299543 0.991858 0.505794 0.204721
N3    N     N_2   0.950320 0.457960 0.486880 0.047717
N4    N     N_2   0.049680 0.542040 0.513120 0.045881
C43   C     C_3   0.291373 0.683302 0.666466 -0.672707
H15   H     H_    0.231071 0.751079 0.696952 0.271630
H16   H     H_    0.350415 0.767745 0.639071 0.229746
H17   H     H_    0.185755 0.612347 0.650048 0.287815
C44   C     C_3   0.257608 0.320726 0.339043 -0.612197
H18   H     H_    0.127377 0.355819 0.331038 0.287670
H19   H     H_    0.281921 0.206537 0.321019 0.253551
H20   H     H_    0.263499 0.298949 0.378671 0.238011
N5    N     N_R   0.009217 0.437929 0.438646 0.293971
O13   O     O_R   0.036692 0.560864 0.411185 -0.391881
O14   O     O_R   0.968992 0.304930 0.417476 -0.410895
N6    N     N_R   0.984313 0.563023 0.560798 0.302123
O15   O     O_R   0.986225 0.449245 0.591802 -0.412979
O16   O     O_R   0.959597 0.703777 0.577172 -0.393727
N7    N     N_R   0.373985 0.656812 0.769737 0.199955
O17   O     O_R   0.394938 0.808666 0.769985 -0.317529
O18   O     O_R   0.295232 0.587337 0.807392 -0.388781
N8    N     N_R   0.288455 0.412970 0.235593 0.209880
O19   O     O_R   0.227709 0.268340 0.236175 -0.339901
O20   O     O_R   0.246828 0.503415 0.200735 -0.385360

loop_
_geom_bond_atom_site_label_1
_geom_bond_atom_site_label_2
_geom_bond_distance
_ccdc_geom_bond_type
C10   H5    1.082911 S    
C13   C15   1.417057 A    
N3    N4    1.270581 D    
C43   H15   1.105795 S    
N1    C17   1.431249 S    
C15   N7    1.435438 S    
C32   C39   1.415326 A    
C31   C33   1.420079 A    
O5    C3    1.303583 A    
C19   C25   1.407598 A    
O1    C1    1.283071 A    
N1    C7    1.367280 A    
C10   C12   1.380323 A    
N6    O16   1.300059 A    
C25   C38   1.395051 A    
C29   C35   1.415340 A    
C30   C36   1.416265 A    
C2    C42   1.401258 S    
C35   H9    1.075353 S    
C14   C28   1.417209 A    
O4    Zn1   1.975840 S    
C41   H13   1.087977 S    
C14   C44   1.506288 S    
C1    C41   1.401239 S    
C24   C40   1.386233 A    
C9    H6    1.083256 S    
C4    C28   1.467724 S    
C11   H4    1.083482 S    
N7    O18   1.301073 A    
C12   H3    1.084278 S    
C6    N2    1.370585 A    
C32   C34   1.420713 A    
O2    C2    1.283075 A    
C39   H11   1.076656 S    
C13   C43   1.512365 S    
C5    C21   1.399223 A    
C36   C38   1.386805 A    
Zn2   N3    2.028421 S    
O4    C2    1.288832 A    
C11   C27   1.402046 A    
C44   H19   1.109118 S    
N6    O15   1.300673 A    
C19   C34   1.416486 A    
C35   C37   1.388558 A    
C9    C17   1.391143 A    
C23   H1    1.083674 S    
C5    N1    1.367698 A    
O7    Zn2   1.996785 S    
C10   C18   1.393668 A    
C24   H2    1.082499 S    
C7    O12   1.350065 S    
C43   H16   1.110542 S    
C13   C27   1.418300 A    
N5    O13   1.301873 A    
C7    C25   1.399336 A    
C29   C33   1.419629 A    
O6    C4    1.293593 A    
C8    C26   1.402606 A    
N8    O20   1.301351 A    
N4    N6    1.383125 S    
O7    C3    1.299572 A    
O3    Zn2   1.975840 S    
O8    C4    1.309749 A    
C40   H12   1.074530 S    
N5    O14   1.299561 A    
N2    C8    1.369865 A    
C20   C26   1.406091 A    
O1    Zn1   1.961052 S    
C36   H10   1.076181 S    
C12   C28   1.403264 A    
N2    C18   1.437948 S    
C29   C32   1.417837 A    
C5    O9    1.349942 S    
C30   C31   1.417145 A    
C20   C33   1.416699 A    
O6    Zn2   1.963357 S    
C21   C23   1.395761 A    
O3    C1    1.288826 A    
O8    Zn1   1.996785 S    
C44   H20   1.103280 S    
C8    O11   1.349563 S    
C30   C34   1.420758 A    
C22   C24   1.393893 A    
C15   C17   1.413082 A    
C6    C22   1.396678 A    
C31   C40   1.414269 A    
C16   C18   1.415460 A    
C37   H7    1.081413 S    
C38   H8    1.083838 S    
C14   C16   1.417052 A    
N8    O19   1.300706 A    
C19   C21   1.407547 A    
C3    C27   1.466887 S    
C20   C22   1.404371 A    
C9    C11   1.378809 A    
C41   C42   1.332864 D    
O2    Zn2   1.961052 S    
C43   H17   1.106734 S    
C44   H18   1.109895 S    
O5    Zn1   1.963357 S    
Zn1   N4    2.028422 S    
C6    O10   1.350439 S    
C26   C37   1.394600 A    
C42   H14   1.087975 S    
N7    O17   1.301273 A    
N3    N5    1.380623 S    
C23   C39   1.387598 A    
C16   N8    1.441610 S    
