data_str_m9_o17_o18_f0_sra.sym.66
_audit_creation_date              2012-12-11T15:18:38-0500
_audit_creation_method            fapswitch 2.2
_symmetry_space_group_name_H-M    P1
_symmetry_Int_Tables_number       1
_space_group_crystal_system       triclinic
_cell_length_a                    6.962546
_cell_length_b                    19.746906
_cell_length_c                    23.97601
_cell_angle_alpha                 93.568023
_cell_angle_beta                  91.178702
_cell_angle_gamma                 88.664114
_cell_volume                      3288.54353967

loop_
_atom_site_label
_atom_site_type_symbol
_atom_type_description
_atom_site_fract_x
_atom_site_fract_y
_atom_site_fract_z
_atom_type_partial_charge
O1    O     O_R   0.620100 0.812200 0.810870 -0.540534
O2    O     O_R   0.379900 0.187800 0.189130 -0.539815
O3    O     O_R   0.296960 0.671650 0.794750 -0.544806
O4    O     O_R   0.703040 0.328350 0.205250 -0.532315
O5    O     O_R   0.120160 0.687800 0.689130 -0.547384
O6    O     O_R   0.879840 0.312200 0.310870 -0.536538
C1    C     C_R   0.468102 0.647785 0.805527 0.692713
C2    C     C_R   0.531490 0.352205 0.194425 0.698539
O7    O     O_R   0.290810 0.810670 0.817290 -0.542367
O8    O     O_R   0.709190 0.189330 0.182710 -0.543218
O9    O     O_R   0.113980 0.827820 0.711840 -0.537602
O10   O     O_R   0.886020 0.172180 0.288160 -0.537602
C3    C     C_R   0.459513 0.831821 0.834219 0.698429
C4    C     C_R   0.540486 0.168181 0.165780 0.698232
O11   O     O_R   0.626290 0.672180 0.788160 -0.530891
O12   O     O_R   0.373710 0.327820 0.211840 -0.544349
O13   O     O_3   0.451520 0.755460 0.715370 -0.367440
O14   O     O_3   0.548480 0.244540 0.284630 -0.367687
V1    V     V_3+5 0.179200 0.748980 0.756420 1.399824
V2    V     V_3+5 0.820800 0.251020 0.243580 1.415783
O15   O     O_R   0.783880 0.828350 0.705250 -0.535289
O16   O     O_R   0.216120 0.171650 0.294750 -0.534707
C5    C     C_R   0.949957 0.852725 0.694659 0.692586
C6    C     C_R   0.050039 0.147432 0.305497 0.692722
O17   O     O_R   0.790030 0.689320 0.682700 -0.534487
O18   O     O_R   0.209970 0.310680 0.317300 -0.542501
C7    C     C_R   0.959163 0.666211 0.667497 0.724350
C8    C     C_R   0.041306 0.333214 0.332887 0.720780
V3    V     V_3+5 0.678400 0.751010 0.743570 1.424688
V4    V     V_3+5 0.321600 0.248990 0.256430 1.406212
O19   O     O_3   0.955950 0.744540 0.784620 -0.369835
O20   O     O_3   0.044050 0.255460 0.215380 -0.370666
C9    C     C_R   0.011827 0.453158 0.374842 -0.087623
C10   C     C_R   0.983738 0.546664 0.624885 -0.089111
C11   C     C_R   0.034481 0.382477 0.382168 -0.138408
C12   C     C_R   0.974153 0.617568 0.617910 -0.136318
C13   C     C_R   0.057445 0.358714 0.436694 0.083153
C14   C     C_R   0.993377 0.642219 0.563904 0.086028
C15   C     C_R   0.055789 0.406226 0.483944 0.081274
C16   C     C_R   0.012412 0.595128 0.516650 0.082734
C17   C     C_R   0.036526 0.476758 0.476553 0.026048
C18   C     C_R   0.024121 0.524414 0.523887 0.023954
C19   C     C_R   0.027532 0.500053 0.422134 0.064534
C20   C     C_R   0.021970 0.500865 0.578165 0.064620
C21   C     C_R   0.075868 0.385277 0.538816 -0.195638
C22   C     C_R   0.025013 0.616764 0.462061 -0.192326
C23   C     C_R   0.060454 0.431448 0.584652 -0.191358
C24   C     C_R   0.035783 0.570422 0.416205 -0.194232
H1    H     H_    0.102783 0.332958 0.547693 0.136243
H2    H     H_    0.023833 0.669700 0.453283 0.134825
H3    H     H_    0.079749 0.411729 0.625533 0.142514
H4    H     H_    0.050102 0.590837 0.375714 0.141020
C25   C     C_R   0.947376 0.914723 0.662896 -0.042904
C26   C     C_R   0.052703 0.085643 0.337469 -0.043499
C27   C     C_R   0.846578 0.032248 0.657253 -0.163746
C28   C     C_R   0.151660 0.967959 0.343071 -0.163904
C29   C     C_R   0.868626 0.974661 0.687627 -0.168365
C30   C     C_R   0.128798 0.025387 0.312560 -0.168280
C31   C     C_R   0.003721 0.912928 0.606665 -0.220916
C32   C     C_R   0.999684 0.087952 0.394018 -0.217936
C33   C     C_R   0.975606 0.970468 0.573859 0.085218
C34   C     C_R   0.027157 0.030355 0.426807 0.085193
C35   C     C_R   0.897242 0.030588 0.600805 0.141642
C36   C     C_R   0.103613 0.969991 0.399732 0.140832
C37   C     C_R   0.018832 0.970354 0.515360 0.058018
C38   C     C_R   0.984604 0.030556 0.485360 0.058914
C39   C     C_R   0.909744 0.088935 0.514978 -0.189885
C40   C     C_R   0.093232 0.911922 0.485718 -0.192819
C41   C     C_R   0.867102 0.088709 0.571290 -0.203891
C42   C     C_R   0.134295 0.911949 0.429301 -0.201807
H5    H     H_    0.808147 0.134755 0.591967 0.120469
H6    H     H_    0.192168 0.865770 0.408558 0.120491
H7    H     H_    0.942887 0.135631 0.411342 0.096450
H8    H     H_    0.063792 0.865684 0.589569 0.100216
H9    H     H_    0.172454 0.023013 0.269341 0.105861
H10   H     H_    0.822654 0.976700 0.730623 0.105876
H11   H     H_    0.785606 0.078052 0.677741 0.111565
H12   H     H_    0.210937 0.921940 0.322475 0.111708
H13   H     H_    0.881096 0.136045 0.495751 0.121480
H14   H     H_    0.121884 0.864816 0.504933 0.124007
C43   C     C_R   0.481583 0.586255 0.837102 -0.047942
C44   C     C_R   0.513383 0.413577 0.162667 -0.041666
C45   C     C_R   0.486267 0.463925 0.836628 -0.182239
C46   C     C_R   0.445638 0.534115 0.162409 -0.193207
C47   C     C_R   0.483428 0.523081 0.807940 -0.167491
C48   C     C_R   0.470930 0.475441 0.191204 -0.167652
C49   C     C_R   0.481135 0.590192 0.895847 -0.221084
C50   C     C_R   0.526853 0.410215 0.104131 -0.224759
C51   C     C_R   0.485118 0.530366 0.926252 0.086859
C52   C     C_R   0.496855 0.469264 0.073427 0.087080
C53   C     C_R   0.492412 0.466914 0.895136 0.134610
C54   C     C_R   0.461411 0.531845 0.104204 0.135476
C55   C     C_R   0.480538 0.531046 0.986087 0.058013
C56   C     C_R   0.498574 0.468509 0.013563 0.057790
C57   C     C_R   0.510749 0.407185 0.980248 -0.189445
C58   C     C_R   0.452428 0.591882 0.019232 -0.190151
C59   C     C_R   0.504870 0.406581 0.922353 -0.209917
C60   C     C_R   0.440400 0.591925 0.076908 -0.209737
H15   H     H_    0.510938 0.358090 0.898533 0.120886
H16   H     H_    0.414310 0.639790 0.100497 0.121860
H17   H     H_    0.560421 0.361123 0.084093 0.094353
H18   H     H_    0.479686 0.640378 0.916259 0.093436
H19   H     H_    0.457916 0.478389 0.236184 0.118954
H20   H     H_    0.478163 0.519654 0.762698 0.121127
H21   H     H_    0.484546 0.415414 0.812937 0.111891
H22   H     H_    0.413747 0.581592 0.185865 0.114510
H23   H     H_    0.518583 0.358219 0.997679 0.122945
H24   H     H_    0.432557 0.640500 0.001701 0.123412
C61   C     C_R   0.678080 0.070313 0.106461 -0.225016
C62   C     C_R   0.321927 0.929695 0.893533 -0.224898
C63   C     C_R   0.530226 0.118881 0.116362 -0.069762
C64   C     C_R   0.469777 0.881125 0.883634 -0.069903
C65   C     C_R   0.371186 0.119470 0.079548 -0.219833
C66   C     C_R   0.628821 0.880539 0.920446 -0.219839
C67   C     C_R   0.360008 0.072960 0.032844 0.062131
C68   C     C_R   0.640003 0.927051 0.967148 0.062206
C69   C     C_R   0.507197 0.023565 0.023370 0.024796
C70   C     C_R   0.492814 0.976446 0.976622 0.024760
C71   C     C_R   0.668265 0.021427 0.060684 0.035013
C72   C     C_R   0.331746 0.978584 0.939308 0.034956
C73   C     C_R   0.202368 0.075581 0.995718 -0.185105
C74   C     C_R   0.797647 0.924432 0.004273 -0.184850
C75   C     C_R   0.185402 0.029407 0.948582 0.133928
C76   C     C_R   0.814613 0.970606 0.051409 0.133908
H25   H     H_    0.798465 0.070554 0.135674 0.115792
H26   H     H_    0.201541 0.929454 0.864320 0.115917
H27   H     H_    0.256766 0.156972 0.086892 0.120880
H28   H     H_    0.743240 0.843037 0.913103 0.120939
H29   H     H_    0.092967 0.114355 0.004277 0.136672
H30   H     H_    0.907049 0.885659 0.995713 0.136732
C77   C     C_R   0.955744 0.478825 0.319114 0.087574
C78   C     C_R   0.062751 0.461838 0.270968 -0.131334
C79   C     C_R   0.016023 0.491278 0.220726 -0.113799
C80   C     C_R   0.874186 0.542071 0.219182 -0.080330
C81   C     C_R   0.766039 0.559130 0.266543 -0.141887
C82   C     C_R   0.799383 0.525074 0.315189 -0.144993
H31   H     H_    0.184187 0.427025 0.272352 0.110682
H32   H     H_    0.091728 0.475852 0.183043 0.134326
H33   H     H_    0.844841 0.566969 0.180865 0.118849
H34   H     H_    0.653025 0.597574 0.265197 0.108782
H35   H     H_    0.710432 0.537880 0.351030 0.122519
C83   C     C_R   0.940579 0.518823 0.679659 0.081686
C84   C     C_R   0.052958 0.534679 0.727807 -0.136950
C85   C     C_R   0.023540 0.501719 0.776805 -0.110469
C86   C     C_R   0.893023 0.449285 0.776924 -0.080837
C87   C     C_R   0.780000 0.433282 0.729388 -0.145987
C88   C     C_R   0.797559 0.469828 0.681869 -0.140166
H36   H     H_    0.166650 0.570795 0.727038 0.117861
H37   H     H_    0.104453 0.515545 0.814511 0.134517
H38   H     H_    0.877102 0.421878 0.814207 0.114005
H39   H     H_    0.676892 0.393144 0.729523 0.106264
H40   H     H_    0.707877 0.456977 0.645459 0.121893
C89   C     C_3   0.015363 0.033931 0.907543 -0.347294
C90   C     C_3   0.866545 0.090703 0.920377 -0.762566
H41   H     H_    0.801276 0.085124 0.961590 0.234293
H42   H     H_    0.933503 0.141131 0.919610 0.220678
H43   H     H_    0.749877 0.087783 0.888085 0.219342
H44   H     H_    0.071652 0.041253 0.865341 0.172702
H45   H     H_    0.938864 0.985140 0.905542 0.187897
C91   C     C_3   0.984656 0.966082 0.092447 -0.347234
C92   C     C_3   0.133477 0.909311 0.079611 -0.762435
H46   H     H_    0.066525 0.858883 0.080378 0.220640
H47   H     H_    0.198742 0.914891 0.038398 0.234296
H48   H     H_    0.250148 0.912232 0.111903 0.219432
H49   H     H_    0.061152 0.014874 0.094448 0.187909
H50   H     H_    0.928371 0.958758 0.134649 0.172710
C93   C     C_3   0.072997 0.282440 0.444080 -0.358896
C94   C     C_3   0.281763 0.258895 0.451993 -0.737094
H51   H     H_    0.349388 0.285868 0.489065 0.219448
H52   H     H_    0.287211 0.203562 0.458006 0.214052
H53   H     H_    0.365634 0.268433 0.414496 0.239069
H54   H     H_    0.985020 0.268152 0.479387 0.162918
H55   H     H_    0.010790 0.252644 0.407723 0.156355
C95   C     C_3   0.989272 0.718635 0.557068 -0.362999
C96   C     C_3   0.789055 0.743708 0.539634 -0.751599
H56   H     H_    0.741022 0.717388 0.499709 0.225987
H57   H     H_    0.684315 0.734500 0.572509 0.234311
H58   H     H_    0.791201 0.799059 0.533970 0.215820
H59   H     H_    0.032137 0.747577 0.596169 0.163546
H60   H     H_    0.098034 0.732674 0.526936 0.162418

loop_
_geom_bond_atom_site_label_1
_geom_bond_atom_site_label_2
_ccdc_geom_bond_type
C40   H14   S    
V4    O20   S    
C55   C56   A    
C67   C73   A    
O11   V3    S    
O13   V3    S    
C17   C18   A    
O4    C2    A    
V1    O19   S    
C64   C66   A    
C50   H17   S    
C25   C31   A    
C93   H54   S    
C54   C60   A    
C81   C82   A    
C96   H57   S    
C26   C32   A    
C71   C76   A    
C16   C22   A    
O9    V1    S    
C85   H37   S    
C68   C74   A    
C2    C44   S    
C29   H10   S    
C11   C13   A    
C46   C48   A    
C3    C64   S    
O3    C1    A    
C69   C71   A    
C26   C30   A    
C27   H11   S    
C94   H52   S    
C14   C95   S    
C6    C26   S    
C84   C85   A    
C32   H7    S    
C28   H12   S    
C32   C34   A    
C89   H44   S    
C41   H5    S    
O7    C3    A    
C95   C96   S    
C34   C36   A    
C59   H15   S    
O5    C7    A    
C49   C51   A    
O7    V1    S    
C94   H53   S    
O6    C8    A    
C35   C41   A    
C8    C11   S    
O8    V2    S    
C78   C79   A    
C67   C69   A    
C58   C60   A    
C46   H22   S    
C28   C36   A    
O3    V1    S    
O14   V4    S    
C36   C42   A    
C28   C30   A    
C51   C53   A    
C19   C24   A    
C90   H42   S    
C86   H38   S    
C20   C23   A    
C15   C21   A    
C9    C77   S    
C16   C18   A    
C38   C39   A    
C58   H24   S    
C79   H32   S    
C2    O12   A    
C17   C19   A    
C81   H34   S    
C18   C20   A    
C48   H19   S    
O1    V3    S    
C92   H47   S    
V2    O20   S    
C30   H9    S    
C52   C56   A    
C96   H58   S    
C70   C72   A    
C21   C23   A    
O15   C5    A    
O17   V3    S    
C4    C63   S    
C22   C24   A    
C31   C33   A    
C34   C38   A    
C9    C19   A    
C39   H13   S    
C90   H43   S    
C15   C17   A    
C77   C82   A    
O8    C4    A    
C62   C72   A    
C80   H33   S    
C25   C29   A    
C23   H3    S    
C1    O11   A    
C78   H31   S    
C44   C48   A    
O15   V3    S    
C45   H21   S    
C27   C35   A    
C39   C41   A    
C89   H45   S    
C82   H35   S    
C49   H18   S    
C66   H28   S    
C52   C54   A    
C96   H56   S    
C21   H1    S    
C37   C40   A    
O10   V2    S    
C33   C35   A    
C10   C20   A    
C63   C65   A    
C91   H49   S    
C53   C59   A    
C31   H8    S    
C90   H41   S    
C43   C49   A    
C47   H20   S    
C57   H23   S    
C62   H26   S    
C65   H27   S    
C61   H25   S    
C94   H51   S    
C45   C47   A    
C50   C52   A    
O18   V4    S    
C55   C58   A    
C91   H50   S    
C27   C29   A    
C79   C80   A    
O16   C6    A    
O1    C3    A    
C74   C76   A    
C77   C78   A    
C95   H60   S    
C86   C87   A    
C93   C94   S    
C92   H48   S    
O6    V2    S    
C61   C71   A    
C87   C88   A    
C75   C89   S    
C22   H2    S    
C57   C59   A    
C10   C83   S    
O16   V4    S    
C1    C43   S    
C83   C88   A    
C73   H29   S    
C85   C86   A    
C66   C68   A    
C72   C75   A    
C80   C81   A    
O5    V1    S    
C7    C12   S    
O17   C7    A    
C45   C53   A    
O10   C6    A    
O18   C8    A    
C93   H55   S    
O2    V4    S    
C91   C92   S    
C61   C63   A    
C88   H40   S    
C13   C15   A    
C92   H46   S    
C69   C70   A    
C12   C14   A    
C14   C16   A    
C9    C11   A    
C13   C93   S    
C44   C50   A    
C76   C91   S    
C5    C25   S    
O9    C5    A    
O13   V1    S    
C10   C12   A    
C68   C70   A    
O14   V2    S    
C51   C55   A    
C56   C57   A    
O2    C4    A    
C60   H16   S    
C62   C64   A    
C84   H36   S    
C73   C75   A    
C87   H39   S    
O4    V2    S    
C33   C37   A    
C24   H4    S    
V3    O19   S    
C37   C38   A    
C40   C42   A    
C83   C84   A    
C42   H6    S    
C46   C54   A    
C89   C90   S    
O12   V4    S    
C95   H59   S    
C74   H30   S    
C43   C47   A    
C65   C67   A    
