data_str_m12_o9_o13_f0_bcu.sym.147
_audit_creation_date              2012-12-11T17:43:19-0500
_audit_creation_method            fapswitch 2.2
_symmetry_space_group_name_H-M    P1
_symmetry_Int_Tables_number       1
_space_group_crystal_system       triclinic
_cell_length_a                    15.092096
_cell_length_b                    15.227733
_cell_length_c                    16.964922
_cell_angle_alpha                 108.113785
_cell_angle_beta                  105.136323
_cell_angle_gamma                 110.097787
_cell_volume                      3170.52792631

loop_
_atom_site_label
_atom_site_type_symbol
_atom_type_description
_atom_site_fract_x
_atom_site_fract_y
_atom_site_fract_z
_atom_type_partial_charge
C1    C     C_R   0.089001 0.276535 0.032016 -0.140562
C2    C     C_R   0.914210 0.713810 0.928628 -0.126574
C3    C     C_R   0.032614 0.459701 0.730489 0.053317
C4    C     C_R   0.970595 0.450521 0.267066 0.070253
C5    C     C_R   0.669883 0.218012 0.746718 0.046370
C6    C     C_R   0.263612 0.804258 0.271414 0.040754
C7    C     C_R   0.359804 0.571259 0.058673 0.078407
C8    C     C_R   0.683697 0.506693 0.006411 0.064869
C9    C     C_R   0.922423 0.923020 0.974339 -0.022962
C10   C     C_R   0.070242 0.053038 0.934065 -0.027455
C11   C     C_R   0.999641 0.899703 0.957850 -0.003607
C12   C     C_R   0.993730 0.077643 0.952605 -0.003955
C13   C     C_R   0.071339 0.961702 0.934000 -0.013358
C14   C     C_R   0.913189 0.006122 0.963243 -0.009016
C15   C     C_R   0.729860 0.944976 0.864398 -0.184310
C16   C     C_R   0.252212 0.990539 0.959672 -0.158702
C17   C     C_R   0.614660 0.989300 0.924876 -0.141522
C18   C     C_R   0.284999 0.873278 0.851086 -0.137970
C19   C     C_R   0.548076 0.740169 0.357845 0.256953
C20   C     C_R   0.440004 0.353702 0.704782 0.250225
C21   C     C_R   0.542579 0.708096 0.268962 -0.233510
C22   C     C_R   0.467917 0.388879 0.798789 -0.226795
C23   C     C_R   0.939449 0.449292 0.737075 -0.133155
C24   C     C_R   0.061717 0.491300 0.256878 -0.122173
C25   C     C_R   0.532950 0.609875 0.220774 0.032482
C26   C     C_R   0.517088 0.495325 0.857046 0.028353
C27   C     C_R   0.527361 0.542155 0.261278 -0.280605
C28   C     C_R   0.539576 0.567682 0.821484 -0.296604
C29   C     C_R   0.529222 0.570611 0.349046 0.303895
C30   C     C_R   0.516441 0.535159 0.728406 0.314159
C31   C     C_R   0.539963 0.670852 0.398536 0.277406
C32   C     C_R   0.465551 0.426864 0.668677 0.278743
C33   C     C_R   0.603586 0.551764 0.108883 -0.255861
C34   C     C_R   0.460868 0.560941 0.973328 -0.242692
C35   C     C_R   0.602724 0.526485 0.021822 0.049710
C36   C     C_R   0.456381 0.579128 0.057620 0.042455
C37   C     C_R   0.530742 0.530978 0.953230 0.075043
C38   C     C_R   0.529995 0.578879 0.127855 0.079963
C39   C     C_R   0.631902 0.937573 0.851283 -0.196642
C40   C     C_R   0.321617 0.961491 0.932414 -0.186993
C41   C     C_R   0.965133 0.429653 0.344904 0.080882
C42   C     C_R   0.048242 0.421139 0.646739 0.089081
C43   C     C_R   0.147029 0.496403 0.573415 -0.210286
C44   C     C_R   0.877661 0.315317 0.402485 -0.204476
C45   C     C_R   0.722186 0.214579 0.824110 -0.178793
C46   C     C_R   0.234515 0.796855 0.184964 -0.160409
C47   C     C_R   0.143946 0.479536 0.648059 -0.231552
C48   C     C_R   0.879109 0.343274 0.332139 -0.244923
C49   C     C_R   0.963228 0.351048 0.561954 0.243606
C50   C     C_R   0.050841 0.489888 0.430458 0.233718
C51   C     C_R   0.964994 0.370016 0.485851 0.086944
C52   C     C_R   0.055070 0.451965 0.496051 0.096152
C53   C     C_R   0.577872 0.136091 0.670043 0.114755
C54   C     C_R   0.330204 0.900954 0.350725 0.118344
C55   C     C_R   0.493518 0.054912 0.425421 0.015078
C56   C     C_R   0.401816 0.999454 0.598325 0.018478
C57   C     C_R   0.412173 0.974853 0.346278 -0.234686
C58   C     C_R   0.491081 0.073504 0.677550 -0.232196
C59   C     C_R   0.320026 0.913973 0.432204 -0.299228
C60   C     C_R   0.579212 0.124916 0.586524 -0.292494
C61   C     C_R   0.402427 0.991812 0.513169 0.128154
C62   C     C_R   0.491496 0.058794 0.508536 0.142360
C63   C     C_R   0.695674 0.049124 0.012275 0.398006
C64   C     C_R   0.178256 0.813377 0.796447 0.371949
C65   C     C_R   0.794698 0.057632 0.025305 -0.210068
C66   C     C_R   0.108672 0.841929 0.824527 -0.189150
C67   C     C_R   0.301485 0.601608 0.007886 -0.163905
C68   C     C_R   0.722349 0.445637 0.033691 -0.142565
C69   C     C_R   0.812095 0.005744 0.951263 0.074226
C70   C     C_R   0.145286 0.930563 0.906039 0.106955
C71   C     C_R   0.728444 0.311936 0.749387 0.026693
C72   C     C_R   0.235540 0.703928 0.264585 0.057852
C73   C     C_R   0.295900 0.503110 0.080899 -0.130549
C74   C     C_R   0.733572 0.544535 0.958248 -0.110888
C75   C     C_R   0.111266 0.531306 0.815692 -0.121890
C76   C     C_R   0.889894 0.415721 0.184360 -0.137288
C77   C     C_R   0.918245 0.197567 0.945723 -0.116355
C78   C     C_R   0.086049 0.800169 0.008566 -0.132811
C79   C     C_R   0.002606 0.180441 0.969214 0.060573
C80   C     C_R   0.000913 0.808208 0.964519 0.092020
H1    H     H_    0.166837 0.291458 0.068846 0.097177
H2    H     H_    0.837588 0.689982 0.880469 0.104024
H3    H     H_    0.741883 0.903204 0.806945 0.133119
H4    H     H_    0.281530 0.059244 0.022716 0.117571
H5    H     H_    0.548029 0.760636 0.237492 0.141219
H6    H     H_    0.447840 0.333350 0.826562 0.142735
H7    H     H_    0.519577 0.466042 0.223278 0.144418
H8    H     H_    0.575390 0.650022 0.867120 0.148997
H9    H     H_    0.662569 0.552381 0.162089 0.141180
H10   H     H_    0.402241 0.558548 0.918408 0.137293
H11   H     H_    0.812204 0.297304 0.267938 0.143815
H12   H     H_    0.214222 0.525219 0.709839 0.137892
H13   H     H_    0.220106 0.550850 0.579559 0.155255
H14   H     H_    0.807751 0.251063 0.390795 0.153182
H15   H     H_    0.862901 0.403079 0.683264 0.130558
H16   H     H_    0.136131 0.503133 0.298639 0.128405
H17   H     H_    0.569101 0.891168 0.784079 0.140897
H18   H     H_    0.403910 0.007744 0.974194 0.122141
H19   H     H_    0.650578 0.168298 0.582686 0.150697
H20   H     H_    0.252621 0.857290 0.432157 0.149517
H21   H     H_    0.492584 0.083434 0.744042 0.123308
H22   H     H_    0.418091 0.965714 0.282207 0.121925
H23   H     H_    0.538191 0.982668 0.913581 0.107539
H24   H     H_    0.339850 0.852255 0.830533 0.108003
H25   H     H_    0.857506 0.103370 0.092636 0.133705
H26   H     H_    0.026184 0.795949 0.782512 0.126896
H27   H     H_    0.692388 0.157664 0.848237 0.120641
H28   H     H_    0.250108 0.859891 0.165784 0.104829
H29   H     H_    0.328983 0.661010 0.985518 0.100105
H30   H     H_    0.696225 0.400854 0.068839 0.099496
H31   H     H_    0.317592 0.468432 0.124514 0.102714
H32   H     H_    0.722788 0.594319 0.927458 0.109437
H33   H     H_    0.193287 0.558141 0.836060 0.098854
H34   H     H_    0.808633 0.367963 0.164028 0.086818
H35   H     H_    0.840698 0.142422 0.896492 0.124774
H36   H     H_    0.166328 0.855891 0.034555 0.103885
N1    N     N_R   0.055660 0.348550 0.045620 -0.042339
N2    N     N_R   0.944340 0.651450 0.954380 -0.043013
N3    N     N_R   0.960830 0.507850 0.823700 -0.042061
N4    N     N_R   0.039170 0.492150 0.176300 -0.043603
N5    N     N_R   0.811290 0.303410 0.871650 -0.047475
N6    N     N_R   0.188710 0.696590 0.128350 -0.046052
N7    N     N_R   0.205200 0.552990 0.997670 -0.039237
N8    N     N_R   0.794800 0.447010 0.002330 -0.039288
N9    N     N_R   0.814800 0.361830 0.823700 -0.043978
N10   N     N_R   0.185200 0.638170 0.176300 -0.051474
N11   N     N_R   0.201680 0.494570 0.045620 -0.041553
N12   N     N_R   0.798320 0.505430 0.954380 -0.041905
N13   N     N_R   0.068420 0.560530 0.871650 -0.041348
N14   N     N_R   0.931580 0.439470 0.128350 -0.039442
N15   N     N_R   0.948070 0.295860 0.997670 -0.043798
N16   N     N_R   0.051930 0.704140 0.002330 -0.041696
Ni1   Ni    Ni4+2 0.119340 0.493420 0.109960 0.208610
Ni2   Ni    Ni4+2 0.880660 0.506580 0.890040 0.220364
Ni3   Ni    Ni4+2 0.872590 0.372590 0.000000 0.214922
Ni4   Ni    Ni4+2 0.127410 0.627410 0.000000 0.213791
C81   C     C_3   0.542940 0.705362 0.493579 -1.024282
H37   H     H_    0.617508 0.775697 0.542247 0.260118
H38   H     H_    0.478257 0.724124 0.494493 0.249566
H39   H     H_    0.535491 0.645739 0.519034 0.264326
C82   C     C_3   0.438004 0.387762 0.567503 -1.013532
H40   H     H_    0.477323 0.340496 0.547447 0.252379
H41   H     H_    0.352967 0.338842 0.528839 0.259291
H42   H     H_    0.461114 0.450727 0.546221 0.262021
C83   C     C_3   0.564749 0.849260 0.408749 -0.971980
H43   H     H_    0.638870 0.893742 0.470387 0.255121
H44   H     H_    0.568493 0.892167 0.366433 0.243094
H45   H     H_    0.500504 0.846954 0.429419 0.255017
C84   C     C_3   0.382132 0.238007 0.643908 -0.985577
H46   H     H_    0.305051 0.217543 0.594550 0.256835
H47   H     H_    0.426455 0.214578 0.606225 0.258263
H48   H     H_    0.369634 0.192284 0.683349 0.246324
C85   C     C_3   0.519447 0.492770 0.387780 -1.026149
H49   H     H_    0.589188 0.525608 0.451433 0.259211
H50   H     H_    0.449163 0.473065 0.401956 0.253746
H51   H     H_    0.512131 0.419093 0.339766 0.248586
C86   C     C_3   0.545328 0.617329 0.694941 -1.046545
H52   H     H_    0.584359 0.697373 0.751270 0.253300
H53   H     H_    0.599622 0.610243 0.663008 0.256841
H54   H     H_    0.474610 0.608262 0.644816 0.257668
C87   C     C_3   0.130737 0.599797 0.457200 -1.058586
H55   H     H_    0.204700 0.600889 0.457373 0.249113
H56   H     H_    0.103351 0.633192 0.412331 0.266188
H57   H     H_    0.145770 0.653305 0.526294 0.264763
C88   C     C_3   0.872775 0.259807 0.553613 -1.081765
H58   H     H_    0.888106 0.251036 0.617678 0.264500
H59   H     H_    0.801735 0.269574 0.535424 0.249143
H60   H     H_    0.859258 0.186461 0.499910 0.262090
N17   N     N_3   0.580527 0.127998 0.421276 -0.228852
H61   H     H_    0.553781 0.164285 0.384519 0.108364
H62   H     H_    0.611296 0.086648 0.385354 0.107067
N18   N     N_3   0.311837 0.932345 0.603778 -0.215944
H63   H     H_    0.327617 0.943500 0.670942 0.111410
H64   H     H_    0.254638 0.954984 0.585266 0.113126
C89   C     C_3   0.677201 0.104153 0.091424 -1.106766
H65   H     H_    0.594045 0.083602 0.072286 0.249572
H66   H     H_    0.703077 0.083079 0.147214 0.260496
H67   H     H_    0.721393 0.189089 0.115569 0.248718
C90   C     C_3   0.137884 0.720455 0.707783 -1.061043
H68   H     H_    0.201754 0.706689 0.695594 0.252291
H69   H     H_    0.082874 0.650240 0.708157 0.270070
H70   H     H_    0.096670 0.733286 0.651290 0.256635
N19   N     N_3   0.689629 0.365256 0.704798 -0.219932
H71   H     H_    0.680464 0.334882 0.637305 0.089820
H72   H     H_    0.616870 0.351028 0.704470 0.128383
N20   N     N_3   0.272706 0.674594 0.333889 -0.228022
H73   H     H_    0.326165 0.740193 0.394650 0.109778
H74   H     H_    0.313368 0.635261 0.313230 0.106826
N21   N     N_3   0.854298 0.862472 0.004336 -0.210701
H75   H     H_    0.777985 0.825573 0.955751 0.112194
H76   H     H_    0.859751 0.912378 0.065874 0.118813
N22   N     N_3   0.141343 0.114824 0.907359 -0.205665
H77   H     H_    0.195504 0.185590 0.963535 0.101759
H78   H     H_    0.100233 0.129053 0.856967 0.120418

loop_
_geom_bond_atom_site_label_1
_geom_bond_atom_site_label_2
_ccdc_geom_bond_type
N9    Ni2   S    
C30   C86   S    
C71   N9    A    
C63   C65   A    
C3    C42   S    
C88   H58   S    
N3    N13   A    
C27   C29   A    
C34   C37   A    
C47   H12   S    
C41   C50   A    
C3    C23   A    
N14   Ni3   S    
C9    C14   A    
C60   H19   S    
C19   C31   A    
C68   N8    A    
C87   H55   S    
C2    N2    A    
C89   H66   S    
C6    C72   A    
C57   H22   S    
C81   H38   S    
C19   C83   S    
N4    N14   A    
C5    C53   S    
C35   C37   A    
C6    C54   S    
N12   Ni2   S    
C24   H16   S    
C7    C36   S    
C77   N15   A    
C4    C24   A    
C78   C80   A    
C43   C52   A    
C39   H17   S    
C4    C41   S    
C1    H1    S    
C12   C79   S    
C16   H4    S    
C20   C84   S    
C60   C62   A    
N4    Ni1   S    
C17   C39   A    
N21   H76   S    
C18   C40   A    
C78   N16   A    
C83   H44   S    
C76   N14   A    
N7    N11   A    
C67   H29   S    
C86   H52   S    
C74   N12   A    
N10   Ni1   S    
C56   C58   A    
C49   C51   A    
C48   H11   S    
C46   H28   S    
C28   H8    S    
C76   H34   S    
C75   H33   S    
C85   H50   S    
C3    C75   A    
N2    Ni2   S    
N8    N12   A    
C90   H70   S    
N20   H73   S    
N1    Ni1   S    
C88   H59   S    
C56   N18   S    
C50   C87   S    
C29   C31   A    
C59   H20   S    
N17   H62   S    
C61   C62   A    
C82   H40   S    
C66   H26   S    
C9    N21   S    
C65   H25   S    
C87   H57   S    
C87   H56   S    
C53   C60   A    
N18   H64   S    
C73   H31   S    
C89   H67   S    
C54   C59   A    
C77   C79   A    
C15   C69   A    
C81   H39   S    
C21   H5    S    
C24   N4    A    
N3    Ni2   S    
C59   C61   A    
C51   C52   A    
N17   H61   S    
C71   N19   S    
C74   H32   S    
C16   C70   A    
C7    C73   A    
C68   H30   S    
C84   H48   S    
C44   H14   S    
C64   C90   S    
C15   H3    S    
C45   N5    A    
C73   N11   A    
C5    C45   A    
C10   N22   S    
C72   N10   A    
C82   H41   S    
N22   H78   S    
N6    N10   A    
N19   H71   S    
C34   H10   S    
N5    N9    A    
C33   H9    S    
C25   C38   S    
N13   Ni4   S    
C50   C52   A    
C89   H65   S    
N16   Ni4   S    
C40   H18   S    
C72   N20   S    
C8    C74   A    
C58   H21   S    
C18   H24   S    
N5    Ni3   S    
C85   H51   S    
C27   H7    S    
C9    C11   A    
C15   C39   A    
C32   C82   S    
C10   C12   A    
C16   C40   A    
C44   C51   A    
C12   C14   A    
C49   C88   S    
C8    C68   A    
C88   H60   S    
C55   C57   A    
C22   C26   A    
C25   C27   A    
C1    C79   A    
C14   C69   S    
C2    H2    S    
C31   C81   S    
N6    Ni4   S    
N20   H74   S    
C36   C38   A    
C83   H43   S    
C83   H45   S    
N18   H63   S    
C29   C85   S    
C20   C32   A    
C21   C25   A    
C6    C46   A    
N8    Ni3   S    
C19   C21   A    
C26   C28   A    
C78   H36   S    
N11   Ni1   S    
C20   C22   A    
C10   C13   A    
C67   N7    A    
C53   C58   A    
C26   C37   S    
C63   C89   S    
C82   H42   S    
C86   H54   S    
C81   H37   S    
N15   Ni3   S    
C33   C38   A    
N7    Ni4   S    
N22   H77   S    
C84   H47   S    
C17   H23   S    
C5    C71   A    
C44   C48   A    
C84   H46   S    
C17   C63   A    
C30   C32   A    
C11   C13   A    
C33   C35   A    
C18   C64   A    
C66   C70   A    
C65   C69   A    
C28   C30   A    
C43   H13   S    
C41   C48   A    
C23   H15   S    
C34   C36   A    
C42   C47   A    
C22   H6    S    
N21   H75   S    
N1    N15   A    
C4    C76   A    
C2    C80   A    
C11   C80   S    
C42   C49   A    
C7    C67   A    
C90   H68   S    
N2    N16   A    
C45   H27   S    
C55   C62   A    
N19   H72   S    
C86   H53   S    
C13   C70   S    
C56   C61   A    
C46   N6    A    
C23   N3    A    
C55   N17   S    
C1    N1    A    
C85   H49   S    
C77   H35   S    
C43   C47   A    
C8    C35   S    
C75   N13   A    
C64   C66   A    
C90   H69   S    
C54   C57   A    
