data_str_m3_o10_o17_f0_pcu.sym.28
_audit_creation_date              2012-12-10T16:52:07-0500
_audit_creation_method            fapswitch 2.2
_symmetry_space_group_name_H-M    P1
_symmetry_Int_Tables_number       1
_space_group_crystal_system       triclinic
_cell_length_a                    7.803717
_cell_length_b                    8.602047
_cell_length_c                    14.94475
_cell_angle_alpha                 92.168578
_cell_angle_beta                  85.157435
_cell_angle_gamma                 93.007392
_cell_volume                      997.689660534

loop_
_atom_site_label
_atom_site_type_symbol
_atom_type_description
_atom_site_fract_x
_atom_site_fract_y
_atom_site_fract_z
_atom_type_partial_charge
C1    C     C_R   0.544127 0.794206 0.498995 0.907351
C2    C     C_R   0.652352 0.543626 0.808848 -0.265030
C3    C     C_R   0.497983 0.502927 0.231253 -0.064211
C4    C     C_R   0.501936 0.497278 0.768764 -0.062320
C5    C     C_R   0.648752 0.549571 0.180088 -0.268780
C6    C     C_R   0.351143 0.450670 0.819928 -0.271049
C7    C     C_R   0.650445 0.549662 0.087569 0.115152
C8    C     C_R   0.349380 0.450742 0.912456 0.114895
C9    C     C_R   0.499350 0.501234 0.046555 0.063907
C10   C     C_R   0.500448 0.499230 0.953476 0.064325
C11   C     C_R   0.347228 0.454635 0.098645 0.116102
C12   C     C_R   0.455576 0.206176 0.501410 0.975544
C13   C     C_R   0.652563 0.545849 0.901390 0.117099
C14   C     C_R   0.800439 0.596877 0.035595 -0.221830
C15   C     C_R   0.199363 0.403589 0.964433 -0.223106
C16   C     C_R   0.801565 0.594827 0.942574 -0.229699
C17   C     C_R   0.198213 0.405701 0.057459 -0.227757
C18   C     C_2   0.561553 0.956704 0.513474 -0.117243
C19   C     C_2   0.435758 0.044795 0.488227 -0.121379
C20   C     C_R   0.500888 0.499423 0.673100 0.874800
C21   C     C_R   0.499104 0.500631 0.326905 0.883129
C22   C     C_R   0.347467 0.456791 0.191189 -0.259859
H1    H     H_    0.231917 0.419874 0.231844 0.153555
H2    H     H_    0.639597 0.053418 0.629884 0.173626
H3    H     H_    0.345627 0.917206 0.381151 0.197416
H4    H     H_    0.200636 0.931883 0.474587 0.216732
H5    H     H_    0.981218 0.243042 0.431316 0.193703
H6    H     H_    0.995115 0.377012 0.352107 0.161203
H7    H     H_    0.020358 0.754093 0.573514 0.155941
H8    H     H_    0.003010 0.614702 0.649285 0.165988
H9    H     H_    0.767849 0.580647 0.768217 0.150619
H10   H     H_    0.916453 0.635068 0.066857 0.158612
H11   H     H_    0.083357 0.365379 0.933169 0.158431
H12   H     H_    0.918509 0.631274 0.902918 0.151530
H13   H     H_    0.081261 0.369278 0.097114 0.152458
H14   H     H_    0.764296 0.586530 0.212314 0.158174
H15   H     H_    0.235636 0.413611 0.787694 0.157732
H16   H     H_    0.783547 0.935906 0.578039 0.187021
N1    N     N_2   0.950330 0.457950 0.475660 -0.002764
N2    N     N_2   0.049670 0.542050 0.524340 -0.004136
N3    N     N_3   0.696966 0.020195 0.566749 -0.433122
N4    N     N_3   0.298379 0.989372 0.434513 -0.466086
N5    N     N_3   0.032561 0.354217 0.415580 -0.312929
N6    N     N_3   0.967164 0.642481 0.586283 -0.327686
O1    O     O_R   0.389250 0.738570 0.505970 -0.640281
O2    O     O_R   0.610750 0.261430 0.494030 -0.607756
O3    O     O_R   0.678390 0.711620 0.490370 -0.612729
O4    O     O_R   0.321610 0.288380 0.509630 -0.606542
O5    O     O_R   0.355420 0.513510 0.639950 -0.636717
O6    O     O_R   0.644580 0.486490 0.360050 -0.635741
O7    O     O_R   0.644560 0.486560 0.624350 -0.612335
O8    O     O_R   0.355440 0.513440 0.375650 -0.614934
Zn1   Zn    Zn3+2 0.306940 0.517990 0.510420 0.954779
Zn2   Zn    Zn3+2 0.693060 0.482010 0.489580 0.966195

loop_
_geom_bond_atom_site_label_1
_geom_bond_atom_site_label_2
_ccdc_geom_bond_type
H3    N4    S    
C2    C4    A    
C15   C17   A    
C20   O5    A    
C8    C15   A    
C17   H13   S    
C9    C10   A    
C11   C22   A    
C19   N4    S    
C12   O4    A    
O7    Zn2   S    
C1    O1    A    
O2    Zn2   S    
C6    H15   S    
O1    Zn1   S    
H2    N3    S    
C9    C11   A    
H8    N6    S    
C1    C18   S    
O6    Zn2   S    
O3    Zn2   S    
O5    Zn1   S    
C12   C19   S    
C4    C6    A    
C21   O6    A    
C18   C19   D    
C20   O7    A    
C5    C7    A    
C21   O8    A    
H7    N6    S    
N1    N5    S    
O4    Zn1   S    
C8    C10   A    
C14   C16   A    
C3    C21   S    
N1    Zn2   S    
C4    C20   S    
C5    H14   S    
H5    N5    S    
N2    N6    S    
O8    Zn1   S    
H4    N4    S    
H16   N3    S    
C12   O2    A    
N2    Zn1   S    
C13   C16   A    
N1    N2    D    
C7    C9    A    
C2    C13   A    
C22   H1    S    
C11   C17   A    
C3    C22   A    
C6    C8    A    
H6    N5    S    
C16   H12   S    
C15   H11   S    
C7    C14   A    
C1    O3    A    
C18   N3    S    
C14   H10   S    
C2    H9    S    
C3    C5    A    
C10   C13   A    
