data_str_m9_o10_o29_f0_sra.sym.8
_audit_creation_date              2012-12-11T14:08:47-0500
_audit_creation_method            fapswitch 2.2
_symmetry_space_group_name_H-M    P1
_symmetry_Int_Tables_number       1
_space_group_crystal_system       triclinic
_cell_length_a                    28.180792
_cell_length_b                    7.200949
_cell_length_c                    17.188821
_cell_angle_alpha                 89.913282
_cell_angle_beta                  101.910801
_cell_angle_gamma                 90.030895
_cell_volume                      3412.99825723

loop_
_atom_site_label
_atom_site_type_symbol
_atom_type_description
_atom_site_fract_x
_atom_site_fract_y
_atom_site_fract_z
_atom_type_partial_charge
O1    O     O_R   0.000700 0.436510 0.857920 -0.542701
O2    O     O_R   0.999300 0.563490 0.142080 -0.542495
O3    O     O_R   0.999300 0.936510 0.642080 -0.540390
O4    O     O_R   0.000700 0.063490 0.357920 -0.540399
O5    O     O_R   0.930080 0.766380 0.721890 -0.548688
O6    O     O_R   0.069920 0.233620 0.278110 -0.548685
O7    O     O_R   0.069920 0.266380 0.778110 -0.551441
O8    O     O_R   0.930080 0.733620 0.221890 -0.551268
C1    C     C_R   0.910901 0.597951 0.707092 0.751196
C2    C     C_R   0.089094 0.402043 0.292943 0.751314
C3    C     C_R   0.089124 0.097927 0.793384 0.739190
C4    C     C_R   0.910895 0.902061 0.206619 0.740657
O9    O     O_R   0.996180 0.766230 0.862310 -0.523859
O10   O     O_R   0.003820 0.233770 0.137690 -0.523742
O11   O     O_R   0.003820 0.266230 0.637690 -0.522104
O12   O     O_R   0.996180 0.733770 0.362310 -0.522161
O13   O     O_R   0.065870 0.936460 0.783500 -0.522995
O14   O     O_R   0.934130 0.063540 0.216500 -0.523152
O15   O     O_R   0.934130 0.436460 0.716500 -0.522725
O16   O     O_R   0.065870 0.563540 0.283500 -0.522762
C5    C     C_R   0.998469 0.596381 0.894445 0.779321
C6    C     C_R   0.001526 0.403618 0.105553 0.778377
C7    C     C_R   0.001511 0.096513 0.605512 0.775439
C8    C     C_R   0.998490 0.903487 0.394488 0.775058
O17   O     O_3   0.022790 0.603020 0.723980 -0.380039
O18   O     O_3   0.977210 0.396980 0.276020 -0.380040
O19   O     O_3   0.977210 0.103020 0.776020 -0.380640
O20   O     O_3   0.022790 0.896980 0.223980 -0.380480
V1    V     V_3+5 0.995770 0.877900 0.754830 1.497630
V2    V     V_3+5 0.004230 0.122100 0.245170 1.498134
V3    V     V_3+5 0.004230 0.377900 0.745170 1.495339
V4    V     V_3+5 0.995770 0.622100 0.254830 1.496131
C9    C     C_2   0.001666 0.082646 0.519509 -0.311848
C10   C     C_2   0.998335 0.917354 0.480491 -0.311926
C11   C     C_2   0.998312 0.582563 0.980405 -0.307490
C12   C     C_2   0.001679 0.417435 0.019591 -0.308260
H1    H     H_    0.004360 0.211400 0.487700 0.177150
H2    H     H_    0.995641 0.788600 0.512300 0.177084
H3    H     H_    0.995600 0.711294 0.012057 0.170785
H4    H     H_    0.004389 0.288704 0.987939 0.170543
C13   C     C_R   0.682440 0.908132 0.025998 0.578970
C14   C     C_R   0.317520 0.088595 0.974097 0.578766
C15   C     C_R   0.318685 0.363724 0.466469 0.583285
C16   C     C_R   0.681271 0.636320 0.534067 0.582994
O21   O     O_2   0.710740 0.865209 0.974115 -0.519995
O22   O     O_2   0.289055 0.126309 0.026320 -0.519812
O23   O     O_2   0.291567 0.275506 0.511259 -0.515579
O24   O     O_2   0.708400 0.724081 0.489169 -0.516168
N1    N     N_R   0.703017 0.935084 0.104696 -0.553632
N2    N     N_R   0.297104 0.066569 0.895042 -0.553724
N3    N     N_R   0.296794 0.439659 0.394885 -0.554259
N4    N     N_R   0.703159 0.560658 0.605704 -0.554112
C17   C     C_R   0.674671 0.973028 0.158628 0.573304
C18   C     C_R   0.325632 0.034243 0.840837 0.573217
C19   C     C_R   0.323735 0.527554 0.347996 0.578726
C20   C     C_R   0.676203 0.473300 0.652714 0.578622
C21   C     C_R   0.777271 0.795660 0.185950 -0.077321
C22   C     C_R   0.222679 0.207632 0.815002 -0.078200
C23   C     C_R   0.223065 0.320411 0.305006 -0.069640
C24   C     C_R   0.776973 0.679878 0.695374 -0.069905
C25   C     C_R   0.827793 0.787779 0.209414 -0.237896
C26   C     C_R   0.172147 0.215006 0.791611 -0.238064
C27   C     C_R   0.172523 0.310332 0.281645 -0.232391
C28   C     C_R   0.827524 0.689909 0.718578 -0.232808
C29   C     C_R   0.835231 0.041671 0.118818 -0.044568
C30   C     C_R   0.165011 0.955844 0.879743 -0.044819
C31   C     C_R   0.164148 0.520082 0.389160 -0.041875
C32   C     C_R   0.835753 0.479637 0.611160 -0.041904
C33   C     C_R   0.784420 0.051704 0.098024 -0.170707
C34   C     C_R   0.215831 0.946262 0.900322 -0.170634
C35   C     C_R   0.215002 0.530695 0.410990 -0.167648
C36   C     C_R   0.784892 0.469066 0.589494 -0.167868
C37   C     C_R   0.755194 0.928217 0.130367 0.368371
C38   C     C_R   0.244919 0.072702 0.869253 0.368528
C39   C     C_R   0.244633 0.430940 0.369692 0.370537
C40   C     C_R   0.755328 0.569123 0.630814 0.370681
C41   C     C_R   0.602189 0.964523 0.053014 -0.043830
C42   C     C_R   0.397952 0.038142 0.946837 -0.044122
C43   C     C_R   0.397685 0.467737 0.446741 -0.043480
C44   C     C_R   0.602252 0.532969 0.553952 -0.043291
C45   C     C_R   0.631920 0.924029 0.998750 -0.033675
C46   C     C_R   0.368042 0.073101 0.001379 -0.033756
C47   C     C_R   0.369342 0.376422 0.493610 -0.034998
C48   C     C_R   0.630609 0.623814 0.506980 -0.035079
C49   C     C_R   0.610744 0.900396 0.918461 -0.125901
C50   C     C_R   0.389020 0.090922 0.082024 -0.125544
C51   C     C_R   0.392018 0.300159 0.566592 -0.127490
C52   C     C_R   0.607944 0.699749 0.433932 -0.127772
C53   C     C_R   0.623882 0.987075 0.133909 -0.030156
C54   C     C_R   0.376431 0.020764 0.865628 -0.030066
C55   C     C_R   0.374511 0.543202 0.373019 -0.034285
C56   C     C_R   0.625417 0.457848 0.627742 -0.034447
C57   C     C_R   0.857502 0.910880 0.177239 -0.065792
C58   C     C_R   0.142560 0.089140 0.822619 -0.066070
C59   C     C_R   0.142417 0.410855 0.322300 -0.063982
C60   C     C_R   0.857564 0.589131 0.677886 -0.063928
H5    H     H_    0.767231 0.152411 0.054228 0.133410
H6    H     H_    0.233131 0.843640 0.943103 0.133237
H7    H     H_    0.231933 0.613893 0.461672 0.131137
H8    H     H_    0.767902 0.385705 0.538901 0.131149
H9    H     H_    0.632705 0.867818 0.875451 0.172149
H10   H     H_    0.366865 0.117484 0.125359 0.172021
H11   H     H_    0.371155 0.228586 0.603807 0.174509
H12   H     H_    0.628822 0.770873 0.396620 0.174535
C61   C     C_R   0.478772 0.984053 0.917416 0.038853
C62   C     C_R   0.521454 0.021396 0.082356 0.038713
C63   C     C_R   0.522952 0.423776 0.575330 0.035246
C64   C     C_R   0.476972 0.577267 0.425440 0.035286
C65   C     C_R   0.470210 0.038567 0.055792 0.035906
C66   C     C_R   0.529861 0.962137 0.944233 0.035731
C67   C     C_R   0.528243 0.593948 0.452392 0.034797
C68   C     C_R   0.471693 0.406740 0.548305 0.035094
C69   C     C_R   0.449207 0.020282 0.973458 0.064843
C70   C     C_R   0.550939 0.982690 0.026428 0.064991
C71   C     C_R   0.550919 0.516915 0.527128 0.063274
C72   C     C_R   0.449013 0.483904 0.473595 0.063217
C73   C     C_R   0.455914 0.971857 0.835999 -0.181394
C74   C     C_R   0.544579 0.041543 0.163358 -0.182034
C75   C     C_R   0.547563 0.350899 0.649375 -0.178822
C76   C     C_R   0.452339 0.650750 0.351520 -0.178839
C77   C     C_R   0.405923 0.989123 0.810937 -0.136016
C78   C     C_R   0.594592 0.025043 0.188308 -0.136863
C79   C     C_R   0.597564 0.367733 0.674770 -0.136089
C80   C     C_R   0.402342 0.633892 0.326115 -0.135698
O25   O     O_2   0.304953 0.012219 0.763315 -0.519575
O26   O     O_2   0.695529 0.999958 0.235783 -0.519944
O27   O     O_2   0.698465 0.399457 0.722974 -0.519671
O28   O     O_2   0.301466 0.601722 0.277802 -0.519510
C81   C     C_R   0.560935 0.918923 0.891661 -0.181603
C82   C     C_R   0.438864 0.073767 0.108793 -0.181067
C83   C     C_R   0.441956 0.314559 0.593414 -0.177996
C84   C     C_R   0.558001 0.685548 0.407160 -0.178307
H13   H     H_    0.156111 0.318729 0.748426 0.143548
H14   H     H_    0.843734 0.686023 0.253608 0.143329
H15   H     H_    0.843294 0.774848 0.769324 0.141490
H16   H     H_    0.156811 0.225585 0.230804 0.141624
H17   H     H_    0.244583 0.307369 0.790922 0.143059
H18   H     H_    0.755243 0.698246 0.211037 0.143332
H19   H     H_    0.754576 0.758694 0.727576 0.144763
H20   H     H_    0.245517 0.241848 0.272813 0.144837
H21   H     H_    0.390456 0.977438 0.747973 0.163714
H22   H     H_    0.610246 0.042575 0.250953 0.164861
H23   H     H_    0.614366 0.308805 0.731850 0.168684
H24   H     H_    0.385527 0.693256 0.269124 0.168315
H25   H     H_    0.475499 0.949945 0.789320 0.115815
H26   H     H_    0.525280 0.071463 0.209714 0.117275
H27   H     H_    0.529424 0.279314 0.689858 0.118733
H28   H     H_    0.470450 0.722989 0.311169 0.118576
H29   H     H_    0.548101 0.896718 0.828976 0.120501
H30   H     H_    0.451407 0.088293 0.171944 0.119217
H31   H     H_    0.455901 0.251085 0.650213 0.117956
H32   H     H_    0.544078 0.748526 0.350256 0.118826
C85   C     C_2   0.862755 0.162958 0.074081 0.374053
H33   H     H_    0.847100 0.293625 0.049676 0.051173
O29   O     O_2   0.901531 0.114170 0.059765 -0.533748
C86   C     C_2   0.137681 0.831380 0.923489 0.376736
H34   H     H_    0.153263 0.699124 0.945949 0.050035
O30   O     O_2   0.099205 0.879144 0.939255 -0.533320
C87   C     C_2   0.135964 0.618251 0.440582 0.357880
H35   H     H_    0.152568 0.731946 0.477937 0.059409
O31   O     O_2   0.095191 0.568744 0.445092 -0.535394
C88   C     C_2   0.863854 0.381161 0.559698 0.358049
H36   H     H_    0.847203 0.267329 0.522473 0.059489
O32   O     O_2   0.904606 0.430558 0.555006 -0.535351

loop_
_geom_bond_atom_site_label_1
_geom_bond_atom_site_label_2
_ccdc_geom_bond_type
O17   V3    S    
C35   C39   A    
C61   C66   A    
N1    C17   A    
O1    C5    A    
O19   V1    S    
O13   V1    S    
C63   C68   A    
C64   C76   A    
O3    C7    A    
C11   C12   D    
C14   C46   A    
C44   C48   A    
O15   V3    S    
C36   H8    S    
C42   C54   A    
O18   V4    S    
C41   C53   A    
C32   C60   A    
C62   C70   A    
C23   H20   S    
C26   H13   S    
C73   H25   S    
C86   H34   S    
N3    C39   S    
C18   C54   A    
N2    C38   S    
C74   C78   A    
C11   H3    S    
O4    C8    A    
C25   C57   A    
C31   C35   A    
C53   C78   A    
C75   H27   S    
C81   H29   S    
C27   C59   A    
O1    V3    S    
C15   C47   A    
C66   C81   A    
O2    V4    S    
C14   O22   S    
C20   O27   S    
C21   C37   A    
O3    V1    S    
C73   C77   A    
C34   C38   A    
C29   C85   S    
C49   C81   A    
C83   H31   S    
C1    O15   A    
C82   H30   S    
C2    O16   A    
C7    C9    S    
O2    C6    A    
C19   C55   A    
C87   O31   D    
C33   C37   A    
O14   V2    S    
C41   C45   A    
C85   O29   D    
C66   C70   A    
O5    V1    S    
C65   C69   A    
C30   C58   A    
C16   N4    A    
O11   C7    A    
C28   H15   S    
O12   C8    A    
C43   C72   A    
C62   C74   A    
C31   C59   A    
C61   C73   A    
O10   V2    S    
C63   C75   A    
C52   H12   S    
C25   H14   S    
C88   O32   D    
C18   O25   S    
O7    V3    S    
O8    V4    S    
C77   H21   S    
C12   H4    S    
C28   C60   A    
C56   C79   A    
C50   C82   A    
N4    C40   S    
C46   C50   A    
C35   H7    S    
C24   C40   A    
C8    C10   S    
O9    V1    S    
C76   C80   A    
C32   C36   A    
C52   C84   A    
C44   C56   A    
O7    C3    A    
O5    C1    A    
C42   C46   A    
C87   H35   S    
C44   C71   A    
C74   H26   S    
O8    C4    A    
C13   C45   A    
C9    C10   D    
O9    C5    A    
C36   C40   A    
N2    C18   A    
O11   V3    S    
C1    C60   S    
C63   C71   A    
C51   C83   A    
C22   C26   A    
C14   N2    A    
C51   H11   S    
C22   H17   S    
O6    V2    S    
C76   H28   S    
C75   C79   A    
C55   C80   A    
C26   C58   A    
C17   C53   A    
C84   H32   S    
C54   C77   A    
N1    C37   S    
C4    C57   S    
C42   C69   A    
C78   H22   S    
C79   H23   S    
C41   C70   A    
C50   H10   S    
C23   C39   A    
C68   C72   A    
C49   H9    S    
C22   C38   A    
C88   H36   S    
O16   V4    S    
C61   C69   A    
C3    O13   A    
C10   H2    S    
C43   C55   A    
C48   C52   A    
C3    C58   S    
C16   C48   A    
C47   C51   A    
O6    C2    A    
C31   C87   S    
C21   C25   A    
C5    C11   S    
C32   C88   S    
O12   V4    S    
C13   N1    A    
C6    C12   S    
C23   C27   A    
C64   C67   A    
C24   C28   A    
C27   H16   S    
C64   C72   A    
C86   O30   D    
C43   C47   A    
O10   C6    A    
C30   C34   A    
N4    C20   A    
C2    C59   S    
C15   N3    A    
C29   C33   A    
O20   V2    S    
C29   C57   A    
C21   H18   S    
N3    C19   A    
C68   C83   A    
C9    H1    S    
C17   O26   S    
C24   H19   S    
C16   O24   S    
C67   C84   A    
C20   C56   A    
C19   O28   S    
C45   C49   A    
C4    O14   A    
C65   C82   A    
C13   O21   S    
C80   H24   S    
C67   C71   A    
C30   C86   S    
C85   H33   S    
C15   O23   S    
O4    V2    S    
C34   H6    S    
C62   C65   A    
C33   H5    S    
