data_str_m4_o22_o24_f0_acs.sym.98
_audit_creation_date              2012-12-11T15:09:00-0500
_audit_creation_method            fapswitch 2.2
_symmetry_space_group_name_H-M    P1
_symmetry_Int_Tables_number       1
_space_group_crystal_system       triclinic
_cell_length_a                    19.518481
_cell_length_b                    11.242691
_cell_length_c                    18.722157
_cell_angle_alpha                 90.080453
_cell_angle_beta                  89.884935
_cell_angle_gamma                 90.081794
_cell_volume                      4108.37832027

loop_
_atom_site_label
_atom_site_type_symbol
_atom_type_description
_atom_site_fract_x
_atom_site_fract_y
_atom_site_fract_z
_atom_type_partial_charge
C1    C     C_R   0.274279 0.039620 0.856034 0.530169
C2    C     C_R   0.726866 0.042167 0.145294 0.529238
C3    C     C_R   0.774279 0.539620 0.856034 0.530169
C4    C     C_R   0.226866 0.542167 0.145294 0.529238
C5    C     C_3   0.519632 0.722462 0.961971 0.196535
C6    C     C_3   0.484301 0.712712 0.034044 0.193578
C7    C     C_3   0.019632 0.222462 0.961971 0.196535
C8    C     C_3   0.984301 0.212712 0.034044 0.193578
C9    C     C_3   0.311635 0.535589 0.043898 -0.229925
C10   C     C_3   0.696877 0.508528 0.962059 -0.244429
C11   C     C_3   0.811635 0.035589 0.043898 -0.229925
C12   C     C_3   0.196877 0.008528 0.962059 -0.244429
C13   C     C_3   0.320162 0.553804 0.962972 -0.228176
C14   C     C_3   0.692440 0.516846 0.043914 -0.249903
C15   C     C_3   0.820162 0.053804 0.962972 -0.228176
C16   C     C_3   0.192440 0.016846 0.043914 -0.249903
C17   C     C_3   0.182862 0.508037 0.024898 -0.209963
C18   C     C_3   0.827069 0.527280 0.975115 -0.207061
C19   C     C_3   0.682862 0.008037 0.024898 -0.209963
C20   C     C_3   0.327069 0.027280 0.975115 -0.207061
C21   C     C_3   0.231363 0.703458 0.054205 -0.258130
C22   C     C_3   0.755509 0.700466 0.946398 -0.251875
C23   C     C_3   0.731363 0.203458 0.054205 -0.258130
C24   C     C_3   0.255509 0.200466 0.946398 -0.251875
C25   C     C_3   0.239293 0.571029 0.069134 0.056205
C26   C     C_3   0.762715 0.567693 0.932761 0.056627
C27   C     C_3   0.739293 0.071029 0.069134 0.056205
C28   C     C_3   0.262715 0.067693 0.932761 0.056627
C29   C     C_3   0.253706 0.605865 0.931076 0.052078
C30   C     C_3   0.748484 0.601525 0.070995 0.059718
C31   C     C_3   0.753706 0.105865 0.931076 0.052078
C32   C     C_3   0.248484 0.101525 0.070995 0.059718
C33   C     C_3   0.196243 0.515725 0.943556 -0.253780
C34   C     C_3   0.818450 0.544642 0.056239 -0.241966
C35   C     C_3   0.696243 0.015725 0.943556 -0.253780
C36   C     C_3   0.318450 0.044642 0.056239 -0.241966
C37   C     C_3   0.233951 0.720283 0.972856 -0.222716
C38   C     C_3   0.742172 0.717409 0.026989 -0.219293
C39   C     C_3   0.733951 0.220283 0.972856 -0.222716
C40   C     C_3   0.242172 0.217409 0.026989 -0.219293
C41   C     C_3   0.503917 0.700590 0.460301 -0.227955
C42   C     C_3   0.496036 0.700566 0.539589 -0.228229
C43   C     C_3   0.003917 0.200590 0.460301 -0.227956
C44   C     C_3   0.996036 0.200566 0.539589 -0.228229
C45   C     C_R   0.441610 0.816199 0.862357 0.542210
C46   C     C_R   0.556392 0.816365 0.137307 0.542177
C47   C     C_R   0.941610 0.316199 0.862357 0.542210
C48   C     C_R   0.056392 0.316365 0.137307 0.542177
C49   C     C_3   0.564303 0.905409 0.473334 -0.215894
C50   C     C_3   0.435819 0.905357 0.526864 -0.215579
C51   C     C_3   0.064302 0.405409 0.473334 -0.215894
C52   C     C_3   0.935819 0.405357 0.526864 -0.215579
C53   C     C_3   0.441186 0.887507 0.444934 -0.264436
C54   C     C_3   0.558910 0.887512 0.555240 -0.264401
C55   C     C_3   0.941186 0.387507 0.444934 -0.264436
C56   C     C_3   0.058910 0.387512 0.555240 -0.264401
C57   C     C_3   0.510528 0.829289 0.430946 0.063396
C58   C     C_3   0.489501 0.829233 0.569118 0.063657
C59   C     C_3   0.010528 0.329289 0.430946 0.063396
C60   C     C_3   0.989501 0.329233 0.569118 0.063657
C61   C     C_3   0.180017 0.647144 0.459620 -0.229235
C62   C     C_3   0.820053 0.647084 0.540429 -0.229136
C63   C     C_3   0.680017 0.147144 0.459620 -0.229235
C64   C     C_3   0.320053 0.147084 0.540429 -0.229136
C65   C     C_3   0.185004 0.659503 0.538815 -0.226332
C66   C     C_3   0.814987 0.659724 0.461251 -0.226178
C67   C     C_3   0.685004 0.159503 0.538815 -0.226332
C68   C     C_3   0.314987 0.159724 0.461251 -0.226178
C69   C     C_3   0.252091 0.454510 0.472687 -0.214022
C70   C     C_3   0.747831 0.454398 0.526980 -0.214430
C71   C     C_3   0.752091 0.954510 0.472687 -0.214022
C72   C     C_3   0.247831 0.954398 0.526980 -0.214430
C73   C     C_3   0.304412 0.648170 0.442067 -0.263809
C74   C     C_3   0.695630 0.647862 0.558076 -0.263531
C75   C     C_3   0.804412 0.148171 0.442067 -0.263809
C76   C     C_3   0.195631 0.147862 0.558076 -0.263531
C77   C     C_3   0.240428 0.572747 0.429867 0.065589
C78   C     C_3   0.759569 0.572577 0.570085 0.065142
C79   C     C_3   0.740428 0.072747 0.429867 0.065589
C80   C     C_3   0.259569 0.072577 0.570085 0.065142
C81   C     C_3   0.253107 0.606023 0.567438 0.064980
C82   C     C_3   0.746840 0.606113 0.432557 0.065311
C83   C     C_3   0.753107 0.106023 0.567438 0.064980
C84   C     C_3   0.246840 0.106113 0.432557 0.065311
C85   C     C_3   0.247355 0.472559 0.554503 -0.264575
C86   C     C_3   0.752530 0.472652 0.445196 -0.264304
C87   C     C_3   0.747355 0.972559 0.554503 -0.264575
C88   C     C_3   0.252530 0.972652 0.445196 -0.264304
C89   C     C_R   0.261513 0.639622 0.854199 0.532582
C90   C     C_R   0.739529 0.636306 0.147280 0.531288
C91   C     C_R   0.761513 0.139622 0.854199 0.532582
C92   C     C_R   0.239529 0.136306 0.147280 0.531288
C93   C     C_3   0.317314 0.648459 0.523663 -0.217156
C94   C     C_3   0.682676 0.648297 0.476488 -0.217112
C95   C     C_3   0.817315 0.148459 0.523663 -0.217156
C96   C     C_3   0.182676 0.148297 0.476488 -0.217112
C97   C     C_R   0.273345 0.043202 0.645733 0.538552
C98   C     C_R   0.726679 0.043331 0.354210 0.537188
C99   C     C_R   0.773345 0.543202 0.645733 0.538552
C100  C     C_R   0.226679 0.543331 0.354210 0.537188
C101  C     C_R   0.468919 0.823174 0.645401 0.544014
C102  C     C_R   0.531103 0.823187 0.354630 0.543546
C103  C     C_R   0.968919 0.323174 0.645401 0.544014
C104  C     C_R   0.031103 0.323187 0.354630 0.543546
C105  C     C_R   0.261200 0.640350 0.643469 0.540232
C106  C     C_R   0.738760 0.640443 0.356564 0.539073
C107  C     C_R   0.761200 0.140349 0.643469 0.540232
C108  C     C_R   0.238760 0.140443 0.356564 0.539073
C109  C     C_3   0.474614 0.905768 0.039057 -0.152303
C110  C     C_3   0.512353 0.915832 0.966214 -0.154632
C111  C     C_3   0.974615 0.405768 0.039057 -0.152303
C112  C     C_3   0.012353 0.415832 0.966214 -0.154632
C113  C     C_3   0.429820 0.802915 0.009324 -0.175680
C114  C     C_3   0.565700 0.822895 0.990536 -0.175250
C115  C     C_3   0.929820 0.302915 0.009324 -0.175680
C116  C     C_3   0.065700 0.322895 0.990536 -0.175250
C117  C     C_3   0.467751 0.815289 0.936638 0.036375
C118  C     C_3   0.528144 0.815181 0.063685 0.040886
C119  C     C_3   0.967751 0.315289 0.936638 0.036375
C120  C     C_3   0.028144 0.315181 0.063685 0.040886
Cr1   Cr    Cr6+3 0.229620 0.836040 0.749110 0.986312
Cr2   Cr    Cr6+3 0.770380 0.836040 0.250890 0.987794
Cr3   Cr    Cr6+3 0.729620 0.336040 0.749110 0.986312
Cr4   Cr    Cr6+3 0.270380 0.336040 0.250890 0.987794
Cr5   Cr    Cr6+3 0.387630 0.990680 0.750730 0.992578
Cr6   Cr    Cr6+3 0.612370 0.990680 0.249270 0.993425
Cr7   Cr    Cr6+3 0.887630 0.490680 0.750730 0.992578
Cr8   Cr    Cr6+3 0.112370 0.490680 0.249270 0.993425
Cr9   Cr    Cr6+3 0.386020 0.676590 0.749210 0.977924
Cr10  Cr    Cr6+3 0.613980 0.676590 0.250790 0.979333
Cr11  Cr    Cr6+3 0.886020 0.176590 0.749210 0.977924
Cr12  Cr    Cr6+3 0.113980 0.176590 0.250790 0.979333
H1    H     H_    0.375251 0.787811 0.021348 0.087906
H2    H     H_    0.617431 0.824718 0.968409 0.095393
H3    H     H_    0.875251 0.287811 0.021348 0.087906
H4    H     H_    0.117431 0.324718 0.968409 0.095393
H5    H     H_    0.181150 0.735380 0.074872 0.130150
H6    H     H_    0.802640 0.749319 0.930116 0.125945
H7    H     H_    0.681150 0.235380 0.074872 0.130150
H8    H     H_    0.302640 0.249319 0.930116 0.125945
H9    H     H_    0.271990 0.756029 0.081269 0.099021
H10   H     H_    0.712207 0.735057 0.914285 0.095880
H11   H     H_    0.771990 0.256029 0.081269 0.099021
H12   H     H_    0.212207 0.235057 0.914285 0.095880
H13   H     H_    0.270031 0.791460 0.959163 0.112539
H14   H     H_    0.688736 0.742459 0.034922 0.105899
H15   H     H_    0.770031 0.291460 0.959163 0.112539
H16   H     H_    0.188736 0.242459 0.034922 0.105899
H17   H     H_    0.180860 0.742268 0.956279 0.133188
H18   H     H_    0.776512 0.786379 0.047613 0.138512
H19   H     H_    0.680860 0.242267 0.956279 0.133188
H20   H     H_    0.276512 0.286379 0.047613 0.138512
H21   H     H_    0.631976 0.048858 0.036180 0.138931
H22   H     H_    0.373109 0.078474 0.957864 0.138692
H23   H     H_    0.131976 0.548858 0.036180 0.138931
H24   H     H_    0.873109 0.578473 0.957864 0.138692
H25   H     H_    0.148592 0.543330 0.915646 0.123032
H26   H     H_    0.859994 0.603640 0.076278 0.129638
H27   H     H_    0.648592 0.043330 0.915646 0.123032
H28   H     H_    0.359994 0.103640 0.076278 0.129638
H29   H     H_    0.547379 0.644358 0.446309 0.136708
H30   H     H_    0.452616 0.644118 0.553547 0.136490
H31   H     H_    0.047379 0.144358 0.446309 0.136708
H32   H     H_    0.952616 0.144118 0.553547 0.136490
H33   H     H_    0.459392 0.655048 0.435522 0.114413
H34   H     H_    0.540566 0.655211 0.564282 0.114107
H35   H     H_    0.959392 0.155048 0.435522 0.114413
H36   H     H_    0.040566 0.155211 0.564282 0.114107
H37   H     H_    0.616044 0.896493 0.453002 0.113303
H38   H     H_    0.384047 0.896565 0.547181 0.113169
H39   H     H_    0.116044 0.396493 0.453002 0.113303
H40   H     H_    0.884047 0.396565 0.547181 0.113169
H41   H     H_    0.600754 0.830681 0.575209 0.109340
H42   H     H_    0.399272 0.830674 0.424854 0.109389
H43   H     H_    0.100754 0.330682 0.575209 0.109340
H44   H     H_    0.899272 0.330674 0.424854 0.109389
H45   H     H_    0.457428 0.982484 0.071576 0.124491
H46   H     H_    0.524022 0.001037 0.938876 0.122188
H47   H     H_    0.957428 0.482484 0.071576 0.124491
H48   H     H_    0.024022 0.501037 0.938876 0.122188
H49   H     H_    0.438058 0.974048 0.416684 0.109122
H50   H     H_    0.562120 0.974004 0.583682 0.109283
H51   H     H_    0.938058 0.474048 0.416684 0.109122
H52   H     H_    0.062120 0.474004 0.583682 0.109283
H53   H     H_    0.449995 0.998993 0.537093 0.118032
H54   H     H_    0.550235 0.999014 0.463306 0.117988
H55   H     H_    0.949995 0.498993 0.537093 0.118032
H56   H     H_    0.050235 0.499014 0.463306 0.117988
H57   H     H_    0.130095 0.610143 0.446406 0.134750
H58   H     H_    0.869912 0.609874 0.553424 0.134420
H59   H     H_    0.630095 0.110143 0.446406 0.134750
H60   H     H_    0.369912 0.109875 0.553424 0.134420
H61   H     H_    0.179435 0.736429 0.434502 0.114051
H62   H     H_    0.820836 0.736289 0.565815 0.114277
H63   H     H_    0.679435 0.236429 0.434502 0.114051
H64   H     H_    0.320836 0.236289 0.565815 0.114277
H65   H     H_    0.178292 0.752773 0.552545 0.135430
H66   H     H_    0.821704 0.753050 0.447774 0.135117
H67   H     H_    0.678292 0.252773 0.552545 0.135430
H68   H     H_    0.321704 0.253050 0.447774 0.135117
H69   H     H_    0.140533 0.615093 0.564428 0.115245
H70   H     H_    0.859422 0.615529 0.435456 0.115321
H71   H     H_    0.640533 0.115093 0.564428 0.115245
H72   H     H_    0.359422 0.115529 0.435456 0.115321
H73   H     H_    0.721321 0.880912 0.453649 0.114105
H74   H     H_    0.278686 0.880945 0.545732 0.113936
H75   H     H_    0.221321 0.380912 0.453649 0.114105
H76   H     H_    0.778686 0.380945 0.545732 0.113936
H77   H     H_    0.698423 0.938194 0.575871 0.108795
H78   H     H_    0.301447 0.938473 0.423714 0.108534
H79   H     H_    0.198423 0.438194 0.575871 0.108795
H80   H     H_    0.801447 0.438473 0.423714 0.108534
H81   H     H_    0.348810 0.609538 0.413051 0.109650
H82   H     H_    0.651196 0.609065 0.587006 0.109529
H83   H     H_    0.848810 0.109538 0.413051 0.109650
H84   H     H_    0.151196 0.109065 0.587006 0.109529
H85   H     H_    0.296656 0.739185 0.421600 0.108171
H86   H     H_    0.703451 0.738869 0.578768 0.108318
H87   H     H_    0.796656 0.239185 0.421600 0.108171
H88   H     H_    0.203451 0.238870 0.578768 0.108318
H89   H     H_    0.338942 0.731124 0.542793 0.112553
H90   H     H_    0.661092 0.731004 0.457661 0.112233
H91   H     H_    0.838942 0.231124 0.542793 0.112553
H92   H     H_    0.161092 0.231003 0.457661 0.112233
H93   H     H_    0.357302 0.580946 0.533186 0.116993
H94   H     H_    0.642586 0.580758 0.466813 0.116968
H95   H     H_    0.857302 0.080946 0.533186 0.116993
H96   H     H_    0.142586 0.080758 0.466813 0.116968
H97   H     H_    0.305634 0.428856 0.461472 0.119931
H98   H     H_    0.694290 0.428475 0.538147 0.119689
H99   H     H_    0.805634 0.928856 0.461472 0.119931
H100  H     H_    0.194290 0.928475 0.538147 0.119689
H101  H     H_    0.289493 0.425181 0.582135 0.108762
H102  H     H_    0.710350 0.425214 0.417461 0.108757
H103  H     H_    0.789493 0.925181 0.582135 0.108762
H104  H     H_    0.210350 0.925214 0.417461 0.108757
H105  H     H_    0.328110 0.445848 0.059706 0.132761
H106  H     H_    0.687785 0.420171 0.941899 0.128936
H107  H     H_    0.828110 0.945848 0.059706 0.132761
H108  H     H_    0.187785 0.920171 0.941899 0.128936
H109  H     H_    0.345362 0.596661 0.072044 0.137597
H110  H     H_    0.654281 0.557098 0.939642 0.156998
H111  H     H_    0.845362 0.096661 0.072044 0.137597
H112  H     H_    0.154281 0.057098 0.939642 0.156998
H113  H     H_    0.363338 0.615241 0.952674 0.145613
H114  H     H_    0.641906 0.553239 0.058475 0.143476
H115  H     H_    0.863338 0.115241 0.952674 0.145613
H116  H     H_    0.141906 0.053239 0.058475 0.143476
H117  H     H_    0.332753 0.467534 0.936963 0.109812
H118  H     H_    0.697521 0.429255 0.069404 0.110891
H119  H     H_    0.832753 0.967534 0.936963 0.109812
H120  H     H_    0.197521 0.929255 0.069404 0.110891
H121  H     H_    0.678836 0.918280 0.044343 0.098222
H122  H     H_    0.337908 0.935296 0.961142 0.100839
H123  H     H_    0.178837 0.418280 0.044343 0.098222
H124  H     H_    0.837908 0.435296 0.961142 0.100839
H125  H     H_    0.711555 0.928859 0.921412 0.108667
H126  H     H_    0.322605 0.958079 0.084449 0.106183
H127  H     H_    0.211555 0.428859 0.921412 0.108667
H128  H     H_    0.822605 0.458079 0.084449 0.106183
O1    O     O_R   0.214130 0.708570 0.829890 -0.528839
O2    O     O_R   0.785870 0.708570 0.170110 -0.529418
O3    O     O_R   0.714130 0.208570 0.829890 -0.528839
O4    O     O_R   0.285870 0.208570 0.170110 -0.529418
O5    O     O_R   0.446360 0.919990 0.675230 -0.506838
O6    O     O_R   0.553640 0.919990 0.324770 -0.506816
O7    O     O_R   0.946360 0.419990 0.675230 -0.506838
O8    O     O_R   0.053640 0.419990 0.324770 -0.506816
O9    O     O_R   0.457170 0.717300 0.668380 -0.533994
O10   O     O_R   0.542830 0.717300 0.331620 -0.532982
O11   O     O_R   0.957170 0.217300 0.668380 -0.533994
O12   O     O_R   0.042830 0.217300 0.331620 -0.532982
O13   O     O_R   0.320870 0.624890 0.673130 -0.511158
O14   O     O_R   0.679130 0.624890 0.326870 -0.511854
O15   O     O_R   0.820870 0.124890 0.673130 -0.511158
O16   O     O_R   0.179130 0.124890 0.326870 -0.511854
O17   O     O_3   0.334430 0.834430 0.749680 -0.283398
O18   O     O_3   0.665570 0.834430 0.250320 -0.279823
O19   O     O_3   0.834430 0.334430 0.749680 -0.283398
O20   O     O_3   0.165570 0.334430 0.250320 -0.279823
O21   O     O_R   0.236050 0.959150 0.825270 -0.515005
O22   O     O_R   0.763950 0.959150 0.174730 -0.514792
O23   O     O_R   0.736050 0.459150 0.825270 -0.515005
O24   O     O_R   0.263950 0.459150 0.174730 -0.514792
O25   O     O_R   0.332100 0.076650 0.832310 -0.534038
O26   O     O_R   0.667900 0.076650 0.167690 -0.534169
O27   O     O_R   0.832100 0.576650 0.832310 -0.534038
O28   O     O_R   0.167900 0.576650 0.167690 -0.534169
O29   O     O_R   0.446500 0.918620 0.826240 -0.506570
O30   O     O_R   0.553500 0.918620 0.173760 -0.505433
O31   O     O_R   0.946500 0.418620 0.826240 -0.506570
O32   O     O_R   0.053500 0.418620 0.173760 -0.505433
O33   O     O_R   0.457310 0.715830 0.831280 -0.518439
O34   O     O_R   0.542690 0.715830 0.168720 -0.525687
O35   O     O_R   0.957310 0.215830 0.831280 -0.518439
O36   O     O_R   0.042690 0.215830 0.168720 -0.525687
O37   O     O_R   0.321000 0.623520 0.824130 -0.525536
O38   O     O_R   0.679000 0.623520 0.175870 -0.527595
O39   O     O_R   0.821000 0.123520 0.824130 -0.525536
O40   O     O_R   0.179000 0.123520 0.175870 -0.527595
O41   O     O_R   0.213990 0.710040 0.667000 -0.532806
O42   O     O_R   0.786010 0.710040 0.333000 -0.533384
O43   O     O_R   0.713990 0.210040 0.667000 -0.532806
O44   O     O_R   0.286010 0.210040 0.333000 -0.533384
O45   O     O_R   0.235920 0.960520 0.674260 -0.510973
O46   O     O_R   0.764080 0.960520 0.325740 -0.511692
O47   O     O_R   0.735920 0.460520 0.674260 -0.510973
O48   O     O_R   0.264080 0.460520 0.325740 -0.511692
O49   O     O_R   0.331960 0.078120 0.669410 -0.533616
O50   O     O_R   0.668040 0.078120 0.330590 -0.534169
O51   O     O_R   0.831960 0.578120 0.669410 -0.533616
O52   O     O_R   0.168040 0.578120 0.330590 -0.534169
N1    N     N_2   0.547502 0.627757 0.917742 -0.526885
H129  H     H_    0.576383 0.657217 0.875045 0.256355
C121  C     C_3   0.508561 0.519972 0.903686 -0.275989
H130  H     H_    0.541662 0.441542 0.913509 0.109198
H131  H     H_    0.492978 0.514838 0.846836 0.167846
H132  H     H_    0.462549 0.513529 0.937909 0.163489
N2    N     N_2   0.464148 0.606930 0.073816 -0.525575
H133  H     H_    0.440244 0.627041 0.121472 0.264686
C122  C     C_3   0.508781 0.504875 0.080442 -0.302312
H134  H     H_    0.542708 0.513280 0.127523 0.173153
H135  H     H_    0.540205 0.490883 0.032702 0.157520
H136  H     H_    0.476832 0.424162 0.088170 0.122956
N3    N     N_2   0.047502 0.127757 0.917742 -0.526885
H137  H     H_    0.076383 0.157217 0.875045 0.256356
C123  C     C_3   0.008561 0.019972 0.903686 -0.275989
H138  H     H_    0.041662 0.941542 0.913509 0.109198
H139  H     H_    0.992978 0.014837 0.846836 0.167846
H140  H     H_    0.962549 0.013529 0.937909 0.163489
N4    N     N_2   0.964148 0.106930 0.073816 -0.525575
H141  H     H_    0.940244 0.127041 0.121472 0.264686
C124  C     C_3   0.008781 0.004875 0.080442 -0.302312
H142  H     H_    0.042708 0.013280 0.127523 0.173153
H143  H     H_    0.040205 0.990883 0.032702 0.157520
H144  H     H_    0.976832 0.924162 0.088170 0.122956

loop_
_geom_bond_atom_site_label_1
_geom_bond_atom_site_label_2
_ccdc_geom_bond_type
C82   C94   S    
C55   C59   S    
C35   H125  S    
C83   C87   S    
C73   C93   S    
C47   O31   A    
C42   C58   S    
C29   C89   S    
C16   H120  S    
C89   O37   A    
C48   C120  S    
C124  H142  S    
C24   H8    S    
C57   C102  S    
Cr6   O18   S    
Cr7   O7    S    
C85   H101  S    
C59   C104  S    
Cr1   O17   S    
Cr9   O33   S    
C5    C6    S    
Cr10  O10   S    
Cr3   O19   S    
Cr4   O4    S    
Cr12  O16   S    
C29   C33   S    
C87   H103  S    
C30   C38   S    
C77   C100  S    
C44   H36   S    
C9    C13   S    
C11   C15   S    
C49   H54   S    
C12   C16   S    
C98   O50   A    
C99   O47   A    
C52   H55   S    
C103  O7    A    
C60   C103  S    
C107  O15   A    
C83   C107  S    
C88   H78   S    
C74   H82   S    
C111  H47   S    
C23   H11   S    
C64   H60   S    
C109  C118  S    
C16   H116  S    
Cr5   O25   S    
C50   C53   S    
C75   C95   S    
C7    C119  S    
Cr8   O28   S    
C62   H58   S    
C62   C66   S    
Cr2   O2    S    
C72   H74   S    
C20   C28   S    
C18   H124  S    
Cr12  O36   S    
C43   C44   S    
C66   C82   S    
C75   H87   S    
C58   C101  S    
C105  O41   A    
C92   O4    A    
C107  O43   A    
C14   H118  S    
C108  O44   A    
C19   H21   S    
C89   O1    A    
C62   H62   S    
Cr5   O49   S    
C17   H23   S    
C91   O3    A    
C124  H144  S    
Cr1   O45   S    
Cr5   O5    S    
Cr2   O42   S    
C3    C26   S    
C84   C88   S    
Cr12  O12   S    
C22   H10   S    
C110  H46   S    
C85   H79   S    
C13   H117  S    
Cr10  O34   S    
C17   C25   S    
C19   C35   S    
C76   C96   S    
C1    O21   A    
C32   C92   S    
C75   H83   S    
C95   H95   S    
C67   H71   S    
C21   H9    S    
C93   H93   S    
C12   H108  S    
C122  H134  S    
C78   C99   S    
C45   O29   A    
C76   H88   S    
C75   C79   S    
C8    N4    S    
Cr5   O29   S    
C22   C38   S    
N2    C122  S    
C67   C83   S    
C80   C97   S    
C68   H72   S    
C11   H111  S    
C69   C77   S    
C111  C112  S    
C9    H109  S    
C52   H40   S    
C71   C79   S    
C4    C25   S    
Cr4   O20   S    
C7    C8    S    
Cr10  O38   S    
C96   H96   S    
C24   H12   S    
C100  O52   A    
N1    C121  S    
C39   H19   S    
C49   C57   S    
C40   H20   S    
Cr9   O37   S    
N3    C123  S    
C38   H14   S    
C51   H56   S    
C52   C60   S    
C19   H121  S    
C61   C77   S    
C12   H112  S    
C36   H126  S    
C47   O35   A    
C110  C114  S    
C48   O36   A    
C43   C59   S    
C112  H48   S    
C90   O38   A    
C74   H86   S    
Cr1   O21   S    
Cr2   O18   S    
Cr4   O24   S    
Cr12  O20   S    
C81   C105  S    
C30   C34   S    
C34   H128  S    
C10   C14   S    
C123  H139  S    
C101  O9    A    
C95   H91   S    
C116  C120  S    
C103  O11   A    
C7    C116  S    
C69   H97   S    
N4    C124  S    
C71   H73   S    
C122  H136  S    
C33   H127  S    
C114  H2    S    
Cr11  O11   S    
C66   H66   S    
C113  C117  S    
C31   C91   S    
Cr6   O26   S    
C9    H105  S    
Cr4   O48   S    
C61   H61   S    
C112  C116  S    
C69   C85   S    
C45   C117  S    
C21   C25   S    
C121  H132  S    
C73   C77   S    
Cr12  O40   S    
C62   C78   S    
C76   C80   S    
C42   H30   S    
C15   C31   S    
C43   H35   S    
C16   C32   S    
C97   O45   A    
C105  O13   A    
C106  O42   A    
C72   C80   S    
C115  H3    S    
C64   H64   S    
C4    O24   A    
C82   C106  S    
C61   C65   S    
C90   O2    A    
C55   H44   S    
Cr6   O50   S    
C66   H70   S    
Cr8   O32   S    
C94   H90   S    
Cr6   O6    S    
C113  H1    S    
C46   O34   A    
Cr7   O19   S    
Cr8   O20   S    
C81   C85   S    
C13   H113  S    
C41   H29   S    
C87   H77   S    
C41   C42   S    
C74   C94   S    
Cr9   O13   S    
C18   C26   S    
C30   C90   S    
Cr11  O39   S    
C1    O25   A    
C9    C25   S    
C2    O22   A    
C3    O27   A    
C86   H102  S    
C12   C28   S    
C13   C29   S    
C86   H80   S    
C67   H67   S    
C98   O46   A    
C46   C118  S    
Cr6   O30   S    
C106  O14   A    
C7    N3    S    
C1    C28   S    
C2    C27   S    
Cr10  O14   S    
C72   H100  S    
Cr11  O19   S    
C61   H57   S    
C52   C55   S    
C32   C36   S    
C121  H130  S    
C64   C80   S    
C73   H81   S    
C17   C33   S    
C110  C117  S    
C38   H18   S    
C33   H25   S    
C124  H143  S    
C69   H75   S    
C40   H16   S    
C68   C84   S    
C24   C28   S    
C53   C57   S    
C82   C86   S    
C56   C60   S    
C115  C119  S    
C50   C58   S    
N4    H141  S    
C104  O12   A    
C48   O32   A    
Cr7   O27   S    
C76   H84   S    
C65   C81   S    
C91   O39   A    
Cr8   O8    S    
C50   H38   S    
C20   H122  S    
Cr2   O22   S    
C71   C87   S    
C15   H115  S    
C31   C35   S    
C64   C68   S    
Cr11  O35   S    
C101  O5    A    
C102  O10   A    
C37   H17   S    
C108  O16   A    
C112  C119  S    
C116  H4    S    
C56   H52   S    
C22   H6    S    
C41   C57   S    
C123  H138  S    
C109  C110  S    
C49   H37   S    
N1    H129  S    
Cr5   O17   S    
C44   C60   S    
C63   H59   S    
C84   C108  S    
N3    H137  S    
C94   H94   S    
N2    H133  S    
C20   C36   S    
C109  H45   S    
C21   C37   S    
C22   C26   S    
C29   C37   S    
C55   H51   S    
C44   H32   S    
C70   H76   S    
C42   H34   S    
C43   H31   S    
C6    N2    S    
C97   O49   A    
C5    C114  S    
C70   C78   S    
C79   C98   S    
C99   O51   A    
C10   H110  S    
C63   C79   S    
C4    O28   A    
C20   H22   S    
C92   O40   A    
C54   H41   S    
C23   H7    S    
C46   O30   A    
C11   H107  S    
C49   C54   S    
Cr3   O47   S    
C51   C56   S    
C84   C96   S    
C8    C115  S    
Cr1   O1    S    
Cr3   O3    S    
C96   H92   S    
C41   H33   S    
C54   H50   S    
Cr9   O17   S    
C11   C27   S    
C19   C27   S    
C74   C78   S    
C109  C113  S    
C2    O26   A    
C10   C26   S    
C47   C119  S    
C14   C30   S    
C72   C88   S    
C53   H42   S    
C88   H104  S    
C63   C67   S    
C121  H131  S    
C56   H43   S    
Cr7   O31   S    
C122  H135  S    
Cr1   O41   S    
C21   H5    S    
C5    C117  S    
C111  C120  S    
Cr10  O18   S    
Cr3   O43   S    
C70   H98   S    
C6    C113  S    
Cr11  O15   S    
Cr4   O44   S    
C53   H49   S    
C81   C93   S    
C83   C95   S    
C73   H85   S    
C18   C34   S    
C114  C118  S    
C65   H65   S    
C34   H26   S    
C10   H106  S    
C23   C27   S    
C51   C59   S    
C70   C86   S    
C8    C120  S    
Cr2   O46   S    
C54   C58   S    
C17   H123  S    
C45   O33   A    
C104  O8    A    
C18   H24   S    
C123  H140  S    
C111  C115  S    
C5    N1    S    
Cr7   O51   S    
Cr8   O52   S    
C68   H68   S    
C51   H39   S    
C71   H99   S    
Cr3   O23   S    
C15   H119  S    
C23   C39   S    
C3    O23   A    
C24   C40   S    
C31   C39   S    
C63   H63   S    
C32   C40   S    
C35   H27   S    
Cr9   O9    S    
C36   H28   S    
C100  O48   A    
C65   H69   S    
C102  O6    A    
C39   H15   S    
C93   H89   S    
C37   H13   S    
C50   H53   S    
C6    C118  S    
C14   H114  S    
