data_str_m3_o10_o18_f0_pcu.sym.142
_audit_creation_date              2012-12-10T16:52:37-0500
_audit_creation_method            fapswitch 2.2
_symmetry_space_group_name_H-M    P1
_symmetry_Int_Tables_number       1
_space_group_crystal_system       triclinic
_cell_length_a                    7.997017
_cell_length_b                    8.549125
_cell_length_c                    13.812301
_cell_angle_alpha                 96.045435
_cell_angle_beta                  94.055885
_cell_angle_gamma                 92.672231
_cell_volume                      935.316316785

loop_
_atom_site_label
_atom_site_type_symbol
_atom_type_description
_atom_site_fract_x
_atom_site_fract_y
_atom_site_fract_z
_atom_type_partial_charge
C1    C     C_R   0.043787 0.793996 0.500692 0.956462
C2    C     C_R   0.936640 0.489213 0.318395 0.853202
C3    C     C_R   0.101269 0.545169 0.786427 -0.060670
C4    C     C_R   0.906391 0.483173 0.213090 -0.048708
C5    C     C_R   0.077989 0.709534 0.937428 -0.186131
C6    C     C_R   0.963386 0.380823 0.049989 -0.186719
C7    C     C_R   0.012791 0.653093 0.843388 -0.202765
C8    C     C_R   0.011773 0.405493 0.149419 -0.203346
C9    C     C_R   0.248951 0.489044 0.824723 -0.280487
C10   C     C_R   0.761689 0.547634 0.176792 -0.283677
C11   C     C_R   0.326234 0.556864 0.913847 0.088048
C12   C     C_R   0.956523 0.206341 0.501987 0.957761
C13   C     C_R   0.710126 0.524643 0.077545 0.087352
C14   C     C_R   0.235800 0.664585 0.972349 0.174692
C15   C     C_R   0.809986 0.434089 0.014334 0.178004
C16   C     C_R   0.491222 0.521440 0.945388 0.060819
C17   C     C_R   0.555247 0.578290 0.041414 0.063638
C18   C     C_3   0.488006 0.373914 0.383821 -0.129238
C19   C     C_3   0.376622 0.226440 0.345239 -0.406155
C20   C     C_3   0.425233 0.083356 0.396552 -0.856212
C21   C     C_3   0.512953 0.634458 0.613329 -0.157607
C22   C     C_3   0.625885 0.784005 0.641527 -0.376235
C23   C     C_R   0.462138 0.686024 0.098180 -0.238292
C24   C     C_3   0.566170 0.881476 0.730471 -0.963921
C25   C     C_R   0.595886 0.434732 0.883248 -0.240832
C26   C     C_R   0.305492 0.728683 0.063728 -0.226250
C27   C     C_R   0.753385 0.393928 0.917131 -0.221000
C28   C     C_2   0.066731 0.958480 0.509337 -0.393236
C29   C     C_2   0.932636 0.042524 0.499079 -0.384874
C30   C     C_R   0.064053 0.513935 0.681628 0.852325
H1    H     H_    0.238823 0.812600 0.108838 0.146913
H2    H     H_    0.561773 0.399383 0.807034 0.147567
H3    H     H_    0.192734 0.010462 0.526475 0.180811
H4    H     H_    0.805378 0.991052 0.484696 0.168342
H5    H     H_    0.549591 0.045344 0.375103 0.236970
H6    H     H_    0.433339 0.112899 0.476987 0.271710
H7    H     H_    0.331502 0.983881 0.374387 0.254725
H8    H     H_    0.242307 0.245273 0.348495 0.272641
H9    H     H_    0.395419 0.198217 0.266426 0.183782
H10   H     H_    0.486541 0.456938 0.327083 0.134882
H11   H     H_    0.612068 0.327735 0.394114 0.235940
H12   H     H_    0.829252 0.326703 0.867543 0.150582
H13   H     H_    0.437031 0.919251 0.714240 0.266734
H14   H     H_    0.567209 0.811506 0.793909 0.275851
H15   H     H_    0.651298 0.988247 0.749993 0.264223
H16   H     H_    0.756209 0.755031 0.660302 0.265511
H17   H     H_    0.622837 0.856773 0.579499 0.229710
H18   H     H_    0.388351 0.678745 0.601880 0.233967
H19   H     H_    0.517102 0.559562 0.674277 0.166053
H20   H     H_    0.684972 0.606312 0.228749 0.152764
H21   H     H_    0.304597 0.396415 0.780865 0.149221
H22   H     H_    0.126330 0.357151 0.176875 0.146619
H23   H     H_    0.897305 0.697581 0.814350 0.159971
H24   H     H_    0.008580 0.792831 0.981213 0.139064
H25   H     H_    0.042292 0.314923 0.001646 0.141330
H26   H     H_    0.509735 0.744541 0.168328 0.148074
N1    N     N_2   0.440860 0.456490 0.474790 -0.045160
N2    N     N_2   0.559140 0.543510 0.525210 -0.068853
O1    O     O_R   0.891570 0.738930 0.506190 -0.622679
O2    O     O_R   0.108430 0.261070 0.493810 -0.605112
O3    O     O_R   0.174650 0.711050 0.490030 -0.641711
O4    O     O_R   0.825350 0.288950 0.509970 -0.637129
O5    O     O_R   0.909850 0.521900 0.644940 -0.627739
O6    O     O_R   0.090150 0.478100 0.355060 -0.627971
O7    O     O_R   0.192930 0.494020 0.628780 -0.642915
O8    O     O_R   0.807070 0.505980 0.371220 -0.651952
Zn1   Zn    Zn3+2 0.810990 0.518620 0.510790 0.905900
Zn2   Zn    Zn3+2 0.189010 0.481380 0.489210 0.915413

loop_
_geom_bond_atom_site_label_1
_geom_bond_atom_site_label_2
_ccdc_geom_bond_type
C1    C28   S    
C2    C4    S    
C27   H12   S    
C3    C9    A    
C19   H8    S    
C12   C29   S    
C25   C27   A    
C12   O4    A    
C11   C16   A    
C8    H22   S    
C18   N1    S    
C15   C27   A    
C19   C20   S    
C9    H21   S    
C13   C15   A    
C13   C17   A    
C6    H25   S    
C4    C8    A    
O7    Zn2   S    
C21   H18   S    
C25   H2    S    
C21   H19   S    
C22   H17   S    
N1    N2    D    
C21   N2    S    
N2    Zn1   S    
C21   C22   S    
C14   C26   A    
C20   H7    S    
C9    C11   A    
O3    Zn2   S    
C5    C14   A    
C17   C23   A    
C19   H9    S    
O4    Zn1   S    
C24   H15   S    
O6    Zn2   S    
C3    C30   S    
C28   C29   D    
C22   H16   S    
C2    O6    A    
C28   H3    S    
O8    Zn1   S    
C3    C7    A    
C1    O1    A    
C24   H14   S    
C11   C14   A    
O5    Zn1   S    
C18   H11   S    
C30   O7    A    
C7    H23   S    
N1    Zn2   S    
C4    C10   A    
C12   O2    A    
C5    H24   S    
C23   H26   S    
O2    Zn2   S    
C5    C7    A    
C18   C19   S    
C22   C24   S    
C16   C25   A    
C23   C26   A    
C24   H13   S    
C18   H10   S    
C20   H6    S    
C6    C8    A    
O1    Zn1   S    
C6    C15   A    
C30   O5    A    
C20   H5    S    
C26   H1    S    
C29   H4    S    
C1    O3    A    
C16   C17   A    
C2    O8    A    
C10   C13   A    
C10   H20   S    
