data_str_m9_o22_o22_f0_sra.sym.199
_audit_creation_date              2013-03-05T15:58:25-0500
_audit_creation_method            fapswitch 2.2
_symmetry_space_group_name_H-M    P1
_symmetry_Int_Tables_number       1
_space_group_crystal_system       monoclinic
_cell_length_a                    7.211111
_cell_length_b                    14.398981
_cell_length_c                    15.860778
_cell_angle_alpha                 90.0
_cell_angle_beta                  90.0
_cell_angle_gamma                 89.999946
_cell_volume                      1646.86661521

loop_
_atom_site_label
_atom_site_type_symbol
_atom_site_description
_atom_site_fract_x
_atom_site_fract_y
_atom_site_fract_z
_atom_type_partial_charge
O1    O     O_R   0.388780 0.834790 0.412340 -0.561697
O2    O     O_R   0.111220 0.165210 0.912340 -0.561692
O3    O     O_R   0.888780 0.665210 0.587660 -0.561693
O4    O     O_R   0.611220 0.334790 0.087660 -0.561696
O5    O     O_R   0.059040 0.845930 0.587040 -0.599769
O6    O     O_R   0.440960 0.154070 0.087040 -0.599768
O7    O     O_R   0.559040 0.654070 0.412960 -0.599769
O8    O     O_R   0.940960 0.345930 0.912960 -0.599769
C1    C     C_R   0.228108 0.868822 0.614557 0.890924
C2    C     C_R   0.271892 0.131178 0.114557 0.890915
C3    C     C_R   0.728108 0.631178 0.385443 0.890925
C4    C     C_R   0.771892 0.368822 0.885443 0.890930
O9    O     O_R   0.059070 0.845930 0.412970 -0.591084
O10   O     O_R   0.440930 0.154070 0.912970 -0.591079
O11   O     O_R   0.559070 0.654070 0.587030 -0.591082
O12   O     O_R   0.940930 0.345930 0.087030 -0.591084
O13   O     O_R   0.888760 0.665210 0.412340 -0.586474
O14   O     O_R   0.611240 0.334790 0.912340 -0.586475
O15   O     O_R   0.388760 0.834790 0.587660 -0.586478
O16   O     O_R   0.111240 0.165210 0.087660 -0.586477
C5    C     C_R   0.227711 0.867501 0.384305 0.874579
C6    C     C_R   0.272289 0.132499 0.884305 0.874571
C7    C     C_R   0.727711 0.632499 0.615695 0.874578
C8    C     C_R   0.772289 0.367501 0.115695 0.874582
O17   O     O_3   0.222280 0.690700 0.500000 -0.260906
O18   O     O_3   0.277720 0.309300 0.000000 -0.260910
O19   O     O_3   0.722280 0.809300 0.500000 -0.260911
O20   O     O_3   0.777720 0.190700 0.000000 -0.260906
V1    V     V_3+5 0.947430 0.761000 0.500000 1.201725
V2    V     V_3+5 0.552570 0.239000 0.000000 1.201728
V3    V     V_3+5 0.447430 0.739000 0.500000 1.201725
V4    V     V_3+5 0.052570 0.261000 0.000000 1.201725
C9    C     C_3   0.879130 0.594527 0.756483 -0.320971
C10   C     C_3   0.620862 0.405477 0.256480 -0.320971
C11   C     C_3   0.379139 0.905477 0.243520 -0.320968
C12   C     C_3   0.120876 0.094529 0.743514 -0.320968
H1    H     H_    0.019543 0.605174 0.729504 0.198643
H2    H     H_    0.480451 0.394833 0.229498 0.198645
H3    H     H_    0.519550 0.894835 0.270502 0.198645
H4    H     H_    0.980461 0.105178 0.770492 0.198643
H5    H     H_    0.835075 0.663166 0.781806 0.145241
H6    H     H_    0.664906 0.336837 0.281803 0.145242
H7    H     H_    0.335096 0.836836 0.218198 0.145241
H8    H     H_    0.164935 0.163169 0.718193 0.145242
C13   C     C_3   0.890424 0.523569 0.830037 -0.323035
C14   C     C_3   0.609568 0.476434 0.330034 -0.323037
C15   C     C_3   0.390430 0.976433 0.169965 -0.323046
C16   C     C_3   0.109583 0.023573 0.669960 -0.323043
H9    H     H_    0.851446 0.558231 0.890184 0.178312
H10   H     H_    0.648538 0.441772 0.390181 0.178302
H11   H     H_    0.351456 0.941770 0.109819 0.178302
H12   H     H_    0.148572 0.058235 0.609813 0.178320
H13   H     H_    0.036389 0.499552 0.836716 0.174482
H14   H     H_    0.463606 0.500455 0.336711 0.174484
H15   H     H_    0.536392 0.000453 0.163286 0.174482
H16   H     H_    0.963615 0.999559 0.663277 0.174478
H17   H     H_    0.964792 0.369803 0.733976 0.191485
H18   H     H_    0.535223 0.630201 0.233973 0.191484
H19   H     H_    0.464784 0.130196 0.266027 0.191484
H20   H     H_    0.035190 0.869810 0.766022 0.191485
C17   C     C_3   0.793250 0.463122 0.654547 0.288861
C18   C     C_3   0.706763 0.536879 0.154547 0.288863
C19   C     C_3   0.293235 0.036879 0.345453 0.288851
C20   C     C_3   0.206742 0.963123 0.845452 0.288847
C21   C     C_3   0.548661 0.551729 0.732784 -0.427010
C22   C     C_3   0.951334 0.448266 0.232788 -0.427024
C23   C     C_3   0.048666 0.948266 0.267212 -0.427024
C24   C     C_3   0.451342 0.051726 0.767218 -0.426998
C25   C     C_3   0.739014 0.562080 0.687570 -0.058412
C26   C     C_3   0.760986 0.437920 0.187569 -0.058408
C27   C     C_3   0.239014 0.937920 0.312431 -0.058404
C28   C     C_3   0.260986 0.062081 0.812430 -0.058413
H21   H     H_    0.440153 0.530821 0.686914 0.224949
H22   H     H_    0.059848 0.469172 0.186920 0.224939
H23   H     H_    0.940150 0.969171 0.313079 0.224935
H24   H     H_    0.559849 0.030817 0.813089 0.224953
H25   H     H_    0.505170 0.619567 0.760058 0.176989
H26   H     H_    0.994816 0.380428 0.260062 0.176990
H27   H     H_    0.005187 0.880428 0.239937 0.176991
H28   H     H_    0.494838 0.119563 0.739943 0.176990
C29   C     C_3   0.760249 0.439500 0.813973 0.048776
C30   C     C_3   0.739750 0.560500 0.313973 0.048771
C31   C     C_3   0.260250 0.060500 0.186027 0.048773
C32   C     C_3   0.239750 0.939500 0.686026 0.048781
C33   C     C_3   0.818504 0.393888 0.729392 -0.477524
C34   C     C_3   0.681507 0.606113 0.229391 -0.477524
C35   C     C_3   0.318497 0.106112 0.270608 -0.477513
C36   C     C_3   0.181483 0.893889 0.770607 -0.477514
C37   C     C_3   0.559068 0.477768 0.803436 -0.316745
C38   C     C_3   0.940927 0.522228 0.303439 -0.316748
C39   C     C_3   0.059072 0.022229 0.196561 -0.316751
C40   C     C_3   0.440936 0.977764 0.696567 -0.316746
H29   H     H_    0.510405 0.508942 0.863574 0.213416
H30   H     H_    0.989582 0.491053 0.363577 0.213418
H31   H     H_    0.010415 0.991055 0.136423 0.213414
H32   H     H_    0.489608 0.008937 0.636428 0.213410
H33   H     H_    0.462554 0.419923 0.787769 0.168911
H34   H     H_    0.037447 0.580070 0.287775 0.168913
H35   H     H_    0.962555 0.080072 0.212227 0.168911
H36   H     H_    0.537444 0.919916 0.712236 0.168907
H37   H     H_    0.674713 0.437489 0.615828 0.067457
H38   H     H_    0.825306 0.562509 0.115831 0.067461
H39   H     H_    0.174689 0.062511 0.384167 0.067466
H40   H     H_    0.325279 0.937486 0.884170 0.067458
H41   H     H_    0.732557 0.330944 0.717795 0.131431
H42   H     H_    0.767460 0.669055 0.217796 0.131432
H43   H     H_    0.232550 0.169057 0.282203 0.131431
H44   H     H_    0.267421 0.830941 0.782205 0.131429
N1    N     N_R   0.957933 0.464209 0.600276 0.238832
O21   O     O_R   0.121106 0.482878 0.630757 -0.439940
O22   O     O_R   0.943386 0.439842 0.521602 -0.451431
N2    N     N_R   0.542087 0.535796 0.100271 0.238829
O23   O     O_R   0.378910 0.517131 0.130749 -0.439933
O24   O     O_R   0.556646 0.560160 0.021597 -0.451439
N3    N     N_R   0.457906 0.035797 0.399732 0.238825
O25   O     O_R   0.621084 0.017125 0.369259 -0.439929
O26   O     O_R   0.443346 0.060176 0.478403 -0.451435
N4    N     N_R   0.042059 0.964211 0.899724 0.238830
O27   O     O_R   0.878889 0.982890 0.869245 -0.439941
O28   O     O_R   0.056600 0.939828 0.978395 -0.451423

loop_
_geom_bond_atom_site_label_1
_geom_bond_atom_site_label_2
_geom_bond_distance
_ccdc_geom_bond_type
C24   H28   1.113386 S    
C31   C35   1.551601 S    
O1    C5    1.329891 A    
O19   V1    1.766265 S    
C9    C13   1.552909 S    
C7    C25   1.527848 S    
O3    C7    1.329891 A    
C10   H6    1.113120 S    
C40   H32   1.111067 S    
O4    V2    2.003589 S    
O15   V3    2.003619 S    
N4    O28   1.300467 A    
N2    O24   1.300458 A    
H20   C36   1.112827 S    
C8    C26   1.527846 S    
C22   C38   1.547749 S    
O7    C3    1.336228 A    
C18   C34   1.560831 S    
C5    C27   1.527845 S    
O9    V1    2.012215 S    
N1    O22   1.300457 A    
C36   H44   1.113292 S    
C21   C25   1.555856 S    
N3    O25   1.300185 A    
C22   H22   1.110037 S    
C2    C31   1.525683 S    
O1    V3    2.003590 S    
C20   N4    1.466799 S    
C18   C26   1.567666 S    
O2    V4    2.003591 S    
O3    V1    2.003590 S    
N4    O27   1.300195 A    
C14   C30   1.552868 S    
C1    O15   1.328229 A    
C2    O16   1.328229 A    
N3    O26   1.300470 A    
O2    C6    1.329891 A    
C10   C14   1.552908 S    
C15   C31   1.552869 S    
C11   H7    1.113120 S    
C10   C26   1.560074 S    
C9    C25   1.560084 S    
C29   C37   1.560833 S    
O11   C7    1.334936 A    
C17   N1    1.466791 S    
O12   C8    1.334936 A    
C34   H42   1.113269 S    
O10   V2    2.012216 S    
C33   H41   1.113281 S    
H18   C34   1.112805 S    
C6    C28   1.527846 S    
N2    O23   1.300186 A    
C38   H30   1.111041 S    
O5    V1    2.012236 S    
C3    C30   1.525683 S    
C22   H26   1.113373 S    
C21   H25   1.113379 S    
O8    V4    2.012236 S    
C12   H4    1.109889 S    
O7    V3    2.012237 S    
C19   H39   1.115354 S    
C21   H21   1.110045 S    
O18   V4    1.766266 S    
C15   H11   1.112726 S    
C20   H40   1.115365 S    
C30   C34   1.551598 S    
C39   H31   1.111044 S    
C9    H1    1.109885 S    
C17   H37   1.115360 S    
C16   C32   1.552893 S    
C37   H33   1.113488 S    
C24   C28   1.555867 S    
C11   H3    1.109878 S    
O5    C1    1.336228 A    
C13   H9    1.112734 S    
O8    C4    1.336228 A    
C14   H14   1.112970 S    
C23   C39   1.547749 S    
O9    C5    1.334936 A    
C24   H24   1.110051 S    
C17   C33   1.560832 S    
O14   V2    2.003621 S    
O6    V2    2.012236 S    
C19   C27   1.567666 S    
C12   H8    1.113133 S    
C23   H23   1.110039 S    
C40   H36   1.113500 S    
C15   H15   1.112972 S    
O16   V4    2.003620 S    
C17   C25   1.567676 S    
C16   H16   1.112992 S    
C3    O13   1.328229 A    
C20   C36   1.560829 S    
C19   C35   1.560830 S    
C10   H2    1.109880 S    
O17   V3    1.766267 S    
C13   C29   1.552881 S    
C32   C36   1.551621 S    
C35   H43   1.113271 S    
O6    C2    1.336227 A    
O11   V3    2.012214 S    
C21   C37   1.547748 S    
O12   V4    2.012213 S    
C31   C39   1.560822 S    
C14   H10   1.112724 S    
C30   C38   1.560821 S    
C9    H5    1.113128 S    
O10   C6    1.334937 A    
O20   V2    1.766266 S    
C19   N3    1.466786 S    
C11   C27   1.560076 S    
O13   V1    2.003622 S    
C22   C26   1.555845 S    
O4    C8    1.329891 A    
C24   C40   1.547748 S    
H17   C33   1.112816 S    
C4    C29   1.525682 S    
C12   C16   1.552911 S    
C23   C27   1.555847 S    
C20   C28   1.567686 S    
C37   H29   1.111055 S    
H19   C35   1.112806 S    
C1    C32   1.525683 S    
C13   H13   1.112981 S    
C16   H12   1.112745 S    
C18   N2    1.466785 S    
C4    O14   1.328229 A    
C32   C40   1.560846 S    
C39   H35   1.113479 S    
C11   C15   1.552909 S    
N1    O21   1.300192 A    
C38   H34   1.113477 S    
C23   H27   1.113372 S    
C29   C33   1.551611 S    
C12   C28   1.560093 S    
C18   H38   1.115353 S    
