data_str_m4_o7_o7_f0_acs.sym.25
_audit_creation_date              2013-03-05T15:55:35-0500
_audit_creation_method            fapswitch 2.2
_symmetry_space_group_name_H-M    P1
_symmetry_Int_Tables_number       1
_space_group_crystal_system       triclinic
_cell_length_a                    14.000499
_cell_length_b                    14.000698
_cell_length_c                    31.914009
_cell_angle_alpha                 90.001724
_cell_angle_beta                  89.997683
_cell_angle_gamma                 119.999816
_cell_volume                      5417.58834892

loop_
_atom_site_label
_atom_site_type_symbol
_atom_site_description
_atom_site_fract_x
_atom_site_fract_y
_atom_site_fract_z
_atom_type_partial_charge
O1    O     O_R   0.480350 0.140770 0.796330 -0.552673
O2    O     O_R   0.660420 0.519650 0.703670 -0.552654
O3    O     O_R   0.859230 0.339580 0.796330 -0.552665
O4    O     O_R   0.480350 0.140770 0.703670 -0.552656
O5    O     O_R   0.660420 0.519650 0.796330 -0.552667
O6    O     O_R   0.859230 0.339580 0.703670 -0.552653
O7    O     O_R   0.140770 0.480350 0.296330 -0.552642
O8    O     O_R   0.519650 0.660420 0.203670 -0.552638
O9    O     O_R   0.339580 0.859230 0.296330 -0.552647
O10   O     O_R   0.140770 0.480350 0.203670 -0.552646
O11   O     O_R   0.519650 0.660420 0.296330 -0.552648
O12   O     O_R   0.339580 0.859230 0.203670 -0.552634
O13   O     O_R   0.514930 0.348530 0.793250 -0.531989
O14   O     O_R   0.833600 0.485070 0.706750 -0.531991
O15   O     O_R   0.651470 0.166400 0.793250 -0.531994
O16   O     O_R   0.514930 0.348530 0.706750 -0.531997
O17   O     O_R   0.833600 0.485070 0.793250 -0.532002
O18   O     O_R   0.651470 0.166400 0.706750 -0.531994
O19   O     O_R   0.348530 0.514930 0.293250 -0.531995
O20   O     O_R   0.485070 0.833600 0.206750 -0.531993
O21   O     O_R   0.166400 0.651470 0.293250 -0.531996
O22   O     O_R   0.348530 0.514930 0.206750 -0.531997
O23   O     O_R   0.485070 0.833600 0.293250 -0.531995
O24   O     O_R   0.166400 0.651470 0.206750 -0.531996
C1    C     C_R   0.566826 0.444540 0.810318 0.806115
C2    C     C_R   0.877696 0.433156 0.689680 0.806114
C3    C     C_R   0.555462 0.122294 0.810319 0.806159
C4    C     C_R   0.566844 0.444537 0.689679 0.806105
C5    C     C_R   0.877696 0.433165 0.810320 0.806149
C6    C     C_R   0.555463 0.122305 0.689679 0.806112
C7    C     C_R   0.444537 0.566844 0.310321 0.806118
C8    C     C_R   0.433153 0.877686 0.189675 0.806085
C9    C     C_R   0.122305 0.555463 0.310321 0.806120
C10   C     C_R   0.444542 0.566844 0.189678 0.806097
C11   C     C_R   0.433156 0.877695 0.310321 0.806132
C12   C     C_R   0.122307 0.555460 0.189679 0.806092
C13   C     C_1   0.001858 0.520463 0.018784 0.095871
C14   C     C_1   0.518617 0.998159 0.481214 0.095969
C15   C     C_1   0.479683 0.481297 0.018798 0.095943
C16   C     C_1   0.001855 0.520471 0.481216 0.095964
C17   C     C_1   0.518539 0.997946 0.018757 0.095866
C18   C     C_1   0.479539 0.481374 0.481213 0.095986
C19   C     C_1   0.520466 0.001852 0.518784 0.095978
C20   C     C_1   0.998147 0.518626 0.981214 0.095769
C21   C     C_1   0.481392 0.479524 0.518784 0.095965
C22   C     C_1   0.520389 0.001631 0.981186 0.095822
C23   C     C_1   0.998158 0.518622 0.518787 0.095977
C24   C     C_1   0.481526 0.479431 0.981228 0.095586
Cr1   Cr    Cr6+3 0.504240 0.249200 0.750000 0.925132
Cr2   Cr    Cr6+3 0.744960 0.495760 0.750000 0.925128
Cr3   Cr    Cr6+3 0.750800 0.255040 0.750000 0.925138
Cr4   Cr    Cr6+3 0.249200 0.504240 0.250000 0.925176
Cr5   Cr    Cr6+3 0.495760 0.744960 0.250000 0.925184
Cr6   Cr    Cr6+3 0.255040 0.750800 0.250000 0.925185
O25   O     O_3   0.666667 0.333333 0.750000 -0.323117
O26   O     O_3   0.333333 0.666667 0.250000 -0.323148
H1    H     H_    0.061659 0.382308 0.139205 0.162628
H2    H     H_    0.320693 0.938406 0.360787 0.162612
H3    H     H_    0.617740 0.679302 0.139217 0.162640
H4    H     H_    0.061575 0.382285 0.360781 0.162621
H5    H     H_    0.320645 0.938300 0.139194 0.162628
H6    H     H_    0.617701 0.679311 0.360786 0.162617
H7    H     H_    0.382290 0.061593 0.639217 0.162615
H8    H     H_    0.938907 0.320991 0.860729 0.162538
H9    H     H_    0.679310 0.617703 0.639213 0.162625
H10   H     H_    0.382069 0.061084 0.860731 0.162552
H11   H     H_    0.938393 0.320687 0.639211 0.162611
H12   H     H_    0.678877 0.618074 0.860697 0.162594
C25   C     C_R   0.935917 0.472337 0.851031 -0.140058
C26   C     C_R   0.536382 0.064103 0.648963 -0.139963
C27   C     C_R   0.527632 0.463609 0.851024 -0.140064
C28   C     C_R   0.935904 0.472276 0.648964 -0.139965
C29   C     C_R   0.536377 0.064013 0.851019 -0.140043
C30   C     C_R   0.527727 0.463617 0.648963 -0.139958
C31   C     C_R   0.472276 0.935899 0.351037 -0.139963
C32   C     C_R   0.064107 0.536369 0.148962 -0.139952
C33   C     C_R   0.463618 0.527725 0.351036 -0.139962
C34   C     C_R   0.472251 0.935845 0.148950 -0.139951
C35   C     C_R   0.064100 0.536383 0.351037 -0.139960
C36   C     C_R   0.463655 0.527712 0.148968 -0.139963
C37   C     C_R   0.961648 0.575332 0.869098 0.011560
C38   C     C_R   0.613477 0.038097 0.630924 0.011426
C39   C     C_R   0.424677 0.386293 0.869106 0.011522
C40   C     C_R   0.961918 0.575380 0.630930 0.011435
C41   C     C_R   0.613580 0.038170 0.869067 0.011504
C42   C     C_R   0.424629 0.386520 0.630925 0.011433
C43   C     C_R   0.575377 0.961906 0.369072 0.011413
C44   C     C_R   0.038073 0.613444 0.130929 0.011397
C45   C     C_R   0.386525 0.424624 0.369073 0.011421
C46   C     C_R   0.575347 0.961841 0.130909 0.011416
C47   C     C_R   0.038107 0.613484 0.369077 0.011411
C48   C     C_R   0.386578 0.424603 0.130933 0.011409
C49   C     C_R   0.985760 0.592668 0.912485 0.379415
C50   C     C_R   0.606668 0.013913 0.587539 0.379609
C51   C     C_R   0.407395 0.393041 0.912501 0.379580
C52   C     C_R   0.986095 0.592755 0.587545 0.379590
C53   C     C_R   0.606747 0.013943 0.912446 0.379659
C54   C     C_R   0.407258 0.393323 0.587541 0.379614
C55   C     C_R   0.592753 0.986094 0.412456 0.379630
C56   C     C_R   0.013895 0.606638 0.087545 0.379582
C57   C     C_R   0.393330 0.407247 0.412457 0.379593
C58   C     C_R   0.592701 0.985967 0.087520 0.379575
C59   C     C_R   0.013926 0.606676 0.412462 0.379629
C60   C     C_R   0.393422 0.407204 0.087552 0.379588
C61   C     C_R   0.991502 0.510852 0.936290 -0.058085
C62   C     C_R   0.519288 0.008484 0.563708 -0.057951
C63   C     C_R   0.489241 0.480583 0.936301 -0.058130
C64   C     C_R   0.991520 0.510806 0.563710 -0.057959
C65   C     C_R   0.519236 0.008272 0.936261 -0.058047
C66   C     C_R   0.489209 0.480700 0.563707 -0.057959
C67   C     C_R   0.510804 0.991524 0.436290 -0.057953
C68   C     C_R   0.008510 0.519285 0.063707 -0.057945
C69   C     C_R   0.480711 0.489194 0.436290 -0.057955
C70   C     C_R   0.510732 0.991341 0.063682 -0.057937
C71   C     C_R   0.008490 0.519294 0.436293 -0.057953
C72   C     C_R   0.480822 0.489137 0.063721 -0.057921
C73   C     C_R   0.981931 0.416444 0.916806 0.057495
C74   C     C_R   0.434599 0.018359 0.583163 0.057287
C75   C     C_R   0.583524 0.565536 0.916798 0.057139
C76   C     C_R   0.981635 0.416235 0.583160 0.057297
C77   C     C_R   0.434435 0.017923 0.916789 0.057315
C78   C     C_R   0.583771 0.565389 0.583160 0.057287
C79   C     C_R   0.416237 0.981644 0.416838 0.057283
C80   C     C_R   0.018414 0.434609 0.083156 0.057272
C81   C     C_R   0.565396 0.583763 0.416837 0.057302
C82   C     C_R   0.416167 0.981473 0.083135 0.057249
C83   C     C_R   0.018355 0.434601 0.416837 0.057280
C84   C     C_R   0.565488 0.583718 0.083173 0.057155
C85   C     C_R   0.953509 0.397800 0.874584 -0.167604
C86   C     C_R   0.444379 0.046776 0.625384 -0.167548
C87   C     C_R   0.602115 0.555808 0.874564 -0.167614
C88   C     C_R   0.953220 0.397597 0.625381 -0.167551
C89   C     C_R   0.444245 0.046419 0.874575 -0.167572
C90   C     C_R   0.602404 0.555615 0.625382 -0.167556
C91   C     C_R   0.397599 0.953226 0.374618 -0.167542
C92   C     C_R   0.046815 0.444382 0.125378 -0.167575
C93   C     C_R   0.555616 0.602402 0.374617 -0.167540
C94   C     C_R   0.397553 0.953118 0.125362 -0.167557
C95   C     C_R   0.046764 0.444377 0.374615 -0.167547
C96   C     C_R   0.555675 0.602377 0.125390 -0.167568
C97   C     C_3   0.967344 0.667388 0.842455 -0.623237
H13   H     H_    0.000141 0.666893 0.810825 0.176628
H14   H     H_    0.884184 0.658408 0.839755 0.227563
H15   H     H_    0.025124 0.749638 0.855842 0.228697
C98   C     C_3   0.699662 0.032174 0.657598 -0.623409
H16   H     H_    0.773999 0.115226 0.660269 0.227399
H17   H     H_    0.666323 0.999551 0.689238 0.176626
H18   H     H_    0.723876 0.974157 0.644254 0.228780
C99   C     C_3   0.332603 0.299927 0.842471 -0.623254
H19   H     H_    0.333119 0.333174 0.810831 0.176675
H20   H     H_    0.341533 0.225715 0.839794 0.227483
H21   H     H_    0.250364 0.275533 0.855852 0.228692
C100  C     C_3   0.967858 0.667490 0.657609 -0.623384
H22   H     H_    0.000469 0.666760 0.689250 0.176618
H23   H     H_    0.025894 0.749719 0.644269 0.228765
H24   H     H_    0.884812 0.658795 0.660280 0.227412
C101  C     C_3   0.699923 0.032471 0.842412 -0.623477
H25   H     H_    0.666644 0.999765 0.810773 0.176675
H26   H     H_    0.774136 0.115611 0.839736 0.227491
H27   H     H_    0.724333 0.974622 0.855771 0.228668
C102  C     C_3   0.332520 0.300336 0.657600 -0.623413
H28   H     H_    0.333225 0.333678 0.689240 0.176628
H29   H     H_    0.250289 0.276112 0.644256 0.228785
H30   H     H_    0.341242 0.226004 0.660276 0.227402
C103  C     C_3   0.667482 0.967822 0.342397 -0.623406
H31   H     H_    0.658752 0.884765 0.339719 0.227400
H32   H     H_    0.666780 0.000460 0.310758 0.176646
H33   H     H_    0.749714 0.025820 0.355741 0.228789
C104  C     C_3   0.032111 0.699601 0.157609 -0.623356
H34   H     H_    0.999509 0.666257 0.189251 0.176637
H35   H     H_    0.115148 0.773963 0.160276 0.227379
H36   H     H_    0.974057 0.723775 0.144272 0.228784
C105  C     C_3   0.300347 0.332516 0.342396 -0.623355
H37   H     H_    0.333690 0.333234 0.310756 0.176633
H38   H     H_    0.276135 0.250285 0.355738 0.228775
H39   H     H_    0.226006 0.341227 0.339724 0.227407
C106  C     C_3   0.667473 0.967816 0.157585 -0.623364
H40   H     H_    0.658794 0.884784 0.160262 0.227390
H41   H     H_    0.749690 0.025847 0.144239 0.228796
H42   H     H_    0.666751 0.000445 0.189223 0.176640
C107  C     C_3   0.032199 0.699679 0.342406 -0.623404
H43   H     H_    0.999557 0.666343 0.310767 0.176648
H44   H     H_    0.974208 0.723919 0.355754 0.228789
H45   H     H_    0.115260 0.774000 0.339728 0.227399
C108  C     C_3   0.300373 0.332511 0.157608 -0.623377
H46   H     H_    0.333704 0.333220 0.189249 0.176644
H47   H     H_    0.226049 0.341252 0.160278 0.227384
H48   H     H_    0.276135 0.250271 0.144267 0.228809
N1    N     N_R   0.998935 0.690180 0.067361 0.108635
O27   O     O_R   0.916769 0.662653 0.041821 -0.352696
O28   O     O_R   0.070549 0.794055 0.072777 -0.362869
N2    N     N_R   0.691230 0.000998 0.432646 0.108626
O29   O     O_R   0.745879 0.083137 0.458196 -0.352814
O30   O     O_R   0.723425 0.929333 0.427237 -0.362836
N3    N     N_R   0.309853 0.308728 0.067362 0.108676
O31   O     O_R   0.337349 0.254050 0.041829 -0.352604
O32   O     O_R   0.205989 0.276539 0.072762 -0.362827
N4    N     N_R   0.999036 0.690254 0.432655 0.108631
O33   O     O_R   0.916897 0.662773 0.458206 -0.352809
O34   O     O_R   0.070716 0.794111 0.427252 -0.362843
N5    N     N_R   0.691187 0.000885 0.067332 0.108613
O35   O     O_R   0.745835 0.083027 0.041783 -0.352602
O36   O     O_R   0.723427 0.929261 0.072756 -0.362892
N6    N     N_R   0.309750 0.308775 0.432647 0.108625
O37   O     O_R   0.337230 0.254136 0.458205 -0.352792
O38   O     O_R   0.205887 0.276561 0.427227 -0.362846
N7    N     N_R   0.690241 0.999008 0.567347 0.108632
O39   O     O_R   0.662750 0.916878 0.541792 -0.352793
O40   O     O_R   0.794106 0.070659 0.572761 -0.362843
N8    N     N_R   0.000219 0.690939 0.932709 0.108603
O41   O     O_R   0.082309 0.745827 0.958255 -0.352535
O42   O     O_R   0.928234 0.722735 0.927313 -0.362964
N9    N     N_R   0.308785 0.309747 0.567350 0.108631
O43   O     O_R   0.254135 0.337231 0.541799 -0.352800
O44   O     O_R   0.276583 0.205886 0.572763 -0.362847
N10   N     N_R   0.690431 0.999249 0.932651 0.108626
O45   O     O_R   0.663068 0.917037 0.958150 -0.352747
O46   O     O_R   0.794250 0.071142 0.927294 -0.362814
N11   N     N_R   0.000994 0.691232 0.567357 0.108627
O47   O     O_R   0.083111 0.745864 0.541795 -0.352790
O48   O     O_R   0.929356 0.723457 0.572785 -0.362852
N12   N     N_R   0.309109 0.309272 0.932730 0.108701
O49   O     O_R   0.254279 0.336527 0.958286 -0.352458
O50   O     O_R   0.277198 0.205477 0.927311 -0.363041
C109  C     C_3   0.004724 0.336294 0.058773 -0.573160
H49   H     H_    0.923167 0.295338 0.043007 0.224578
H50   H     H_    0.070983 0.363501 0.034924 0.225783
H51   H     H_    0.008629 0.274399 0.079374 0.248721
C110  C     C_3   0.331642 0.995396 0.441215 -0.573239
H52   H     H_    0.372238 0.077029 0.456915 0.224620
H53   H     H_    0.265760 0.991318 0.420626 0.248781
H54   H     H_    0.292699 0.929277 0.465113 0.225799
C111  C     C_3   0.663793 0.668354 0.058789 -0.572910
H55   H     H_    0.636577 0.707500 0.034992 0.225709
H56   H     H_    0.725737 0.734071 0.079397 0.248698
H57   H     H_    0.704673 0.627768 0.042958 0.224705
C112  C     C_3   0.004612 0.336259 0.441212 -0.573236
H58   H     H_    0.923010 0.295260 0.456937 0.224591
H59   H     H_    0.008615 0.274423 0.420615 0.248758
H60   H     H_    0.070784 0.363436 0.465089 0.225827
C113  C     C_3   0.331546 0.995160 0.058752 -0.573169
H61   H     H_    0.372129 0.076730 0.043005 0.224698
H62   H     H_    0.292544 0.928945 0.034891 0.225675
H63   H     H_    0.265717 0.991189 0.079347 0.248806
C114  C     C_3   0.663735 0.668364 0.441213 -0.573322
H64   H     H_    0.704788 0.627786 0.456910 0.224637
H65   H     H_    0.725526 0.734253 0.420625 0.248783
H66   H     H_    0.636546 0.707291 0.465113 0.225776
C115  C     C_3   0.336251 0.004608 0.558790 -0.573283
H67   H     H_    0.295220 0.922982 0.543088 0.224625
H68   H     H_    0.274443 0.008673 0.579382 0.248774
H69   H     H_    0.363425 0.070733 0.534896 0.225802
C116  C     C_3   0.995984 0.331997 0.941155 -0.573368
H70   H     H_    0.077616 0.372766 0.956859 0.224234
H71   H     H_    0.929874 0.292863 0.965049 0.226061
H72   H     H_    0.992111 0.266239 0.920544 0.248528
C117  C     C_3   0.668374 0.663727 0.558784 -0.573253
H73   H     H_    0.627777 0.704732 0.543061 0.224585
H74   H     H_    0.734218 0.725561 0.579379 0.248765
H75   H     H_    0.707364 0.636545 0.534905 0.225828
C118  C     C_3   0.335933 0.003850 0.941143 -0.572896
H76   H     H_    0.295148 0.922247 0.956879 0.224111
H77   H     H_    0.362901 0.070020 0.965018 0.226226
H78   H     H_    0.273974 0.007593 0.920527 0.248585
C119  C     C_3   0.995368 0.331632 0.558781 -0.573286
H79   H     H_    0.077001 0.372213 0.543081 0.224638
H80   H     H_    0.991273 0.265742 0.579369 0.248790
H81   H     H_    0.929247 0.292706 0.534884 0.225762
C120  C     C_3   0.667934 0.664073 0.941140 -0.571711
H82   H     H_    0.626823 0.703994 0.957333 0.223431
H83   H     H_    0.708229 0.637304 0.964650 0.227128
H84   H     H_    0.732801 0.726748 0.920412 0.248109

loop_
_geom_bond_atom_site_label_1
_geom_bond_atom_site_label_2
_geom_bond_distance
_ccdc_geom_bond_type
O16   C4    1.286430 A    
C16   C23   1.199852 T    
C35   C95   1.404221 A    
C103  H31   1.110105 S    
C54   C66   1.409928 A    
O7    C9    1.282178 A    
C104  H34   1.110381 S    
C64   C76   1.405131 A    
C81   C114  1.507651 S    
H11   C88   1.083455 S    
C45   C105  1.512494 S    
C17   C70   1.437361 S    
C4    C30   1.485313 S    
C38   C98   1.512494 S    
C97   H14   1.110137 S    
C98   H16   1.110115 S    
C32   C92   1.404254 A    
C99   H19   1.110391 S    
O14   Cr2   1.911351 S    
C20   C61   1.437323 S    
C34   C46   1.421951 A    
C44   C56   1.417198 A    
C11   C31   1.485311 S    
C115  H67   1.109343 S    
C101  H25   1.110384 S    
C83   C95   1.392168 A    
C38   C50   1.417215 A    
C109  H50   1.109755 S    
C58   N5    1.439406 S    
N10   O46   1.300788 A    
O7    Cr4   2.023533 S    
C68   C80   1.405128 A    
C110  H54   1.109592 S    
C99   H20   1.110126 S    
C40   C52   1.417207 A    
C116  H70   1.109439 S    
C70   C82   1.405121 A    
C31   C91   1.404218 A    
H5    C94   1.083453 S    
C108  H47   1.110122 S    
C24   C63   1.437337 S    
O21   C9    1.286431 A    
O24   Cr6   1.911406 S    
O16   Cr1   1.911428 S    
C112  H59   1.110511 S    
C26   C86   1.404225 A    
C109  H51   1.110679 S    
C71   C83   1.405119 A    
N7    O40   1.300784 A    
N1    O28   1.300784 A    
C113  H61   1.109402 S    
N5    O35   1.301112 A    
H7    C86   1.083454 S    
O3    C5    1.282262 A    
C46   C58   1.417216 A    
C13   C68   1.437331 S    
O2    Cr2   2.023618 S    
C49   C61   1.409911 A    
C60   C72   1.409941 A    
C73   C116  1.507668 S    
O19   Cr4   1.911425 S    
C78   C90   1.392173 A    
C100  H22   1.110382 S    
C56   N1    1.439414 S    
C8    C34   1.485345 S    
C106  H41   1.109626 S    
C53   N10   1.439403 S    
C75   C87   1.392278 A    
C17   C22   1.199883 T    
H1    C92   1.083455 S    
C7    C33   1.485312 S    
N4    O33   1.301120 A    
C1    C27   1.485417 S    
O15   Cr3   1.911382 S    
O6    Cr3   2.023562 S    
C100  H23   1.109694 S    
C12   C32   1.485316 S    
C111  H55   1.109600 S    
C32   C44   1.421936 A    
C5    C25   1.485343 S    
H9    C90   1.083454 S    
O11   Cr5   2.023620 S    
C77   C118  1.507641 S    
C37   C97   1.512521 S    
C52   C64   1.409938 A    
C46   C106  1.512470 S    
O19   C7    1.286426 A    
C101  H26   1.110113 S    
C69   C81   1.405125 A    
C105  H37   1.110384 S    
C120  H82   1.110152 S    
O12   C8    1.282172 A    
C36   C96   1.404265 A    
N5    O36   1.300739 A    
C61   C73   1.405175 A    
N1    O27   1.301123 A    
C41   C101  1.512503 S    
C75   C120  1.507650 S    
C34   C94   1.404221 A    
H8    C85   1.083457 S    
C63   C75   1.405159 A    
C98   H17   1.110380 S    
O20   C8    1.286440 A    
O18   Cr3   1.911411 S    
C28   C88   1.404219 A    
C42   C54   1.417209 A    
C27   C39   1.422007 A    
N9    O44   1.300779 A    
C77   C89   1.392227 A    
C47   C107  1.512485 S    
O22   C10   1.286466 A    
Cr6   O26   1.969826 S    
C115  H68   1.110469 S    
C51   N12   1.439427 S    
C80   C92   1.392163 A    
C67   C79   1.405124 A    
N7    O39   1.301120 A    
C80   C109  1.507684 S    
C62   C74   1.405121 A    
C25   C37   1.422001 A    
N10   O45   1.301134 A    
C112  H60   1.109623 S    
C107  H44   1.109667 S    
C47   C59   1.417205 A    
N11   O47   1.301117 A    
C116  H71   1.109612 S    
C114  H64   1.109343 S    
O3    Cr3   2.023597 S    
C48   C108  1.512499 S    
C9    C35   1.485306 S    
C108  H48   1.109692 S    
C102  H29   1.109682 S    
H6    C93   1.083453 S    
C81   C93   1.392168 A    
C107  H43   1.110372 S    
C27   C87   1.404283 A    
C57   N6    1.439427 S    
C30   C42   1.421953 A    
C79   C91   1.392170 A    
C117  H74   1.110510 S    
C59   N4    1.439413 S    
N2    O30   1.300762 A    
C36   C48   1.421947 A    
H12   C87   1.083469 S    
C59   C71   1.409919 A    
N3    O32   1.300757 A    
C50   C62   1.409934 A    
C110  H52   1.109381 S    
C74   C86   1.392165 A    
C116  H72   1.110529 S    
H10   C89   1.083457 S    
C37   C49   1.417133 A    
O10   Cr4   2.023611 S    
C78   C117  1.507645 S    
O15   C3    1.286373 A    
C79   C110  1.507642 S    
N9    O43   1.301125 A    
C106  H42   1.110355 S    
C39   C51   1.417142 A    
C55   N2    1.439417 S    
C82   C113  1.507635 S    
C109  H49   1.109526 S    
C42   C102  1.512491 S    
O8    C10   1.282156 A    
C2    C28   1.485298 S    
O14   C2    1.286424 A    
C100  H24   1.110120 S    
N12   O50   1.300782 A    
C111  H56   1.110545 S    
C29   C41   1.422018 A    
C28   C40   1.421950 A    
C105  H38   1.109693 S    
C51   C63   1.409891 A    
O13   Cr1   1.911374 S    
C99   H21   1.109714 S    
C31   C43   1.421955 A    
C54   N9    1.439421 S    
C29   C89   1.404231 A    
C83   C112  1.507644 S    
C101  H27   1.109686 S    
O23   C11   1.286413 A    
C114  H65   1.110432 S    
C72   C84   1.405108 A    
O18   C6    1.286424 A    
C104  H36   1.109695 S    
O5    C1    1.282266 A    
O5    Cr2   2.023531 S    
C114  H66   1.109545 S    
O1    C3    1.282246 A    
C3    C29   1.485382 S    
O12   Cr6   2.023586 S    
C76   C88   1.392164 A    
C117  H73   1.109397 S    
C102  H30   1.110111 S    
C73   C85   1.392238 A    
C98   H18   1.109691 S    
O22   Cr4   1.911352 S    
C119  H79   1.109377 S    
Cr5   O26   1.969815 S    
C84   C111  1.507670 S    
C23   C64   1.437320 S    
O2    C4    1.282174 A    
C82   C94   1.392184 A    
C115  H69   1.109566 S    
C76   C119  1.507653 S    
C107  H45   1.110096 S    
C45   C57   1.417215 A    
C119  H81   1.109578 S    
C21   C66   1.437328 S    
C33   C45   1.421952 A    
C35   C47   1.421954 A    
C50   N7    1.439426 S    
C44   C104  1.512491 S    
C33   C93   1.404219 A    
O20   Cr5   1.911432 S    
O13   C1    1.286403 A    
C74   C115  1.507648 S    
O8    Cr5   2.023550 S    
C118  H78   1.110696 S    
O10   C12   1.282157 A    
C18   C21   1.199864 T    
C56   C68   1.409942 A    
C97   H15   1.109720 S    
O17   Cr2   1.911428 S    
H2    C91   1.083449 S    
C103  H33   1.109673 S    
C52   N11   1.439432 S    
C55   C67   1.409924 A    
O4    Cr1   2.023567 S    
N8    O42   1.300851 A    
Cr2   O25   1.969845 S    
O24   C12   1.286454 A    
O21   Cr6   1.911392 S    
C113  H63   1.110514 S    
C10   C36   1.485375 S    
N2    O29   1.301123 A    
C117  H75   1.109620 S    
C13   C20   1.199861 T    
C120  H83   1.110483 S    
C53   C65   1.409869 A    
C84   C96   1.392209 A    
C118  H77   1.109755 S    
C14   C19   1.199857 T    
C110  H53   1.110493 S    
C119  H80   1.110476 S    
Cr1   O25   1.969818 S    
O17   C5    1.286368 A    
C66   C78   1.405124 A    
N6    O38   1.300778 A    
C65   C77   1.405155 A    
C108  H46   1.110384 S    
O6    C2    1.282169 A    
C102  H28   1.110380 S    
H3    C96   1.083455 S    
C15   C72   1.437340 S    
C25   C85   1.404214 A    
C30   C90   1.404222 A    
O23   Cr5   1.911367 S    
C105  H39   1.110121 S    
C60   N3    1.439410 S    
Cr3   O25   1.969823 S    
N11   O48   1.300776 A    
N8    O41   1.301137 A    
C40   C100  1.512492 S    
C57   C69   1.409937 A    
C26   C38   1.421953 A    
C111  H57   1.109462 S    
C112  H58   1.109400 S    
C120  H84   1.111493 S    
C41   C53   1.417155 A    
C58   C70   1.409918 A    
H4    C95   1.083452 S    
O11   C7    1.282169 A    
N3    O31   1.301098 A    
C16   C71   1.437318 S    
C43   C55   1.417206 A    
C43   C103  1.512487 S    
C6    C26   1.485309 S    
C18   C69   1.437334 S    
N6    O37   1.301117 A    
C103  H32   1.110375 S    
C106  H40   1.110057 S    
C48   C60   1.417221 A    
C22   C65   1.437362 S    
C49   N8    1.439436 S    
O9    C11   1.282165 A    
C118  H76   1.109574 S    
N4    O34   1.300754 A    
O9    Cr6   2.023587 S    
C113  H62   1.109614 S    
C14   C67   1.437325 S    
C97   H13   1.110401 S    
O1    Cr1   2.023611 S    
N12   O49   1.301141 A    
C19   C62   1.437323 S    
O4    C6    1.282161 A    
Cr4   O26   1.969845 S    
C15   C24   1.199860 T    
C39   C99   1.512514 S    
C104  H35   1.110120 S    
