data_str_m12_o4_o9_f0_bcu.sym.62
_audit_creation_date              2012-12-11T17:10:36-0500
_audit_creation_method            fapswitch 2.2
_symmetry_space_group_name_H-M    P1
_symmetry_Int_Tables_number       1
_space_group_crystal_system       triclinic
_cell_length_a                    14.778958
_cell_length_b                    14.889852
_cell_length_c                    14.879622
_cell_angle_alpha                 109.418014
_cell_angle_beta                  109.81205
_cell_angle_gamma                 108.963261
_cell_volume                      2527.32824867

loop_
_atom_site_label
_atom_site_type_symbol
_atom_type_description
_atom_site_fract_x
_atom_site_fract_y
_atom_site_fract_z
_atom_type_partial_charge
C1    C     C_R   0.185423 0.279500 0.252778 -0.134757
C2    C     C_R   0.404080 0.495368 0.194770 -0.141166
C3    C     C_R   0.563783 0.814910 0.590962 -0.127859
C4    C     C_R   0.525565 0.432616 0.746722 -0.145345
C5    C     C_R   0.723316 0.478528 0.409167 -0.119355
C6    C     C_R   0.548026 0.824537 0.497603 0.069211
C7    C     C_R   0.826717 0.558317 0.501941 0.056049
C8    C     C_R   0.433722 0.432621 0.131386 0.079094
C9    C     C_R   0.801541 0.803319 0.866781 0.076334
C10   C     C_R   0.078571 0.573698 0.168347 -0.118893
C11   C     C_R   0.086262 0.606219 0.271363 -0.189357
C12   C     C_R   0.451396 0.449960 0.776888 0.070034
C13   C     C_R   0.011073 0.534883 0.286606 -0.072970
C14   C     C_R   0.926236 0.429661 0.195867 0.543295
C15   C     C_R   0.918019 0.399795 0.092440 -0.227330
C16   C     C_R   0.504745 0.200899 0.408159 -0.155820
C17   C     C_R   0.994491 0.470771 0.079026 -0.182121
C18   C     C_R   0.928183 0.575054 0.401494 -0.197622
C19   C     C_R   0.930461 0.610747 0.502017 0.021770
C20   C     C_R   0.034192 0.677464 0.599872 0.036075
C21   C     C_R   0.125170 0.671225 0.595486 -0.235434
C22   C     C_R   0.114807 0.607545 0.494585 0.043224
C23   C     C_R   0.565384 0.196822 0.498614 0.081564
C24   C     C_R   0.019901 0.573521 0.396115 0.045821
C25   C     C_R   0.000301 0.824382 0.698954 -0.141258
C26   C     C_R   0.019288 0.905105 0.795743 -0.101619
C27   C     C_R   0.089175 0.922056 0.897756 -0.083769
C28   C     C_R   0.290004 0.597123 0.588892 -0.129494
C29   C     C_R   0.138482 0.856873 0.903223 -0.123008
C30   C     C_R   0.119673 0.775831 0.806601 -0.178084
C31   C     C_R   0.050826 0.759205 0.703304 0.114609
C32   C     C_R   0.451133 0.345879 0.877344 0.158887
C33   C     C_R   0.406483 0.401184 0.833058 0.038531
C34   C     C_R   0.196216 0.569076 0.496145 0.063023
C35   C     C_R   0.332680 0.425806 0.861932 -0.200499
C36   C     C_R   0.328643 0.422296 0.953437 -0.203955
C37   C     C_R   0.397792 0.393303 0.014866 0.037728
C38   C     C_R   0.446347 0.341593 0.966837 0.138905
C39   C     C_3   0.558871 0.352801 0.016291 -0.473755
C40   C     C_R   0.595474 0.289875 0.590728 -0.142778
C41   C     C_3   0.564633 0.358158 0.918996 -0.518875
C42   C     C_R   0.547574 0.925437 0.394186 0.168884
C43   C     C_R   0.592672 0.925161 0.493442 0.031373
C44   C     C_R   0.666444 0.026824 0.591124 -0.203980
C45   C     C_R   0.474409 0.720977 0.406838 -0.145037
C46   C     C_R   0.670084 0.122251 0.591919 -0.202940
C47   C     C_R   0.600792 0.115477 0.494744 0.030582
C48   C     C_R   0.552070 0.019591 0.394910 0.165526
C49   C     C_3   0.439220 0.957830 0.295412 -0.529323
C50   C     C_3   0.433804 0.854920 0.294835 -0.528155
C51   C     C_R   0.970610 0.079918 0.107938 0.163399
C52   C     C_R   0.198989 0.503651 0.406966 -0.169255
C53   C     C_R   0.066479 0.076965 0.162834 0.028073
C54   C     C_R   0.059169 0.974700 0.141699 -0.217634
C55   C     C_R   0.964716 0.879102 0.049969 -0.199080
C56   C     C_R   0.815076 0.567775 0.592970 -0.133010
C57   C     C_R   0.878529 0.887115 0.981320 0.031928
C58   C     C_R   0.877563 0.985997 0.018895 0.160071
C59   C     C_3   0.851153 0.044238 0.957398 -0.530036
C60   C     C_3   0.953844 0.146723 0.053806 -0.523512
C61   C     C_R   0.435471 0.527471 0.751202 -0.125572
C62   C     C_R   0.275863 0.184924 0.248295 -0.136015
C63   C     C_R   0.172624 0.176054 0.222472 0.064482
C64   C     C_3   0.891773 0.317499 0.269951 0.259156
C65   C     C_3   0.805881 0.201155 0.227691 -0.908477
C66   C     C_R   0.494639 0.402654 0.195853 -0.165278
C67   C     C_R   0.706626 0.799058 0.802601 -0.162725
C68   C     C_R   0.801498 0.710339 0.804991 -0.118601
H1    H     H_    0.123050 0.302915 0.247506 0.101065
H2    H     H_    0.137396 0.628747 0.157580 0.116191
H3    H     H_    0.151159 0.686899 0.339584 0.138908
H4    H     H_    0.552993 0.374484 0.749551 0.111568
H5    H     H_    0.852298 0.320688 0.022232 0.144437
H6    H     H_    0.852743 0.540744 0.325732 0.146850
H7    H     H_    0.203053 0.714592 0.671201 0.120278
H8    H     H_    0.947294 0.813659 0.620652 0.116327
H9    H     H_    0.980529 0.955183 0.791716 0.108526
H10   H     H_    0.105208 0.985893 0.972511 0.123501
H11   H     H_    0.191830 0.869589 0.982456 0.108057
H12   H     H_    0.877626 0.618358 0.678603 0.117670
H13   H     H_    0.158437 0.726002 0.812545 0.106422
H14   H     H_    0.289499 0.461056 0.824110 0.125448
H15   H     H_    0.485397 0.153770 0.324702 0.101803
H16   H     H_    0.282583 0.455098 0.982842 0.123330
H17   H     H_    0.620842 0.430742 0.095147 0.200991
H18   H     H_    0.555856 0.277685 0.017618 0.200683
H19   H     H_    0.629877 0.439414 0.943436 0.202227
H20   H     H_    0.565604 0.286423 0.864800 0.192833
H21   H     H_    0.709993 0.031583 0.668937 0.127140
H22   H     H_    0.716152 0.197025 0.670315 0.125221
H23   H     H_    0.513904 0.338218 0.168063 0.107977
H24   H     H_    0.377540 0.975486 0.312818 0.199524
H25   H     H_    0.441667 0.962163 0.223038 0.189271
H26   H     H_    0.369027 0.814826 0.312173 0.198044
H27   H     H_    0.322958 0.657959 0.672799 0.084052
H28   H     H_    0.432488 0.799861 0.221801 0.191191
H29   H     H_    0.130300 0.969256 0.186428 0.131178
H30   H     H_    0.965395 0.802409 0.026312 0.131543
H31   H     H_    0.856890 0.017362 0.881215 0.198258
H32   H     H_    0.774220 0.047181 0.947006 0.191140
H33   H     H_    0.018730 0.177729 0.032966 0.202104
H34   H     H_    0.670232 0.846923 0.830007 0.104185
H35   H     H_    0.935532 0.208892 0.096818 0.201988
H36   H     H_    0.656718 0.321309 0.674666 0.085949
H37   H     H_    0.148169 0.474830 0.321468 0.108847
H38   H     H_    0.382054 0.559837 0.762322 0.092618
H39   H     H_    0.296309 0.120065 0.235640 0.093430
H40   H     H_    0.447308 0.696841 0.321616 0.110895
H41   H     H_    0.913684 0.368234 0.356010 0.125466
H42   H     H_    0.966953 0.316282 0.270529 0.059854
H43   H     H_    0.780785 0.147764 0.141108 0.254631
H44   H     H_    0.841035 0.168519 0.279109 0.215893
H45   H     H_    0.855555 0.679987 0.834965 0.090278
H46   H     H_    0.731858 0.200204 0.231608 0.255371
H47   H     H_    0.342653 0.518615 0.165783 0.087166
H48   H     H_    0.616462 0.879142 0.675979 0.094183
H49   H     H_    0.701179 0.448434 0.323922 0.111759
H50   H     H_    0.988054 0.446195 0.999008 0.128623
N1    N     N_R   0.291070 0.347930 0.293870 -0.039399
N2    N     N_R   0.497240 0.291100 0.443210 -0.036667
N3    N     N_R   0.347890 0.554050 0.556810 -0.038252
N4    N     N_R   0.554050 0.347900 0.556830 -0.038265
N5    N     N_R   0.291070 0.497250 0.443190 -0.036592
N6    N     N_R   0.497240 0.554030 0.706140 -0.039954
N7    N     N_R   0.347890 0.291110 0.293870 -0.038210
N8    N     N_R   0.445950 0.652100 0.443170 -0.038202
N9    N     N_R   0.708930 0.502750 0.556810 -0.042989
N10   N     N_R   0.502760 0.445970 0.293860 -0.038615
N11   N     N_R   0.652110 0.708890 0.706130 -0.038669
N12   N     N_R   0.708930 0.652070 0.706130 -0.041390
N13   N     N_R   0.445950 0.502780 0.293850 -0.037931
N14   N     N_R   0.502760 0.708900 0.556790 -0.039246
N15   N     N_R   0.652110 0.445950 0.443190 -0.041912
N16   N     N_R   0.554050 0.497220 0.706150 -0.040669
Ni1   Ni    Ni4+2 0.369690 0.500010 0.369700 0.213291
Ni2   Ni    Ni4+2 0.630310 0.499990 0.630300 0.207837
Ni3   Ni    Ni4+2 0.500000 0.369720 0.369720 0.209432
Ni4   Ni    Ni4+2 0.500000 0.630280 0.630280 0.208803
O1    O     O_3   0.845603 0.357691 0.203456 -0.651168

loop_
_geom_bond_atom_site_label_1
_geom_bond_atom_site_label_2
_ccdc_geom_bond_type
C25   C31   A    
N15   Ni3   S    
C6    C45   A    
C27   C29   A    
C53   C63   S    
C59   H31   S    
C65   H46   S    
C35   C36   A    
N10   Ni3   S    
C27   H10   S    
C57   C58   A    
C39   C41   S    
C53   C54   A    
C5    N15   A    
C26   C27   A    
C29   C30   A    
C61   N6    A    
C18   C24   A    
N6    Ni4   S    
C36   C37   A    
C37   C38   A    
N13   Ni1   S    
C3    H48   S    
C16   N2    A    
C30   C31   A    
C52   N5    A    
C11   H3    S    
C10   C17   A    
N14   Ni4   S    
C23   C40   A    
C18   C19   A    
C1    N1    A    
C56   N9    A    
C65   H43   S    
C46   C47   A    
N11   Ni4   S    
C19   C20   A    
C44   C46   A    
C32   C41   S    
C54   H29   S    
C8    C66   A    
C32   C38   A    
C4    C12   A    
C60   H35   S    
C45   H40   S    
C68   H45   S    
C3    C6    A    
C28   C34   A    
C59   C60   S    
C18   H6    S    
C21   C22   A    
C59   H32   S    
C67   N11   A    
C7    C56   A    
C41   H19   S    
C1    C63   A    
C35   H14   S    
N2    N4    A    
C22   C34   S    
N12   Ni2   S    
C26   H9    S    
C23   C47   S    
C3    N14   A    
N9    Ni2   S    
C5    C7    A    
C28   N3    A    
C50   H26   S    
N16   Ni2   S    
C62   H39   S    
N7    Ni3   S    
C25   C26   A    
C16   H15   S    
N1    Ni1   S    
C13   C24   S    
C5    H49   S    
C51   C53   A    
N3    Ni4   S    
C43   C44   A    
C9    C67   A    
C65   H44   S    
C62   C63   A    
C40   H36   S    
C2    H47   S    
C64   H42   S    
C47   C48   A    
C29   H11   S    
N8    N14   A    
C45   N8    A    
C2    N13   A    
C51   C58   A    
C42   C48   A    
C14   O1    S    
C68   N12   A    
C61   H38   S    
N4    Ni2   S    
C17   H50   S    
C42   C50   S    
C10   H2    S    
C48   C49   S    
C15   H5    S    
N8    Ni1   S    
C16   C23   A    
C7    C19   S    
C6    C43   S    
C28   H27   S    
C22   C24   A    
C51   C60   S    
C8    C37   S    
C39   H17   S    
C49   H24   S    
C60   H33   S    
N10   N13   A    
N1    N7    A    
C4    H4    S    
C4    N16   A    
N11   N12   A    
C15   C17   A    
C41   H20   S    
C54   C55   A    
C2    C8    A    
N9    N15   A    
C52   H37   S    
C62   N7    A    
C66   H23   S    
C46   H22   S    
C40   N4    A    
C21   H7    S    
C34   C52   A    
C56   H12   S    
N6    N16   A    
C25   H8    S    
C64   C65   S    
C30   H13   S    
C55   C57   A    
C58   C59   S    
C9    C68   A    
C32   C33   A    
C12   C61   A    
C11   C13   A    
C50   H28   S    
C64   H41   S    
C38   C39   S    
C36   H16   S    
C55   H30   S    
C33   C35   A    
C66   N10   A    
C9    C57   S    
C1    H1    S    
N3    N5    A    
C10   C11   A    
C20   C21   A    
C49   C50   S    
C42   C43   A    
N5    Ni1   S    
C14   C15   A    
N2    Ni3   S    
C39   H18   S    
C49   H25   S    
C12   C33   S    
C13   C14   A    
C20   C31   S    
C44   H21   S    
C67   H34   S    
C64   O1    S    
