data_str_m3_o14_o18_f0_pcu.sym.11
_audit_creation_date              2013-03-05T15:53:05-0500
_audit_creation_method            fapswitch 2.2
_symmetry_space_group_name_H-M    P1
_symmetry_Int_Tables_number       1
_space_group_crystal_system       triclinic
_cell_length_a                    9.886614
_cell_length_b                    10.719443
_cell_length_c                    15.420114
_cell_angle_alpha                 91.705001
_cell_angle_beta                  68.443236
_cell_angle_gamma                 90.708942
_cell_volume                      1519.22714571

loop_
_atom_site_label
_atom_site_type_symbol
_atom_site_description
_atom_site_fract_x
_atom_site_fract_y
_atom_site_fract_z
_atom_type_partial_charge
O1    O     O_R   0.385310 0.683220 0.500000 -0.641725
O2    O     O_R   0.614640 0.683250 0.500010 -0.645953
C1    C     C_R   0.505322 0.739058 0.491014 0.862287
O3    O     O_R   0.319840 0.499980 0.632240 -0.633429
O4    O     O_R   0.549160 0.500000 0.632250 -0.629118
C2    C     C_R   0.409592 0.497453 0.675941 0.846465
Zn1   Zn    Zn3+2 0.346880 0.499980 0.499990 0.915691
Zn2   Zn    Zn3+2 0.653120 0.500020 0.500010 0.970953
O5    O     O_R   0.385360 0.316750 0.499990 -0.632048
O6    O     O_R   0.614690 0.316780 0.500000 -0.566516
O7    O     O_R   0.450840 0.500000 0.367750 -0.621659
O8    O     O_R   0.680160 0.500020 0.367760 -0.573500
C3    C     C_R   0.494616 0.259941 0.506056 0.890967
C4    C     C_R   0.590723 0.497491 0.323979 0.869877
C5    C     C_R   0.357581 0.470490 0.774997 -0.080796
C6    C     C_R   0.647621 0.483767 0.222510 -0.064257
C7    C     C_R   0.189969 0.367803 0.910060 -0.238039
C8    C     C_R   0.222779 0.413444 0.820692 -0.211242
C9    C     C_R   0.457933 0.481248 0.818785 -0.210761
C10   C     C_R   0.434305 0.423209 0.902649 0.097661
C11   C     C_R   0.294500 0.373873 0.951904 0.179702
C12   C     C_R   0.543913 0.420397 0.941127 -0.080433
C13   C     C_R   0.501378 0.399341 0.037418 0.016175
C14   C     C_R   0.361876 0.348266 0.085550 -0.203792
C15   C     C_R   0.261431 0.332612 0.042184 -0.247450
C16   C     C_R   0.694598 0.436059 0.887062 0.439619
C17   C     C_R   0.792589 0.460082 0.931314 -0.332585
C18   C     C_R   0.745449 0.463307 0.028231 0.096328
C19   C     C_R   0.599499 0.431722 0.082060 0.092229
C20   C     C_R   0.842218 0.498437 0.072185 -0.191409
C21   C     C_R   0.793678 0.507950 0.169090 -0.203297
C22   C     C_R   0.552715 0.444093 0.179091 -0.241506
H1    H     H_    0.155724 0.293052 0.080560 0.149955
H2    H     H_    0.440329 0.428676 0.222159 0.149364
H3    H     H_    0.869056 0.537143 0.201991 0.162421
H4    H     H_    0.905568 0.477525 0.889360 0.170483
H5    H     H_    0.084516 0.325723 0.945600 0.143162
H6    H     H_    0.145142 0.401393 0.786586 0.163139
H7    H     H_    0.555716 0.535014 0.785917 0.204103
H8    H     H_    0.330107 0.315696 0.155754 0.130539
H9    H     H_    0.954197 0.521814 0.031674 0.149821
H10   H     H_    0.710421 0.891114 0.507384 0.170586
C23   C     C_R   0.299245 0.876473 0.428232 -0.151469
H11   H     H_    0.325979 0.788502 0.389667 0.159621
C24   C     C_R   0.167904 0.932079 0.437507 -0.139274
H12   H     H_    0.094227 0.885346 0.409748 0.136492
C25   C     C_R   0.129276 0.045391 0.485922 -0.181003
H13   H     H_    0.023820 0.085615 0.497985 0.142478
C26   C     C_R   0.227967 0.108423 0.516949 -0.167591
H14   H     H_    0.189392 0.193148 0.557728 0.169522
C27   C     C_R   0.368515 0.058515 0.499241 0.102566
C28   C     C_R   0.393799 0.934357 0.467778 0.098972
C29   C     C_R   0.510265 0.871711 0.480255 -0.120929
C30   C     C_R   0.618798 0.937535 0.499760 -0.237082
H15   H     H_    0.698423 0.113922 0.522150 0.182301
C31   C     C_R   0.609243 0.064408 0.511551 -0.211573
C32   C     C_R   0.486023 0.126091 0.510759 -0.137213
C33   C     C_R   0.794823 0.667957 0.619267 -0.110447
H16   H     H_    0.685516 0.675280 0.623424 0.193074
C34   C     C_R   0.832597 0.748730 0.678972 -0.192621
H17   H     H_    0.753066 0.813291 0.724786 0.137243
C35   C     C_R   0.971482 0.745860 0.680586 -0.170001
H18   H     H_    0.000302 0.807984 0.727748 0.140589
C36   C     C_R   0.073564 0.662819 0.622003 -0.109145
H19   H     H_    0.177151 0.664519 0.628331 0.198475
C37   C     C_R   0.039749 0.581282 0.559412 0.148033
C38   C     C_R   0.895674 0.582542 0.558643 0.094338
N1    N     N_R   0.856800 0.501200 0.500850 -0.155768
C39   C     C_R   0.957585 0.419350 0.443523 0.512306
H20   H     H_    0.185346 0.356923 0.400224 0.153731
C40   C     C_R   0.103122 0.420672 0.443878 -0.301204
N2    N     N_R   0.142390 0.501280 0.500880 -0.134399
O9    O     O_3   0.907628 0.334780 0.391587 -0.570862
C41   C     C_3   0.018268 0.272418 0.318384 0.045258
H21   H     H_    0.076096 0.205826 0.346521 0.144887
H22   H     H_    0.095456 0.340471 0.272372 0.133347
C42   C     C_3   0.949023 0.197063 0.260425 -0.806758
H23   H     H_    0.894024 0.260467 0.228122 0.257210
H24   H     H_    0.033833 0.142997 0.204565 0.198421
H25   H     H_    0.867714 0.130920 0.305348 0.262317
O10   O     O_3   0.750179 0.420537 0.791014 -0.614208
C43   C     C_3   0.765169 0.291290 0.769030 0.100047
H26   H     H_    0.658031 0.242790 0.796894 0.143466
H27   H     H_    0.841611 0.248251 0.797587 0.134536
C44   C     C_3   0.826175 0.271393 0.663784 -0.817833
H28   H     H_    0.935094 0.315591 0.633730 0.245964
H29   H     H_    0.836595 0.169895 0.646188 0.189887
H30   H     H_    0.751914 0.312747 0.633253 0.282287

loop_
_geom_bond_atom_site_label_1
_geom_bond_atom_site_label_2
_geom_bond_distance
_ccdc_geom_bond_type
C5    C8    1.400715 A    
H15   C31   1.083949 S    
O9    C41   1.408354 S    
C9    C10   1.391499 A    
O10   C43   1.413005 S    
C25   C26   1.394612 A    
C42   H23   1.110870 S    
C6    C21   1.400089 A    
C5    C9    1.392263 A    
C16   C17   1.392729 A    
C41   H22   1.112236 S    
C13   C19   1.415480 A    
C18   C19   1.417822 A    
C19   C22   1.396913 A    
C44   H28   1.110191 S    
O4    C2    1.294474 A    
O7    C4    1.297230 A    
C23   C28   1.418716 A    
C42   H25   1.111170 S    
C3    C32   1.438669 S    
C33   C34   1.390683 A    
C31   C32   1.397419 A    
C34   C35   1.383177 A    
C39   C40   1.440778 A    
O5    C3    1.280734 A    
C35   C36   1.389756 A    
C2    C5    1.458255 S    
C37   N2    1.371956 A    
N1    C39   1.368320 A    
C26   C27   1.422146 A    
C41   C42   1.520813 S    
C13   C14   1.416367 A    
C20   H9    1.083020 S    
C39   O9    1.394102 S    
H20   C40   1.079439 S    
C27   C32   1.424451 A    
C42   H24   1.110176 S    
C37   C38   1.429049 A    
O3    Zn1   1.956946 S    
C24   C25   1.388016 A    
C30   C31   1.366544 A    
C41   H21   1.111524 S    
C44   H29   1.110254 S    
C38   N1    1.378165 A    
C14   C15   1.392376 A    
O3    C2    1.297418 A    
Zn1   N2    2.016929 S    
C33   H16   1.062560 S    
C24   H12   1.082636 S    
C7    C11   1.405154 A    
C27   C28   1.396377 A    
C34   H17   1.082806 S    
O1    C1    1.285230 A    
C36   C37   1.409570 A    
Zn1   O7    1.916882 S    
C23   H11   1.081686 S    
C35   H18   1.082722 S    
C25   H13   1.082300 S    
Zn2   O8    1.956943 S    
C7    C8    1.396907 A    
C7    H5    1.083500 S    
C23   C24   1.392661 A    
C9    H7    1.080356 S    
C10   C12   1.414780 A    
Zn2   N1    2.018382 S    
C16   O10   1.383017 S    
C43   H27   1.114972 S    
C26   H14   1.078914 S    
C21   H3    1.083197 S    
C28   C29   1.415434 A    
C44   H30   1.109798 S    
Zn1   O5    2.005243 S    
C11   C15   1.392525 A    
O1    Zn1   1.996026 S    
O2    Zn2   2.005244 S    
O8    C4    1.294350 A    
O6    C3    1.301245 A    
O4    Zn2   1.916882 S    
C29   C30   1.394812 A    
C17   H4    1.082661 S    
C6    C22   1.394404 A    
C43   C44   1.518679 S    
C36   H19   1.063756 S    
C18   C20   1.403177 A    
O2    C1    1.294732 A    
C8    H6    1.082864 S    
C40   N2    1.366455 A    
H10   C30   1.083911 S    
C1    C29   1.434666 S    
C20   C21   1.392391 A    
C14   H8    1.078142 S    
C4    C6    1.458707 S    
C33   C38   1.411773 A    
C10   C11   1.414707 A    
Zn2   O6    1.996025 S    
C43   H26   1.114496 S    
C12   C16   1.425516 A    
C15   H1    1.082458 S    
C17   C18   1.391886 A    
C12   C13   1.411102 A    
C22   H2    1.078271 S    
