data_str_m2_o41_o41_f0_fof.sym.25
_audit_creation_date              2012-10-26T17:13:02-0400
_audit_creation_method            fapswitch 2.2
_symmetry_space_group_name_H-M    P1
_symmetry_Int_Tables_number       1
_space_group_crystal_system       triclinic
_cell_length_a                    16.840238
_cell_length_b                    16.712349
_cell_length_c                    16.671102
_cell_angle_alpha                 67.851671
_cell_angle_beta                  68.147612
_cell_angle_gamma                 67.976812
_cell_volume                      3880.27484429

loop_
_atom_site_label
_atom_site_type_symbol
_atom_type_description
_atom_site_fract_x
_atom_site_fract_y
_atom_site_fract_z
_atom_type_partial_charge
Br1   Br    Br    0.246134 0.100754 0.805118 -0.229892
Br2   Br    Br    0.334079 0.865979 0.916913 -0.300795
Br3   Br    Br    0.087009 0.658288 0.135615 -0.297509
Br4   Br    Br    0.010469 0.274435 0.846600 -0.228773
Br5   Br    Br    0.748790 0.775594 0.337157 -0.332531
Br6   Br    Br    0.206631 0.688701 0.230848 -0.351274
Br7   Br    Br    0.920138 0.192668 0.765417 -0.260461
Br8   Br    Br    0.825744 0.273085 0.028466 -0.318941
Br9   Br    Br    0.283730 0.781537 0.802241 -0.349443
Br10  Br    Br    0.142242 0.065927 0.692454 -0.288956
Br11  Br    Br    0.857004 0.901445 0.344718 -0.319601
Br12  Br    Br    0.715940 0.156971 0.003817 -0.283942
C1    C     C_R   0.309673 0.007279 0.431243 -0.017375
C2    C     C_R   0.325702 0.460456 0.934695 -0.009356
C3    C     C_R   0.545094 0.418503 0.970935 -0.013692
C4    C     C_R   0.014674 0.454668 0.588124 -0.024976
C5    C     C_R   0.004473 0.536350 0.410229 -0.009944
C6    C     C_2   0.412206 0.177973 0.719392 0.622224
C7    C     C_2   0.594578 0.854181 0.249673 0.639926
C8    C     C_2   0.139209 0.764428 0.392439 0.642966
C9    C     C_2   0.837090 0.283126 0.596978 0.632102
C10   C     C_2   0.799280 0.494575 0.880004 0.617416
C11   C     C_2   0.232658 0.607933 0.857504 0.634707
C12   C     C_2   0.194690 0.145319 0.469856 0.607026
C13   C     C_R   0.062204 0.672121 0.540913 -0.040693
C14   C     C_2   0.753242 0.109780 0.386723 0.625367
C15   C     C_2   0.601105 0.255556 0.849108 0.641640
C16   C     C_2   0.396918 0.751174 0.115785 0.655488
C17   C     C_2   0.884954 0.610612 0.242997 0.669644
C18   C     C_2   0.147782 0.395207 0.741068 0.620546
C19   C     C_R   0.949671 0.324068 0.456931 -0.014500
C20   C     C_R   0.449633 0.995791 0.451939 0.021360
C21   C     C_R   0.540552 0.030047 0.541926 0.018736
C22   C     C_R   0.980919 0.455090 0.458152 0.021741
C23   C     C_R   0.033530 0.538550 0.541110 0.022832
C24   C     C_R   0.459414 0.463034 0.958063 0.019348
C25   C     C_R   0.548160 0.550588 0.998028 0.016176
C26   C     C_R   0.030429 0.827692 0.563598 0.543319
C27   C     C_R   0.679164 0.039847 0.547855 -0.012314
C28   C     C_R   0.969794 0.172170 0.436388 0.586730
C29   C     C_R   0.829762 0.567854 0.019223 0.574336
C30   C     C_R   0.171814 0.436302 0.969887 0.552486
C31   C     C_R   0.564477 0.028714 0.828035 0.572162
C32   C     C_R   0.435994 0.970274 0.172228 0.544491
C33   C     C_R   0.434513 0.171887 0.973123 0.587384
C34   C     C_R   0.565084 0.828425 0.026385 0.548298
C35   C     C_R   0.973339 0.434763 0.171870 0.536792
C36   C     C_R   0.027296 0.565087 0.828148 0.606235
C37   C     C_R   0.169623 0.982658 0.431126 0.597319
C38   C     C_R   0.958246 0.452434 0.322857 -0.051971
C39   C     C_R   0.828656 0.025215 0.565738 0.567485
C40   C     C_R   0.403715 0.981978 0.404943 -0.004546
C41   C     C_R   0.588519 0.041852 0.588372 -0.006098
C42   C     C_R   0.963147 0.410194 0.412614 0.008388
C43   C     C_R   0.049603 0.585337 0.585835 -0.000774
C44   C     C_R   0.412611 0.416625 0.945189 -0.004006
C45   C     C_R   0.594952 0.596326 0.012926 -0.005401
C46   C     C_R   0.264205 0.983579 0.390560 0.013131
C47   C     C_R   0.730559 0.039475 0.599567 0.011716
C48   C     C_R   0.958204 0.401061 0.271183 -0.037320
C49   C     C_R   0.053306 0.544344 0.675646 -0.004060
C50   C     C_R   0.045545 0.598145 0.728592 0.041209
C51   C     C_R   0.400486 0.271945 0.953780 0.023261
C52   C     C_R   0.599997 0.730340 0.036113 0.005675
C53   C     C_R   0.598362 0.047235 0.728275 -0.024727
C54   C     C_R   0.400882 0.955294 0.271870 -0.002314
C55   C     C_R   0.734278 0.605937 0.019926 0.006207
C56   C     C_R   0.270995 0.404668 0.949255 -0.021370
C57   C     C_R   0.050170 0.727638 0.595519 -0.029001
C58   C     C_R   0.953360 0.271508 0.403754 0.012213
C59   C     C_R   0.450877 0.091419 0.695451 0.077302
C60   C     C_R   0.453780 0.326369 0.942296 -0.010903
C61   C     C_R   0.545803 0.911835 0.311862 0.065936
C62   C     C_R   0.088049 0.696509 0.444279 0.018836
C63   C     C_R   0.927520 0.297316 0.552868 0.015433
C64   C     C_R   0.730550 0.484261 0.968806 0.076447
C65   C     C_R   0.299647 0.557384 0.909323 0.076410
C66   C     C_R   0.264860 0.059673 0.493670 0.072408
C67   C     C_R   0.714306 0.036751 0.456856 0.071139
C68   C     C_R   0.547597 0.294824 0.926964 0.052723
C69   C     C_R   0.456872 0.712738 0.039263 0.068593
C70   C     C_R   0.956039 0.544633 0.287704 0.024106
C71   C     C_R   0.549881 0.680074 0.031484 -0.010901
C72   C     C_R   0.067304 0.449895 0.707268 0.066671
C73   C     C_R   0.309767 0.962338 0.308872 -0.109256
C74   C     C_R   0.689438 0.040847 0.689425 -0.144392
C75   C     C_R   0.956066 0.311733 0.312711 -0.123370
C76   C     C_R   0.043254 0.688638 0.687619 -0.127935
C77   C     C_R   0.310098 0.312246 0.957637 -0.145835
C78   C     C_R   0.689481 0.690070 0.035734 -0.120491
C79   C     C_R   0.677403 0.993243 0.428034 -0.025500
C80   C     C_R   0.309258 0.053328 0.553963 -0.012934
C81   C     C_R   0.029809 0.410019 0.673536 -0.042171
C82   C     C_R   0.545193 0.058506 0.673128 -0.022033
C83   C     C_R   0.000476 0.576658 0.320763 -0.013333
C84   C     C_R   0.421036 0.681319 0.995989 -0.023933
C85   C     C_R   0.588784 0.331786 0.959146 -0.033661
C86   C     C_R   0.592056 0.927970 0.358480 -0.022041
C87   C     C_R   0.402544 0.072318 0.653731 -0.013785
C88   C     C_R   0.345387 0.604286 0.926297 -0.018577
C89   C     C_R   0.680129 0.426021 0.985441 -0.019471
C90   C     C_R   0.958849 0.334058 0.596681 -0.030091
C91   C     C_R   0.070707 0.649364 0.398894 -0.009259
C92   C     C_R   0.728753 0.937347 0.370988 0.216977
C93   C     C_R   0.451235 0.948614 0.328440 -0.016187
C94   C     C_R   0.263571 0.072122 0.637909 0.234322
C95   C     C_R   0.004342 0.329627 0.723310 0.228590
C96   C     C_R   0.052013 0.637172 0.265009 0.215316
C97   C     C_R   0.356626 0.737171 0.948651 0.224074
C98   C     C_R   0.672027 0.286117 0.978978 0.217694
C99   C     C_R   0.685790 0.895641 0.346449 0.217371
C100  C     C_R   0.309580 0.082622 0.687331 0.226924
C101  C     C_R   0.325030 0.699979 0.906526 0.216762
C102  C     C_R   0.718254 0.334130 0.990681 0.228949
C103  C     C_R   0.964270 0.294842 0.687368 0.208468
C104  C     C_R   0.687606 0.560499 0.002992 -0.015398
C105  C     C_R   0.094181 0.666133 0.303860 0.211976
C106  C     C_R   0.542586 0.975729 0.423731 -0.011525
C107  C     C_R   0.448633 0.041734 0.576021 -0.007620
C108  C     C_R   0.985704 0.413872 0.547566 -0.016944
C109  C     C_R   0.033462 0.576659 0.450749 -0.001891
C110  C     C_R   0.420490 0.553209 0.959689 -0.010277
C111  C     C_R   0.590337 0.464064 0.987083 -0.016221
C112  C     C_R   0.586612 0.999749 0.464550 -0.020241
C113  C     C_R   0.402477 0.029279 0.528020 -0.012624
C114  C     C_R   0.462367 0.594326 0.986345 -0.015224
Cu1   Cu    Cu3+1 0.995180 0.995180 0.424630 1.175836
Cu2   Cu    Cu3+1 0.004820 0.004820 0.575370 1.099135
Cu3   Cu    Cu3+1 0.995180 0.424630 0.995180 1.150817
Cu4   Cu    Cu3+1 0.004820 0.575370 0.004820 1.165347
Cu5   Cu    Cu3+1 0.424630 0.995180 0.995180 1.166836
Cu6   Cu    Cu3+1 0.575370 0.004820 0.004820 1.134972
H1    H     H_    0.272877 0.955908 0.271509 0.177449
H2    H     H_    0.878642 0.149244 0.648370 0.352299
H3    H     H_    0.854434 0.459904 0.764096 0.336372
H4    H     H_    0.121466 0.709037 0.843218 0.352417
H5    H     H_    0.128103 0.269304 0.485475 0.341007
H6    H     H_    0.804482 0.165536 0.255142 0.364343
H7    H     H_    0.601147 0.217641 0.747546 0.361603
H8    H     H_    0.286537 0.842065 0.162665 0.372629
H9    H     H_    0.799959 0.531644 0.301455 0.313281
H10   H     H_    0.245372 0.391392 0.786317 0.342770
H11   H     H_    0.729776 0.033476 0.730769 0.183900
H12   H     H_    0.960410 0.271599 0.272388 0.169989
H13   H     H_    0.032522 0.730378 0.729088 0.155426
H14   H     H_    0.268599 0.270098 0.970591 0.175900
H15   H     H_    0.726178 0.726807 0.043189 0.165484
H16   H     H_    0.352182 0.310181 0.679715 0.362333
H17   H     H_    0.699430 0.826054 0.145339 0.364870
H18   H     H_    0.228920 0.705084 0.465529 0.316683
O1    O     O_R   0.124540 0.978640 0.385460 -0.474541
O2    O     O_R   0.124540 0.385460 0.978640 -0.498355
O3    O     O_R   0.021360 0.875460 0.614540 -0.508387
O4    O     O_R   0.978640 0.124540 0.385460 -0.494844
O5    O     O_R   0.013780 0.867370 0.487190 -0.474658
O6    O     O_R   0.986220 0.132630 0.512810 -0.517622
O7    O     O_R   0.867370 0.487190 0.013780 -0.492037
O8    O     O_R   0.132630 0.512810 0.986220 -0.472897
O9    O     O_R   0.487190 0.013780 0.867370 -0.462421
O10   O     O_R   0.512810 0.986220 0.132630 -0.490149
O11   O     O_R   0.512810 0.132630 0.986220 -0.498549
O12   O     O_R   0.875460 0.021360 0.614540 -0.521823
O13   O     O_R   0.487190 0.867370 0.013780 -0.493739
O14   O     O_R   0.986220 0.512810 0.132630 -0.486881
O15   O     O_R   0.013780 0.487190 0.867370 -0.471700
O16   O     O_R   0.132630 0.986220 0.512810 -0.489636
O17   O     O_R   0.867370 0.013780 0.487190 -0.489730
O18   O     O_2   0.421798 0.185687 0.784855 -0.476079
O19   O     O_R   0.368378 0.253045 0.662262 -0.636728
O20   O     O_2   0.567446 0.792602 0.257204 -0.461622
O21   O     O_R   0.670219 0.871808 0.181167 -0.613248
O22   O     O_2   0.115185 0.826649 0.330640 -0.398267
O23   O     O_R   0.978640 0.385460 0.124540 -0.506226
O24   O     O_R   0.213106 0.760128 0.414972 -0.651582
O25   O     O_2   0.772558 0.348665 0.593281 -0.416765
O26   O     O_R   0.822504 0.198417 0.640608 -0.618065
O27   O     O_2   0.830353 0.558957 0.847573 -0.537077
O28   O     O_R   0.820353 0.436562 0.828336 -0.651416
O29   O     O_2   0.240888 0.589585 0.789915 -0.484159
O30   O     O_R   0.158749 0.674633 0.887599 -0.604501
O31   O     O_2   0.166303 0.162314 0.405907 -0.539946
O32   O     O_R   0.168708 0.211451 0.513722 -0.663000
O33   O     O_2   0.757831 0.170140 0.408016 -0.501355
O34   O     O_R   0.021360 0.614540 0.875460 -0.521717
O35   O     O_R   0.780481 0.112212 0.295852 -0.633195
O36   O     O_2   0.681731 0.243544 0.822188 -0.408602
O37   O     O_R   0.558261 0.240153 0.801026 -0.658626
O38   O     O_2   0.419630 0.726639 0.184940 -0.457350
O39   O     O_R   0.317250 0.817487 0.108343 -0.595022
O40   O     O_2   0.893328 0.684682 0.195559 -0.377049
O41   O     O_R   0.807329 0.590074 0.254563 -0.633985
O42   O     O_2   0.180619 0.316718 0.740146 -0.430728
O43   O     O_R   0.191134 0.435249 0.766027 -0.678463
O44   O     O_R   0.385460 0.124540 0.978640 -0.475177
O45   O     O_R   0.614540 0.875460 0.021360 -0.514696
O46   O     O_R   0.614540 0.021360 0.875460 -0.499761
O47   O     O_R   0.385460 0.978640 0.124540 -0.510635
O48   O     O_R   0.875460 0.614540 0.021360 -0.489614

loop_
_geom_bond_atom_site_label_1
_geom_bond_atom_site_label_2
_ccdc_geom_bond_type
C2    C44   A    
Br2   C97   S    
H8    O39   S    
C68   C85   A    
C32   C54   S    
H9    O41   S    
C7    O20   D    
C10   C64   S    
C79   C92   A    
C10   O28   S    
C28   O4    A    
C16   O39   S    
C54   C73   A    
Br12  C98   S    
Cu4   O8    S    
C34   O45   A    
C29   C55   S    
C59   C82   A    
C94   C100  A    
C19   C63   A    
C86   C99   A    
C4    C81   A    
C38   C42   A    
C28   C58   S    
C39   O12   A    
Cu5   O47   S    
C7    O21   S    
C25   C114  A    
C31   O9    A    
C16   O38   D    
C4    C23   A    
C14   O35   S    
C18   O43   S    
Cu4   O14   S    
C33   O44   A    
C65   C88   A    
C13   C62   A    
C2    C65   A    
Br7   C103  S    
C33   O11   A    
Cu6   O11   S    
C20   C40   A    
C90   C103  A    
Cu1   O1    S    
C35   C48   S    
C25   C111  A    
C39   O17   A    
C23   C43   A    
C19   C58   A    
C8    O24   S    
C36   O15   A    
C44   C60   A    
Cu6   O45   S    
C76   H13   S    
C17   O41   S    
Br11  C92   S    
C5    C83   A    
C18   O42   D    
C75   H12   S    
C30   O2    A    
C98   C102  A    
Br6   C105  S    
C11   O29   D    
Br8   C102  S    
C23   C109  A    
C14   O33   D    
C41   C82   A    
C26   C57   S    
C32   O47   A    
C80   C113  A    
C30   C56   S    
C89   C102  A    
Cu3   O23   S    
C91   C105  A    
C26   O5    A    
C3    C85   A    
C10   O27   D    
H7    O37   S    
C58   C75   A    
Cu1   O4    S    
Cu3   O7    S    
C69   C71   A    
C48   C75   A    
C74   H11   S    
C86   C106  A    
C45   C104  A    
C21   C41   A    
C77   H14   S    
Br4   C95   S    
C37   O1    A    
C8    C62   S    
C52   C78   A    
C53   C74   A    
H6    O35   S    
Cu3   O2    S    
C15   C68   S    
Cu1   O5    S    
C36   O34   A    
C69   C84   A    
C6    O18   D    
C15   O37   S    
C1    C46   A    
Br5   C99   S    
C66   C80   A    
C50   C76   A    
C33   C51   S    
C55   C78   A    
C37   C46   S    
C34   C52   S    
C31   O46   A    
C15   O36   D    
C27   C67   A    
C20   C113  A    
C110  C114  A    
C24   C110  A    
C55   C104  A    
C52   C71   A    
C78   H15   S    
C24   C44   A    
C63   C90   A    
C1    C40   A    
C61   C93   A    
C7    C61   S    
C31   C53   S    
C9    O26   S    
C27   C47   A    
C51   C77   A    
Cu2   O12   S    
H16   O19   S    
C84   C114  A    
Cu1   O17   S    
C106  C112  A    
C11   C65   S    
Cu5   O9    S    
C95   C103  A    
C11   O30   S    
C35   O23   A    
C57   C76   A    
H2    O26   S    
Cu2   O3    S    
C89   C111  A    
C29   O7    A    
C35   O14   A    
C107  C113  A    
C80   C94   A    
C53   C82   A    
H18   O24   S    
C9    O25   D    
C40   C93   A    
C22   C42   A    
C79   C112  A    
C6    C59   S    
C32   O10   A    
Br10  C94   S    
Cu5   O44   S    
C13   C57   A    
C5    C22   A    
C54   C93   A    
Cu5   Cu6   S    
C91   C109  A    
C46   C73   A    
C3    C24   A    
C90   C108  A    
C38   C70   A    
Cu3   Cu4   S    
C6    O19   S    
C12   C66   S    
C64   C89   A    
H4    O30   S    
C1    C66   A    
C30   O8    A    
C70   C83   A    
C8    O22   D    
C12   O31   D    
H17   O21   S    
C67   C79   A    
C96   C105  A    
C88   C101  A    
C13   C43   A    
H3    O28   S    
C20   C106  A    
C29   O48   A    
C49   C72   A    
C92   C99   A    
Cu2   O16   S    
C21   C107  A    
H5    O32   S    
C97   C101  A    
Br3   C96   S    
C36   C50   S    
C84   C97   A    
C9    C63   S    
C14   C67   S    
Cu3   O15   S    
C34   O13   A    
Br9   C101  S    
C4    C108  A    
C16   C69   S    
C47   C74   A    
C38   C48   A    
C37   O16   A    
Br1   C100  S    
Cu4   O34   S    
C81   C95   A    
C85   C98   A    
C27   C41   A    
C59   C87   A    
C87   C100  A    
C43   C49   A    
C64   C104  A    
H10   O43   S    
C88   C110  A    
C72   C81   A    
C19   C42   A    
C18   C72   S    
C49   C50   A    
C61   C86   A    
C83   C96   A    
Cu2   O6    S    
C87   C107  A    
C17   C70   S    
C39   C47   S    
C51   C60   A    
C5    C109  A    
C22   C108  A    
C60   C68   A    
Cu5   O13   S    
Cu6   O46   S    
C21   C112  A    
C2    C56   A    
C17   O40   D    
C28   O6    A    
C3    C111  A    
C26   O3    A    
C56   C77   A    
Cu4   O48   S    
Cu6   O10   S    
C12   O32   S    
C25   C45   A    
Cu1   Cu2   S    
C73   H1    S    
C62   C91   A    
C45   C71   A    
