data_str_m2_o9_o13_f0_pcu.sym.5
_audit_creation_date              2012-10-26T18:47:37-0400
_audit_creation_method            fapswitch 2.2
_symmetry_space_group_name_H-M    P1
_symmetry_Int_Tables_number       1
_space_group_crystal_system       triclinic
_cell_length_a                    10.920054
_cell_length_b                    13.034148
_cell_length_c                    11.64425
_cell_angle_alpha                 99.484646
_cell_angle_beta                  94.403458
_cell_angle_gamma                 90.470364
_cell_volume                      1629.51923166

loop_
_atom_site_label
_atom_site_type_symbol
_atom_type_description
_atom_site_fract_x
_atom_site_fract_y
_atom_site_fract_z
_atom_type_partial_charge
C1    C     C_R   0.498675 0.299134 0.478879 0.567262
C2    C     C_R   0.542585 0.983026 0.656164 0.020919
C3    C     C_R   0.464079 0.125620 0.357505 -0.097046
C4    C     C_R   0.535311 0.874381 0.642559 -0.101855
C5    C     C_R   0.520747 0.138954 0.564405 -0.121156
C6    C     C_R   0.478716 0.861040 0.435648 -0.120494
C7    C     C_R   0.515897 0.030784 0.555784 0.038515
C8    C     C_R   0.483406 0.969217 0.444298 0.038741
C9    C     C_R   0.419573 0.379790 0.020045 -0.170929
C10   C     C_R   0.580443 0.620200 0.979954 -0.169365
C11   C     C_R   0.422389 0.394145 0.142559 0.039697
C12   C     C_R   0.501201 0.700863 0.521124 0.566423
C13   C     C_R   0.577561 0.605877 0.857439 0.039798
C14   C     C_R   0.527223 0.556156 0.157854 0.081185
C15   C     C_R   0.472907 0.443788 0.842154 0.083898
C16   C     C_R   0.261924 0.496387 0.498790 0.588081
C17   C     C_R   0.738071 0.503612 0.501224 0.588449
C18   C     C_R   0.527124 0.544794 0.034844 -0.001949
C19   C     C_R   0.472962 0.455168 0.965161 0.000201
C20   C     C_R   0.237150 0.665524 0.202325 -0.081255
C21   C     C_R   0.762837 0.333951 0.797332 -0.095423
C22   C     C_R   0.186913 0.648823 0.304839 -0.002333
C23   C     C_R   0.872528 0.507479 0.504719 -0.064722
C24   C     C_R   0.813153 0.350844 0.694925 0.012949
C25   C     C_R   0.109437 0.561788 0.303299 0.123314
C26   C     C_R   0.890344 0.438087 0.696655 0.124750
C27   C     C_R   0.083370 0.492405 0.198126 -0.046580
C28   C     C_R   0.916083 0.507459 0.801886 -0.057836
C29   C     C_R   0.133717 0.509748 0.096079 -0.114688
C30   C     C_R   0.865694 0.489894 0.903826 -0.117251
C31   C     C_R   0.210096 0.596501 0.098044 -0.090505
C32   C     C_R   0.789574 0.402952 0.901684 -0.100706
C33   C     C_R   0.930990 0.554051 0.421387 0.189621
C34   C     C_R   0.127460 0.492516 0.495374 -0.063230
C35   C     C_R   0.069033 0.446110 0.578905 0.234679
C36   C     C_3   0.418119 0.951682 0.224916 -0.279011
C37   C     C_3   0.390993 0.010915 0.123022 -0.450179
C38   C     C_3   0.580802 0.048318 0.775249 -0.281394
C39   C     C_3   0.607358 0.989112 0.877251 -0.449113
C40   C     C_R   0.943052 0.460342 0.588899 -0.079811
C41   C     C_R   0.056901 0.539639 0.411198 -0.099875
C42   C     C_R   0.504406 0.814047 0.533466 0.000454
C43   C     C_R   0.495195 0.185948 0.466564 0.002889
C44   C     C_R   0.456608 0.016978 0.343939 0.023154
Cu1   Cu    Cu3+1 0.509250 0.507730 0.615930 0.998283
Cu2   Cu    Cu3+1 0.490750 0.492270 0.384070 1.000477
H1    H     H_    0.249483 0.609596 0.019040 0.135573
H2    H     H_    0.702059 0.268111 0.795962 0.077460
H3    H     H_    0.209092 0.702545 0.385312 0.087126
H4    H     H_    0.791321 0.297085 0.614414 0.111220
H5    H     H_    0.024585 0.424587 0.195539 0.114975
H6    H     H_    0.974679 0.575414 0.804608 0.116113
H7    H     H_    0.114106 0.455574 0.015614 0.151093
H8    H     H_    0.885077 0.544037 0.984346 0.163141
H9    H     H_    0.455167 0.811788 0.352741 0.111350
H10   H     H_    0.544388 0.188197 0.647298 0.109898
H11   H     H_    0.555453 0.835152 0.716325 0.128799
H12   H     H_    0.750150 0.389684 0.980606 0.136447
H13   H     H_    0.443959 0.164852 0.283738 0.128343
H14   H     H_    0.968764 0.775977 0.389097 0.335821
H15   H     H_    0.100630 0.236288 0.754461 0.359098
H16   H     H_    0.313068 0.064108 0.139928 0.154216
H17   H     H_    0.473753 0.055426 0.108039 0.145454
H18   H     H_    0.364684 0.954520 0.042337 0.141087
H19   H     H_    0.491883 0.895920 0.200259 0.147138
H20   H     H_    0.333113 0.907329 0.233467 0.143629
H21   H     H_    0.524437 0.944630 0.891890 0.144840
H22   H     H_    0.685334 0.935903 0.860719 0.155712
H23   H     H_    0.431377 0.375036 0.788129 0.176124
H24   H     H_    0.633357 0.045526 0.957996 0.142888
H25   H     H_    0.665979 0.092522 0.766931 0.144092
H26   H     H_    0.507073 0.104193 0.799648 0.141665
H27   H     H_    0.568825 0.624872 0.211887 0.180865
H28   H     H_    0.618609 0.664828 0.816386 0.124257
H29   H     H_    0.381271 0.335227 0.183612 0.123470
H30   H     H_    0.376271 0.310190 0.968822 0.103447
H31   H     H_    0.623709 0.689817 0.031172 0.119104
H32   H     H_    0.298142 0.731216 0.203566 0.076106
N1    N     N_R   0.523180 0.519350 0.790130 -0.232965
N2    N     N_R   0.476820 0.480650 0.209870 -0.234586
O1    O     O_R   0.506570 0.354460 0.582000 -0.501326
O2    O     O_2   0.746080 0.690241 0.397897 -0.297085
O3    O     O_3   0.944768 0.735028 0.311012 -0.513341
O4    O     O_2   0.253256 0.309973 0.602636 -0.288104
O5    O     O_2   0.197296 0.425429 0.778927 -0.344019
O6    O     O_3   0.055313 0.266938 0.691774 -0.537768
O7    O     O_R   0.493430 0.645540 0.418000 -0.499495
O8    O     O_R   0.490940 0.341410 0.386200 -0.530452
O9    O     O_R   0.509060 0.658590 0.613800 -0.531552
O10   O     O_R   0.327460 0.506540 0.597900 -0.429815
O11   O     O_R   0.672540 0.493460 0.402100 -0.429323
O12   O     O_R   0.311830 0.493480 0.402100 -0.522475
O13   O     O_R   0.688170 0.506520 0.597900 -0.524983
O14   O     O_2   0.804025 0.577296 0.221329 -0.299613
S1    S     S_3+6 0.851477 0.639509 0.336587 -0.006654
S2    S     S_3+6 0.148928 0.361699 0.664771 -0.014030

loop_
_geom_bond_atom_site_label_1
_geom_bond_atom_site_label_2
_ccdc_geom_bond_type
C30   C32   A    
C13   N1    A    
C16   O10   A    
C27   C29   A    
C39   H22   S    
C14   C18   A    
C5    H10   S    
C2    C7    A    
C17   O11   A    
C32   H12   S    
C6    H9    S    
Cu1   O13   S    
C37   H16   S    
C7    C8    A    
C35   S2    S    
C15   C19   A    
C30   H8    S    
C3    C43   A    
C17   C23   S    
C4    C42   A    
C36   C37   S    
C24   C26   A    
C18   C19   A    
C38   C39   S    
O5    S2    D    
C36   H20   S    
Cu2   O12   S    
C1    O1    A    
C23   C40   A    
C34   C35   A    
O4    S2    D    
C12   C42   S    
C16   C34   S    
C1    C43   S    
C15   N1    A    
C27   H5    S    
C23   C33   A    
C22   C25   A    
C4    H11   S    
C9    H30   S    
C14   N2    A    
Cu1   O9    S    
C21   H2    S    
C1    O8    A    
C5    C43   A    
C31   H1    S    
C34   C41   A    
C33   S1    S    
C37   H17   S    
C10   H31   S    
C9    C19   A    
Cu2   O8    S    
C24   H4    S    
C15   H23   S    
C21   C32   A    
C38   H26   S    
C3    C44   A    
C14   H27   S    
C12   O9    A    
C11   N2    A    
C25   C41   S    
C5    C7    A    
C36   H19   S    
C6    C8    A    
Cu2   O11   S    
Cu1   Cu2   S    
C2    C4    A    
C2    C38   S    
O3    S1    S    
Cu1   N1    S    
Cu1   O10   S    
C9    C11   A    
O6    S2    S    
C22   H3    S    
C20   C22   A    
C16   O12   A    
C36   C44   S    
C17   O13   A    
C37   H18   S    
Cu2   O7    S    
C38   H25   S    
O2    S1    D    
C12   O7    A    
C39   H21   S    
Cu1   O1    S    
C8    C44   A    
C10   C13   A    
C25   C27   A    
C26   C28   A    
C20   H32   S    
C33   C41   A    
C28   C30   A    
C35   C40   A    
C29   C31   A    
C11   H29   S    
Cu2   N2    S    
C28   H6    S    
C26   C40   S    
C29   H7    S    
C10   C18   A    
H14   O3    S    
C39   H24   S    
O14   S1    D    
H15   O6    S    
C13   H28   S    
C6    C42   A    
C21   C24   A    
C20   C31   A    
C3    H13   S    
