data_str_m4_o4_o11_f0_acs.sym.23
_audit_creation_date              2012-12-11T15:41:16-0500
_audit_creation_method            fapswitch 2.2
_symmetry_space_group_name_H-M    P1
_symmetry_Int_Tables_number       1
_space_group_crystal_system       triclinic
_cell_length_a                    18.900593
_cell_length_b                    11.01391
_cell_length_c                    18.785017
_cell_angle_alpha                 90.04042
_cell_angle_beta                  90.437834
_cell_angle_gamma                 90.036836
_cell_volume                      3910.35031649

loop_
_atom_site_label
_atom_site_type_symbol
_atom_type_description
_atom_site_fract_x
_atom_site_fract_y
_atom_site_fract_z
_atom_type_partial_charge
C1    C     C_R   0.727662 0.952168 0.852812 0.552214
C2    C     C_R   0.328238 0.361850 0.019511 0.004858
C3    C     C_R   0.759774 0.863784 0.353031 0.556184
C4    C     C_2   0.497440 0.168168 0.920918 -0.113714
C5    C     C_2   0.502660 0.168036 0.079134 -0.113468
C6    C     C_2   0.997439 0.668169 0.920917 -0.113761
C7    C     C_2   0.002659 0.668039 0.079133 -0.113327
C8    C     C_2   0.491372 0.069928 0.037997 -0.154503
C9    C     C_2   0.508448 0.069930 0.961917 -0.154532
C10   C     C_2   0.991373 0.569929 0.037996 -0.154480
C11   C     C_2   0.008447 0.569931 0.961916 -0.154597
C12   C     C_R   0.750581 0.385826 0.082211 0.042580
C13   C     C_R   0.171594 0.862333 0.980375 0.004692
C14   C     C_R   0.249162 0.386150 0.917865 0.042565
C15   C     C_R   0.250575 0.885815 0.082216 0.042646
C16   C     C_R   0.749165 0.886146 0.917864 0.042648
C17   C     C_R   0.828240 0.861858 0.019512 0.004877
C18   C     C_R   0.792067 0.298977 0.971228 -0.132633
C19   C     C_R   0.207408 0.300408 0.028980 -0.133029
C20   C     C_R   0.292058 0.798952 0.971235 -0.132684
C21   C     C_R   0.707414 0.800395 0.028977 -0.133047
C22   C     C_R   0.802840 0.319926 0.043449 0.081387
C23   C     C_R   0.196614 0.321136 0.956784 0.081301
C24   C     C_R   0.302829 0.819898 0.043458 0.081467
C25   C     C_R   0.272311 0.952125 0.147186 0.551711
C26   C     C_R   0.696621 0.821122 0.956780 0.081315
C27   C     C_3   0.626022 0.485103 0.050797 -0.283197
C28   C     C_3   0.374468 0.483537 0.948902 -0.283377
C29   C     C_3   0.126025 0.985117 0.050797 -0.283184
C30   C     C_3   0.874462 0.983559 0.948906 -0.283354
C31   C     C_3   0.614466 0.454491 0.972352 -0.262613
C32   C     C_3   0.386006 0.453037 0.027347 -0.262482
C33   C     C_3   0.114468 0.954507 0.972352 -0.262649
C34   C     C_3   0.886000 0.953059 0.027350 -0.262496
C35   C     C_R   0.728354 0.329397 0.937027 -0.005887
C36   C     C_R   0.227662 0.452169 0.852812 0.552375
C37   C     C_R   0.271403 0.329881 0.063005 -0.005792
C38   C     C_R   0.228350 0.829388 0.937030 -0.006200
C39   C     C_R   0.771406 0.829878 0.063004 -0.005789
C40   C     C_R   0.510387 0.171468 0.420166 0.018379
C41   C     C_R   0.519287 0.169823 0.567615 0.018424
C42   C     C_R   0.011922 0.671715 0.419368 0.019047
C43   C     C_R   0.022188 0.669724 0.566681 0.020423
C44   C     C_R   0.521639 0.279878 0.457758 0.025481
C45   C     C_R   0.525103 0.277937 0.530081 0.038908
C46   C     C_R   0.023685 0.780012 0.456911 0.028494
C47   C     C_R   0.772313 0.452129 0.147185 0.551979
C48   C     C_R   0.027769 0.777922 0.529260 0.041735
C49   C     C_R   0.522925 0.059574 0.529990 -0.161311
C50   C     C_R   0.519596 0.060469 0.455685 -0.165850
C51   C     C_R   0.026773 0.559664 0.528850 -0.153848
C52   C     C_R   0.022538 0.560866 0.454517 -0.155618
C53   C     C_R   0.530129 0.177645 0.850872 0.546150
C54   C     C_R   0.469902 0.177618 0.149146 0.545302
C55   C     C_R   0.030128 0.677645 0.850870 0.546839
C56   C     C_R   0.969902 0.677618 0.149146 0.544688
C57   C     C_3   0.480769 0.397402 0.459470 -0.269096
C58   C     C_R   0.682748 0.391766 0.051471 -0.016124
C59   C     C_3   0.485180 0.393288 0.539493 -0.280693
C60   C     C_3   0.982742 0.897242 0.459147 -0.268775
C61   C     C_3   0.987873 0.893096 0.539101 -0.277947
C62   C     C_R   0.761101 0.432823 0.428272 0.021860
C63   C     C_R   0.237320 0.440866 0.569839 0.016240
C64   C     C_R   0.250589 0.902275 0.419867 0.015784
C65   C     C_R   0.737921 0.937154 0.570392 0.019393
C66   C     C_R   0.820963 0.417784 0.471540 0.046839
C67   C     C_R   0.181594 0.390734 0.530952 0.039061
C68   C     C_R   0.299406 0.831532 0.458118 0.030949
C69   C     C_R   0.317088 0.391255 0.948450 -0.016052
C70   C     C_R   0.680783 0.893105 0.530783 0.043469
C71   C     C_R   0.816334 0.411190 0.544337 0.017018
C72   C     C_R   0.184303 0.380779 0.458390 0.026717
C73   C     C_R   0.295335 0.822244 0.530696 0.039096
C74   C     C_R   0.683303 0.884858 0.458029 0.027676
C75   C     C_R   0.691061 0.449860 0.535143 -0.164666
C76   C     C_R   0.294345 0.491180 0.457713 -0.165350
C77   C     C_R   0.186580 0.934774 0.529816 -0.160300
C78   C     C_R   0.796538 0.984995 0.458876 -0.169543
C79   C     C_R   0.696237 0.456621 0.460958 -0.174279
C80   C     C_R   0.182743 0.891768 0.051473 -0.016092
C81   C     C_R   0.291324 0.500756 0.532202 -0.160402
C82   C     C_R   0.189877 0.943043 0.455322 -0.165762
C83   C     C_R   0.794219 0.991133 0.533456 -0.165050
C84   C     C_3   0.877613 0.323754 0.468355 -0.266050
C85   C     C_3   0.145277 0.271832 0.540425 -0.281037
C86   C     C_3   0.378725 0.835747 0.461416 -0.269931
C87   C     C_3   0.640941 0.777145 0.538817 -0.278546
C88   C     C_3   0.874488 0.319217 0.548732 -0.271646
C89   C     C_3   0.148153 0.259615 0.460403 -0.270968
C90   C     C_3   0.373504 0.825283 0.541374 -0.280916
C91   C     C_R   0.817090 0.891263 0.948451 -0.015988
C92   C     C_3   0.642689 0.767807 0.458569 -0.269934
C93   C     C_R   0.750389 0.416836 0.577004 0.012964
C94   C     C_R   0.244047 0.419874 0.421199 0.015068
C95   C     C_R   0.242857 0.882136 0.568514 0.013182
C96   C     C_R   0.744305 0.919688 0.421377 0.016610
C97   C     C_R   0.723747 0.311315 0.859791 0.569648
C98   C     C_R   0.276197 0.311388 0.140161 0.569883
C99   C     C_R   0.223746 0.811314 0.859791 0.569907
C100  C     C_R   0.776197 0.811388 0.140161 0.569732
C101  C     C_R   0.726569 0.958902 0.645727 0.545064
C102  C     C_R   0.671598 0.362330 0.980374 0.004786
C103  C     C_R   0.271667 0.953560 0.351862 0.543903
C104  C     C_R   0.226192 0.460265 0.645335 0.544814
C105  C     C_R   0.772920 0.457134 0.353501 0.544470
C106  C     C_R   0.532952 0.176369 0.642713 0.546451
C107  C     C_R   0.472028 0.176815 0.353859 0.547691
C108  C     C_R   0.033968 0.676410 0.642160 0.547667
C109  C     C_R   0.972324 0.676851 0.353665 0.549761
C110  C     C_R   0.739376 0.362655 0.646440 0.561787
C111  C     C_R   0.259783 0.363870 0.352980 0.554950
C112  C     C_R   0.237876 0.856810 0.644116 0.554649
Cr1   Cr    Cr6+3 0.769260 0.163750 0.750730 1.002791
Cr2   Cr    Cr6+3 0.385810 0.322400 0.252290 1.003614
Cr3   Cr    Cr6+3 0.114190 0.822400 0.747710 1.007149
Cr4   Cr    Cr6+3 0.885810 0.822400 0.252290 1.003695
Cr5   Cr    Cr6+3 0.230740 0.163750 0.249270 1.001466
Cr6   Cr    Cr6+3 0.269260 0.663750 0.750730 1.004621
Cr7   Cr    Cr6+3 0.730740 0.663750 0.249270 1.002394
Cr8   Cr    Cr6+3 0.612640 0.009910 0.748780 1.021508
Cr9   Cr    Cr6+3 0.387360 0.009910 0.251220 1.017830
Cr10  Cr    Cr6+3 0.112640 0.509910 0.748780 1.020887
Cr11  Cr    Cr6+3 0.887360 0.509910 0.251220 1.021449
Cr12  Cr    Cr6+3 0.614190 0.322400 0.747710 1.006622
H1    H     H_    0.468166 0.987930 0.059834 0.182923
H2    H     H_    0.433081 0.379156 0.565359 0.137390
H3    H     H_    0.012210 0.974364 0.435315 0.125840
H4    H     H_    0.936103 0.878543 0.565494 0.137362
H5    H     H_    0.639570 0.460021 0.558854 0.139229
H6    H     H_    0.338505 0.531063 0.429824 0.120740
H7    H     H_    0.141712 0.972958 0.557100 0.130072
H8    H     H_    0.841699 0.021948 0.431408 0.114231
H9    H     H_    0.649596 0.476983 0.429337 0.121390
H10   H     H_    0.332036 0.551052 0.560209 0.130851
H11   H     H_    0.148285 0.989964 0.426614 0.121111
H12   H     H_    0.531348 0.987789 0.939947 0.183215
H13   H     H_    0.837371 0.033196 0.562199 0.117235
H14   H     H_    0.928144 0.359613 0.448064 0.138589
H15   H     H_    0.090583 0.281636 0.560852 0.132102
H16   H     H_    0.399842 0.924902 0.444560 0.167568
H17   H     H_    0.586835 0.790383 0.560000 0.133013
H18   H     H_    0.859235 0.238789 0.442234 0.135326
H19   H     H_    0.178708 0.204420 0.569108 0.138096
H20   H     H_    0.403491 0.755221 0.436047 0.127419
H21   H     H_    0.672609 0.705915 0.566255 0.142224
H22   H     H_    0.857259 0.229869 0.568752 0.160320
H23   H     H_    0.968171 0.487929 0.059835 0.182889
H24   H     H_    0.183729 0.185566 0.443290 0.167304
H25   H     H_    0.394896 0.738419 0.562377 0.133512
H26   H     H_    0.674536 0.689999 0.439950 0.172146
H27   H     H_    0.922639 0.356220 0.575177 0.128398
H28   H     H_    0.095128 0.261305 0.434385 0.126446
H29   H     H_    0.391626 0.908064 0.570153 0.137611
H30   H     H_    0.589610 0.776709 0.433224 0.125544
H31   H     H_    0.527839 0.248221 0.057238 0.101863
H32   H     H_    0.472538 0.248481 0.942947 0.101546
H33   H     H_    0.027835 0.748227 0.057237 0.101882
H34   H     H_    0.031345 0.487789 0.939945 0.183205
H35   H     H_    0.972539 0.748484 0.942946 0.101524
H36   H     H_    0.836689 0.267556 0.940949 0.136345
H37   H     H_    0.162654 0.269663 0.059341 0.136727
H38   H     H_    0.336679 0.767524 0.940957 0.136247
H39   H     H_    0.662660 0.769644 0.059336 0.136739
H40   H     H_    0.147172 0.076772 0.060179 0.145590
H41   H     H_    0.854005 0.075580 0.939506 0.144880
H42   H     H_    0.647163 0.576763 0.060178 0.145549
H43   H     H_    0.354020 0.575562 0.939501 0.144829
H44   H     H_    0.580656 0.459186 0.084896 0.137574
H45   H     H_    0.927482 0.886415 0.440649 0.172299
H46   H     H_    0.419552 0.456618 0.914699 0.137581
H47   H     H_    0.080656 0.959209 0.084895 0.137542
H48   H     H_    0.919549 0.956654 0.914703 0.137608
H49   H     H_    0.562060 0.412644 0.961388 0.134416
H50   H     H_    0.438154 0.410357 0.038207 0.134343
H51   H     H_    0.062061 0.912671 0.961386 0.134372
H52   H     H_    0.938151 0.910390 0.038211 0.134363
H53   H     H_    0.629583 0.528540 0.935624 0.145356
H54   H     H_    0.371489 0.527464 0.064092 0.145192
H55   H     H_    0.129592 0.028554 0.935625 0.145376
H56   H     H_    0.020533 0.967409 0.561998 0.135949
H57   H     H_    0.871477 0.027482 0.064095 0.145171
H58   H     H_    0.525584 0.973791 0.557744 0.131514
H59   H     H_    0.516808 0.975208 0.427136 0.122553
H60   H     H_    0.031041 0.473846 0.556388 0.128739
H61   H     H_    0.021089 0.476173 0.425478 0.120136
H62   H     H_    0.859043 0.218557 0.113050 0.236406
H63   H     H_    0.903078 0.244520 0.037357 0.204047
H64   H     H_    0.139793 0.220182 0.887312 0.236335
H65   H     H_    0.096100 0.246605 0.963116 0.204087
H66   H     H_    0.359017 0.718522 0.113067 0.236512
H67   H     H_    0.425489 0.387709 0.440438 0.172214
H68   H     H_    0.403059 0.744460 0.037374 0.204035
H69   H     H_    0.639809 0.720158 0.887305 0.236266
H70   H     H_    0.596111 0.746575 0.963107 0.204098
H71   H     H_    0.517748 0.467567 0.562614 0.134435
H72   H     H_    0.510741 0.474291 0.435997 0.124706
N1    N     N_3   0.869630 0.284659 0.074686 -0.603369
N2    N     N_3   0.129589 0.286454 0.925722 -0.603564
N3    N     N_3   0.369613 0.784614 0.074700 -0.603225
N4    N     N_3   0.629600 0.786428 0.925715 -0.603565
O1    O     O_R   0.784290 0.290360 0.830540 -0.525315
O2    O     O_R   0.456020 0.282110 0.333230 -0.524835
O3    O     O_R   0.043980 0.782110 0.666770 -0.518881
O4    O     O_R   0.956020 0.782110 0.333230 -0.526233
O5    O     O_R   0.679070 0.374030 0.674430 -0.504072
O6    O     O_R   0.320930 0.374030 0.325570 -0.505086
O7    O     O_R   0.179070 0.874030 0.674430 -0.502930
O8    O     O_R   0.820930 0.874030 0.325570 -0.504541
O9    O     O_3   0.665360 0.165350 0.749070 -0.268416
O10   O     O_3   0.334640 0.165350 0.250930 -0.265451
O11   O     O_3   0.165360 0.665350 0.749070 -0.270835
O12   O     O_R   0.215710 0.290360 0.169460 -0.525334
O13   O     O_3   0.834640 0.665350 0.250930 -0.266393
O14   O     O_R   0.762610 0.041070 0.825230 -0.525972
O15   O     O_R   0.237390 0.041070 0.174770 -0.526108
O16   O     O_R   0.262610 0.541070 0.825230 -0.525941
O17   O     O_R   0.737390 0.541070 0.174770 -0.525890
O18   O     O_R   0.667390 0.924160 0.829970 -0.482147
O19   O     O_R   0.332610 0.924160 0.170030 -0.481448
O20   O     O_R   0.167390 0.424160 0.829970 -0.481948
O21   O     O_R   0.832610 0.424160 0.170030 -0.481825
O22   O     O_R   0.553980 0.081420 0.821780 -0.488490
O23   O     O_R   0.284290 0.790360 0.830540 -0.524794
O24   O     O_R   0.446020 0.081420 0.178220 -0.488858
O25   O     O_R   0.053980 0.581420 0.821780 -0.487948
O26   O     O_R   0.946020 0.581420 0.178220 -0.489882
O27   O     O_R   0.543210 0.283170 0.826740 -0.529877
O28   O     O_R   0.456790 0.283170 0.173260 -0.530015
O29   O     O_R   0.043210 0.783170 0.826740 -0.529637
O30   O     O_R   0.956790 0.783170 0.173260 -0.530236
O31   O     O_R   0.678350 0.375000 0.822720 -0.496473
O32   O     O_R   0.321650 0.375000 0.177280 -0.495641
O33   O     O_R   0.178350 0.875000 0.822720 -0.495391
O34   O     O_R   0.715710 0.790360 0.169460 -0.525407
O35   O     O_R   0.821650 0.875000 0.177280 -0.495853
O36   O     O_R   0.785060 0.289300 0.670580 -0.518157
O37   O     O_R   0.214940 0.289300 0.329420 -0.517419
O38   O     O_R   0.285060 0.789300 0.670580 -0.512718
O39   O     O_R   0.714940 0.789300 0.329420 -0.518344
O40   O     O_R   0.763330 0.040090 0.676940 -0.508121
O41   O     O_R   0.236670 0.040090 0.323060 -0.509985
O42   O     O_R   0.263330 0.540090 0.676940 -0.508384
O43   O     O_R   0.736670 0.540090 0.323060 -0.509779
O44   O     O_R   0.668160 0.923110 0.670000 -0.518468
O45   O     O_R   0.554690 0.080440 0.673480 -0.506587
O46   O     O_R   0.331840 0.923110 0.330000 -0.522257
O47   O     O_R   0.168160 0.423110 0.670000 -0.518999
O48   O     O_R   0.831840 0.423110 0.330000 -0.517661
O49   O     O_R   0.445310 0.080440 0.326520 -0.509095
O50   O     O_R   0.054690 0.580440 0.673480 -0.507485
O51   O     O_R   0.945310 0.580440 0.326520 -0.503411
O52   O     O_R   0.543980 0.282110 0.666770 -0.518770

loop_
_geom_bond_atom_site_label_1
_geom_bond_atom_site_label_2
_ccdc_geom_bond_type
H65   N2    S    
C7    C10   D    
C21   C26   A    
C19   H37   S    
C21   H39   S    
Cr3   O7    S    
C4    C53   S    
C64   C103  S    
C68   C86   S    
C55   O29   A    
C22   N1    S    
C100  O34   A    
C50   H59   S    
C17   C91   A    
C15   C80   A    
C65   C101  S    
C6    C55   S    
C35   C102  A    
C32   H54   S    
C85   H19   S    
C6    H35   S    
C30   H48   S    
C86   H20   S    
C81   H10   S    
C105  O48   A    
Cr11  O26   S    
Cr2   O10   S    
C59   H2    S    
Cr11  O51   S    
Cr11  O21   S    
C23   N2    S    
C111  O37   A    
Cr10  O20   S    
C31   H53   S    
C60   H45   S    
C7    C56   S    
Cr5   O10   S    
C42   C109  S    
C85   C89   S    
C73   C90   S    
C57   H67   S    
C108  O3    A    
C95   C112  S    
C90   H25   S    
C14   C36   S    
Cr11  O48   S    
C99   O33   A    
C38   C99   S    
C57   C59   S    
C33   H55   S    
Cr12  O9    S    
C106  O52   A    
C65   C70   A    
C12   C22   A    
C94   C111  S    
C34   H57   S    
C2    C32   S    
C67   C72   A    
Cr8   O44   S    
H68   N3    S    
C74   C92   S    
C82   H11   S    
Cr5   O15   S    
C101  O44   A    
C17   C39   A    
C14   C69   A    
C78   H8    S    
C19   C37   A    
C28   H43   S    
C76   C94   A    
C76   H6    S    
C78   C83   A    
C89   H28   S    
H70   N4    S    
C20   C24   A    
C29   C33   S    
C78   C96   A    
C8    C9    S    
Cr3   O3    S    
C70   C74   A    
Cr2   O2    S    
H62   N1    S    
C3    C96   S    
C58   C102  A    
Cr1   O1    S    
C66   C84   S    
C61   H4    S    
C2    C69   A    
C26   N4    S    
C43   C48   A    
C85   H15   S    
C86   H16   S    
C10   H23   S    
C12   C58   A    
Cr6   O38   S    
C17   C34   S    
C47   O21   A    
C13   C80   A    
Cr5   O37   S    
C87   C92   S    
C101  O40   A    
Cr9   O19   S    
C29   H40   S    
C36   O20   A    
Cr1   O14   S    
C12   C47   S    
C70   C87   S    
Cr2   O32   S    
C41   C49   A    
C37   C98   S    
Cr4   O4    S    
C110  O36   A    
H66   N3    S    
C11   H34   S    
C99   O23   A    
Cr5   O12   S    
C16   C26   A    
C79   H9    S    
C46   C48   A    
C67   C85   S    
C103  O46   A    
Cr3   O29   S    
C41   C106  S    
C30   C34   S    
C57   H72   S    
C27   C31   S    
C51   C52   A    
C31   C102  S    
C74   C96   A    
C62   C79   A    
C28   C32   S    
C62   C66   A    
C34   H52   S    
C30   H41   S    
C107  O2    A    
C51   H60   S    
C86   C90   S    
C6    C11   D    
C62   C105  S    
C107  O49   A    
Cr4   O13   S    
C59   H71   S    
C68   C73   A    
C5    H31   S    
Cr10  O25   S    
C32   H50   S    
C77   C95   A    
C87   H17   S    
Cr2   O6    S    
C108  O50   A    
Cr6   O11   S    
C65   C83   A    
C14   C23   A    
C19   C23   A    
C63   C67   A    
C13   C33   S    
Cr10  O50   S    
C20   C38   A    
C5    C54   S    
Cr7   O34   S    
Cr9   O49   S    
C66   C71   A    
C21   C39   A    
C84   H18   S    
C44   C57   S    
C63   C104  S    
C104  O47   A    
C54   O28   A    
C49   H58   S    
Cr2   O28   S    
C56   O30   A    
C40   C50   A    
C1    C16   S    
Cr4   O8    S    
Cr9   O10   S    
C29   H47   S    
C90   H29   S    
H63   N1    S    
C111  O6    A    
C64   C82   A    
C13   C38   A    
C1    O18   A    
C72   C94   A    
C61   H56   S    
C40   C107  S    
C98   O32   A    
C109  O4    A    
C28   H46   S    
C15   C24   A    
C4    H32   S    
C63   C81   A    
Cr7   O13   S    
C112  O38   A    
Cr11  O13   S    
Cr8   O18   S    
C42   C46   A    
C20   H38   S    
C25   O15   A    
C25   O19   A    
Cr12  O5    S    
C75   C79   A    
Cr8   O45   S    
C3    O8    A    
Cr1   O36   S    
C64   C68   A    
C83   H13   S    
Cr12  O27   S    
C44   C45   A    
C75   C93   A    
C109  O51   A    
C18   C35   A    
Cr8   O9    S    
C72   C89   S    
C54   O24   A    
C45   C59   S    
Cr8   O22   S    
C15   C25   S    
C87   H21   S    
C46   C60   S    
Cr6   O23   S    
C18   C22   A    
C3    O39   A    
C60   H3    S    
C77   H7    S    
C84   C88   S    
C112  O7    A    
C97   O1    A    
C30   C91   S    
Cr1   O40   S    
C27   C58   S    
C76   C81   A    
C5    C8    D    
C92   H30   S    
C71   C93   A    
C28   C69   S    
C56   O26   A    
H69   N4    S    
Cr4   O30   S    
C93   C110  S    
Cr3   O11   S    
C89   H24   S    
C55   O25   A    
C49   C50   A    
C53   O22   A    
Cr1   O9    S    
Cr12  O52   S    
C41   C45   A    
C36   O16   A    
C88   H27   S    
C92   H26   S    
Cr3   O33   S    
C2    C37   A    
Cr7   O39   S    
C39   C100  S    
C97   O31   A    
C29   C80   S    
C98   O12   A    
C77   C82   A    
C43   C51   A    
C104  O42   A    
Cr4   O35   S    
C103  O41   A    
Cr9   O24   S    
C110  O5    A    
C43   C108  S    
C106  O45   A    
C33   H51   S    
C47   O17   A    
Cr12  O31   S    
C18   H36   S    
C10   C11   S    
C27   H42   S    
C84   H14   S    
C71   C88   S    
C9    H12   S    
C75   H5    S    
C8    H1    S    
C40   C44   A    
C24   N3    S    
C16   C91   A    
C31   H49   S    
C7    H33   S    
C52   H61   S    
C48   C61   S    
C1    O14   A    
Cr7   O17   S    
C73   C95   A    
Cr10  O11   S    
C60   C61   S    
C100  O35   A    
Cr6   O16   S    
C88   H22   S    
C4    C9    D    
C35   C97   S    
Cr7   O43   S    
C105  O43   A    
C53   O27   A    
Cr6   O42   S    
C27   H44   S    
C42   C52   A    
Cr9   O46   S    
H64   N2    S    
Cr10  O47   S    
Cr5   O41   S    
