data_str_m4_o4_o14_f0_acs.sym.18
_audit_creation_date              2012-12-11T15:43:04-0500
_audit_creation_method            fapswitch 2.2
_symmetry_space_group_name_H-M    P1
_symmetry_Int_Tables_number       1
_space_group_crystal_system       triclinic
_cell_length_a                    19.070063
_cell_length_b                    10.932997
_cell_length_c                    18.795057
_cell_angle_alpha                 90.162981
_cell_angle_beta                  89.837952
_cell_angle_gamma                 90.273347
_cell_volume                      3918.56074912

loop_
_atom_site_label
_atom_site_type_symbol
_atom_type_description
_atom_site_fract_x
_atom_site_fract_y
_atom_site_fract_z
_atom_type_partial_charge
C1    C     C_R   0.729931 0.375501 0.145655 0.556696
C2    C     C_R   0.021766 0.002767 0.028022 -0.139192
C3    C     C_R   0.737389 0.400084 0.582121 0.009923
C4    C     C_R   0.711159 0.331559 0.359561 0.565465
C5    C     C_R   0.269897 0.381267 0.648701 0.549452
C6    C     C_R   0.228485 0.874895 0.353917 0.535515
C7    C     C_R   0.770947 0.878353 0.647282 0.552032
C8    C     C_R   0.532253 0.156605 0.353517 0.544959
C9    C     C_R   0.467972 0.156474 0.646672 0.548076
C10   C     C_R   0.064239 0.652825 0.360673 0.560240
C11   C     C_R   0.968624 0.657124 0.647072 0.535698
C12   C     C_R   0.742285 0.969647 0.353857 0.532846
C13   C     C_R   0.532301 0.494518 0.955026 -0.130143
C14   C     C_R   0.257217 0.969518 0.646552 0.549194
C15   C     C_R   0.238675 0.480291 0.357540 0.535710
C16   C     C_R   0.756885 0.467223 0.647086 0.536097
C17   C     C_R   0.496881 0.161987 0.925558 -0.000934
C18   C     C_R   0.502633 0.168868 0.074707 -0.002266
C19   C     C_R   0.996885 0.661986 0.925556 -0.001463
C20   C     C_R   0.002638 0.668868 0.074705 -0.002700
C21   C     C_R   0.511435 0.274434 0.959850 0.012056
C22   C     C_R   0.508283 0.280251 0.035245 0.030151
C23   C     C_R   0.011441 0.774432 0.959847 0.011971
C24   C     C_R   0.521753 0.502768 0.028027 -0.139059
C25   C     C_R   0.008290 0.780250 0.035242 0.029537
C26   C     C_R   0.489528 0.059486 0.038954 -0.169220
C27   C     C_R   0.489465 0.055404 0.966106 -0.155444
C28   C     C_R   0.989533 0.559486 0.038952 -0.169104
C29   C     C_R   0.989469 0.555403 0.966104 -0.155669
C30   C     C_R   0.778746 0.843032 0.938054 0.014538
C31   C     C_R   0.246960 0.906595 0.073201 0.017650
C32   C     C_R   0.278745 0.343038 0.938055 0.014814
C33   C     C_R   0.746952 0.406585 0.073197 0.017204
C34   C     C_R   0.714642 0.817820 0.971284 0.008761
C35   C     C_R   0.277792 0.817555 0.029285 0.038914
C36   C     C_R   0.214642 0.317827 0.971284 0.008729
C37   C     C_R   0.288511 0.329276 0.861281 0.566561
C38   C     C_R   0.777787 0.317547 0.029283 0.037629
C39   C     C_R   0.704296 0.844739 0.042625 0.004917
C40   C     C_R   0.278257 0.830301 0.956148 0.007657
C41   C     C_R   0.204297 0.344742 0.042626 0.004451
C42   C     C_R   0.778254 0.330294 0.956145 0.007663
C43   C     C_R   0.825330 0.904430 0.053123 -0.156679
C44   C     C_R   0.206404 0.009739 0.968483 -0.137226
C45   C     C_R   0.325331 0.404428 0.053124 -0.157478
C46   C     C_R   0.706393 0.509722 0.968478 -0.137359
C47   C     C_R   0.835523 0.877983 0.980991 -0.157377
C48   C     C_R   0.229933 0.875505 0.145656 0.549291
C49   C     C_R   0.208652 0.000313 0.041566 -0.144353
C50   C     C_R   0.335523 0.377986 0.980991 -0.157241
C51   C     C_R   0.708640 0.500296 0.041561 -0.144074
C52   C     C_3   0.642585 0.858176 0.951684 -0.268805
C53   C     C_3   0.350555 0.767120 0.029025 -0.270598
C54   C     C_3   0.142586 0.358190 0.951685 -0.268354
C55   C     C_3   0.850551 0.267118 0.029026 -0.270620
C56   C     C_3   0.631407 0.887857 0.029718 -0.261780
C57   C     C_3   0.349919 0.778682 0.948423 -0.280445
C58   C     C_3   0.131409 0.387866 0.029719 -0.261981
C59   C     C_R   0.788511 0.829273 0.861280 0.567401
C60   C     C_3   0.849919 0.278684 0.948425 -0.279915
C61   C     C_R   0.757726 0.898336 0.083086 0.015271
C62   C     C_R   0.245917 0.930589 0.924845 0.023719
C63   C     C_R   0.257727 0.398333 0.083089 0.014244
C64   C     C_R   0.745912 0.430579 0.924841 0.023209
C65   C     C_R   0.531354 0.156318 0.146761 0.540056
C66   C     C_R   0.469012 0.155325 0.852998 0.530539
C67   C     C_R   0.031355 0.656318 0.146761 0.546218
C68   C     C_R   0.969013 0.655325 0.852997 0.532025
C69   C     C_R   0.489238 0.159425 0.573086 -0.015300
C70   C     C_R   0.527799 0.381447 0.921046 -0.096217
C71   C     C_R   0.502500 0.164736 0.424263 0.008936
C72   C     C_R   0.003411 0.661812 0.578433 -0.006786
C73   C     C_R   0.047912 0.657662 0.436090 -0.008371
C74   C     C_R   0.467864 0.060610 0.531038 0.074986
C75   C     C_R   0.472551 0.062700 0.458242 -0.003270
C76   C     C_R   0.000848 0.555429 0.537637 0.025302
C77   C     C_R   0.026428 0.550103 0.469728 0.039733
C78   C     C_R   0.517534 0.269211 0.465641 -0.118492
C79   C     C_R   0.510949 0.266934 0.539649 -0.176709
C80   C     C_R   0.054242 0.765903 0.476673 -0.127538
C81   C     C_R   0.510017 0.397236 0.067931 -0.087921
C82   C     C_R   0.033020 0.767665 0.548461 -0.155848
C83   C     C_3   0.485404 0.927869 0.536461 0.015932
C84   C     C_3   0.481940 0.924775 0.456006 -0.016023
C85   C     C_3   0.939201 0.474681 0.520353 0.007159
C86   C     C_3   0.970706 0.460248 0.446833 -0.000999
C87   C     C_R   0.754620 0.920701 0.576194 0.013162
C88   C     C_R   0.240396 0.897910 0.428743 -0.002161
C89   C     C_R   0.250219 0.436006 0.581346 0.007900
C90   C     C_R   0.719450 0.346243 0.436482 0.005238
C91   C     C_R   0.804523 0.989506 0.538628 -0.010864
C92   C     C_R   0.027807 0.881443 0.921042 -0.096029
C93   C     C_R   0.190827 0.967393 0.464084 -0.002424
C94   C     C_R   0.301887 0.498931 0.542749 -0.014554
C95   C     C_R   0.668979 0.411160 0.474076 -0.009254
C96   C     C_R   0.803089 0.994756 0.465802 0.026306
C97   C     C_R   0.188771 0.974703 0.536378 0.067990
C98   C     C_R   0.297010 0.510246 0.470508 0.024552
C99   C     C_R   0.676436 0.435100 0.545789 0.068109
C100  C     C_R   0.703175 0.861375 0.463314 -0.182659
C101  C     C_R   0.281159 0.827589 0.544735 -0.134339
C102  C     C_R   0.183009 0.416530 0.472620 -0.170282
C103  C     C_R   0.010026 0.897237 0.067927 -0.087981
C104  C     C_R   0.783143 0.318020 0.547955 -0.131644
C105  C     C_R   0.699704 0.866624 0.537776 -0.169756
C106  C     C_R   0.282687 0.819683 0.470032 -0.147109
C107  C     C_R   0.186957 0.407235 0.547035 -0.168335
C108  C     C_R   0.774580 0.292413 0.474959 -0.132033
C109  C     C_3   0.883343 0.990559 0.540244 -0.202637
C110  C     C_3   0.165894 0.094055 0.452100 -0.229657
C111  C     C_3   0.379794 0.480590 0.538544 -0.204752
C112  C     C_3   0.640994 0.535386 0.458045 -0.214289
C113  C     C_R   0.741998 0.967175 0.148030 0.545873
C114  C     C_R   0.032313 0.994514 0.955022 -0.129983
C115  C     C_R   0.258153 0.970102 0.852499 0.539255
C116  C     C_R   0.242000 0.467169 0.148034 0.547255
C117  C     C_R   0.758152 0.470100 0.852497 0.540670
C118  C     C_3   0.881490 0.997732 0.459699 -0.035930
C119  C     C_3   0.162662 0.103788 0.532701 -0.029456
C120  C     C_3   0.373992 0.495656 0.458711 -0.036278
C121  C     C_3   0.647608 0.561203 0.536460 -0.032590
C122  C     C_R   0.753814 0.928955 0.426399 0.010468
C123  C     C_R   0.240344 0.917707 0.577437 0.006077
C124  C     C_R   0.241251 0.459298 0.433458 0.007694
Cr1   Cr    Cr6+3 0.772010 0.169670 0.250090 1.003142
Cr2   Cr    Cr6+3 0.383290 0.010760 0.749160 1.000647
Cr3   Cr    Cr6+3 0.116710 0.510760 0.250840 0.995938
Cr4   Cr    Cr6+3 0.883290 0.510760 0.749160 0.998908
Cr5   Cr    Cr6+3 0.227990 0.169670 0.749910 0.994464
Cr6   Cr    Cr6+3 0.272010 0.669670 0.250090 0.996385
Cr7   Cr    Cr6+3 0.727990 0.669670 0.749910 0.989847
Cr8   Cr    Cr6+3 0.615000 0.323260 0.249260 0.999161
Cr9   Cr    Cr6+3 0.385000 0.323260 0.750740 0.998208
Cr10  Cr    Cr6+3 0.115000 0.823260 0.249260 1.006342
Cr11  Cr    Cr6+3 0.885000 0.823260 0.750740 0.995280
Cr12  Cr    Cr6+3 0.616710 0.010760 0.250840 0.990837
H1    H     H_    0.484427 0.973776 0.067277 0.129951
H2    H     H_    0.435336 0.876080 0.433978 0.153187
H3    H     H_    0.936772 0.389890 0.552762 0.169015
H4    H     H_    0.936889 0.491493 0.402217 0.173269
H5    H     H_    0.666621 0.805187 0.434260 0.149440
H6    H     H_    0.313387 0.768151 0.576494 0.148485
H7    H     H_    0.136276 0.385365 0.445777 0.165679
H8    H     H_    0.829013 0.284227 0.575189 0.122118
H9    H     H_    0.657731 0.819890 0.565360 0.125434
H10   H     H_    0.316734 0.753700 0.444868 0.133221
H11   H     H_    0.143898 0.366528 0.576279 0.131788
H12   H     H_    0.481575 0.967017 0.941574 0.136275
H13   H     H_    0.813900 0.239248 0.447647 0.129997
H14   H     H_    0.905783 0.903896 0.560560 0.181536
H15   H     H_    0.113898 0.095989 0.425474 0.172888
H16   H     H_    0.394660 0.387224 0.555243 0.186039
H17   H     H_    0.586251 0.535173 0.438166 0.155932
H18   H     H_    0.904586 0.075045 0.565390 0.115884
H19   H     H_    0.206914 0.153532 0.427895 0.108927
H20   H     H_    0.409465 0.555560 0.564871 0.116008
H21   H     H_    0.678131 0.590336 0.425370 0.131171
H22   H     H_    0.902516 0.084777 0.437991 0.142831
H23   H     H_    0.984431 0.473776 0.067274 0.130358
H24   H     H_    0.199693 0.171085 0.555979 0.163624
H25   H     H_    0.400551 0.579048 0.437909 0.144457
H26   H     H_    0.686810 0.632099 0.549657 0.159060
H27   H     H_    0.043049 0.076208 0.924419 0.104593
H28   H     H_    0.022954 0.091316 0.053940 0.100739
H29   H     H_    0.543034 0.576213 0.924424 0.103993
H30   H     H_    0.522939 0.591316 0.053945 0.100539
H31   H     H_    0.886375 0.894149 0.957568 0.153439
H32   H     H_    0.179017 0.065086 0.073270 0.139098
H33   H     H_    0.386375 0.394154 0.957568 0.153426
H34   H     H_    0.981579 0.467017 0.941573 0.136470
H35   H     H_    0.679001 0.565067 0.073263 0.139493
H36   H     H_    0.109256 0.281241 0.932660 0.123842
H37   H     H_    0.851962 0.170691 0.047357 0.156954
H38   H     H_    0.609256 0.781224 0.932661 0.123450
H39   H     H_    0.351964 0.670693 0.047357 0.157060
H40   H     H_    0.642679 0.940489 0.917034 0.155590
H41   H     H_    0.388838 0.829067 0.055425 0.123603
H42   H     H_    0.142682 0.440505 0.917036 0.155881
H43   H     H_    0.888832 0.329067 0.055428 0.124452
H44   H     H_    0.626017 0.987437 0.040178 0.167048
H45   H     H_    0.536534 0.351309 0.440688 0.165677
H46   H     H_    0.388244 0.845785 0.927418 0.152737
H47   H     H_    0.126022 0.487447 0.040180 0.166629
H48   H     H_    0.888243 0.345792 0.927423 0.153028
H49   H     H_    0.591583 0.828216 0.055717 0.128723
H50   H     H_    0.349396 0.688740 0.920663 0.151289
H51   H     H_    0.091584 0.328227 0.055717 0.128715
H52   H     H_    0.849402 0.188743 0.920663 0.151779
H53   H     H_    0.860996 0.576265 0.567685 0.258046
H54   H     H_    0.876966 0.617020 0.483914 0.217226
H55   H     H_    0.956703 0.277786 0.431409 0.217758
H56   H     H_    0.522841 0.348073 0.570477 0.167781
H57   H     H_    0.024456 0.336478 0.386446 0.249762
H58   H     H_    0.435610 0.765427 0.548270 0.198642
H59   H     H_    0.443081 0.843834 0.623192 0.251812
H60   H     H_    0.540757 0.848821 0.375737 0.259314
H61   H     H_    0.585126 0.948519 0.430760 0.275704
H62   H     H_    0.884374 0.811023 0.441190 0.230119
H63   H     H_    0.903315 0.898168 0.370130 0.251659
H64   H     H_    0.092264 0.115352 0.614528 0.247993
H65   H     H_    0.070630 0.197157 0.542751 0.242879
H66   H     H_    0.358914 0.311517 0.434112 0.236486
H67   H     H_    0.071178 0.849868 0.451813 0.172028
H68   H     H_    0.385275 0.399703 0.365087 0.254155
H69   H     H_    0.587444 0.584298 0.625715 0.252516
H70   H     H_    0.558802 0.659670 0.554211 0.227409
H71   H     H_    0.537529 0.378671 0.864360 0.133740
H72   H     H_    0.498599 0.410152 0.123712 0.132216
H73   H     H_    0.037536 0.878664 0.864356 0.134080
H74   H     H_    0.998608 0.910157 0.123707 0.133226
H75   H     H_    0.868645 0.941886 0.083243 0.130797
H76   H     H_    0.177171 0.085193 0.946749 0.146864
H77   H     H_    0.368646 0.441883 0.083245 0.130347
H78   H     H_    0.035553 0.852195 0.578508 0.153137
H79   H     H_    0.677158 0.585174 0.946745 0.146860
H80   H     H_    0.538392 0.912113 0.559531 0.135290
N1    N     N_3   0.872547 0.541339 0.517447 -0.646548
N2    N     N_3   0.999183 0.337923 0.435835 -0.675201
N3    N     N_3   0.431067 0.853615 0.569345 -0.621415
N4    N     N_3   0.547720 0.878793 0.428099 -0.670818
N5    N     N_3   0.911206 0.889649 0.424897 -0.623317
N6    N     N_3   0.090674 0.112965 0.558976 -0.640871
N7    N     N_3   0.391865 0.384130 0.419433 -0.642477
N8    N     N_3   0.579421 0.576163 0.570953 -0.658677
O1    O     O_R   0.787520 0.042810 0.170440 -0.529145
O2    O     O_R   0.454050 0.051210 0.669140 -0.514171
O3    O     O_R   0.045950 0.551210 0.330860 -0.533095
O4    O     O_R   0.954050 0.551210 0.669140 -0.520201
O5    O     O_R   0.681390 0.959480 0.325510 -0.513307
O6    O     O_R   0.318610 0.959480 0.674490 -0.484215
O7    O     O_R   0.181390 0.459480 0.325510 -0.524903
O8    O     O_R   0.818610 0.459480 0.674490 -0.506117
O9    O     O_3   0.667900 0.167900 0.250060 -0.261463
O10   O     O_3   0.332100 0.167900 0.749940 -0.261269
O11   O     O_3   0.167900 0.667900 0.250060 -0.263637
O12   O     O_R   0.212480 0.042810 0.829560 -0.539602
O13   O     O_3   0.832100 0.667900 0.749940 -0.262671
O14   O     O_R   0.765640 0.292100 0.175020 -0.494339
O15   O     O_R   0.234360 0.292100 0.824980 -0.500816
O16   O     O_R   0.265640 0.792100 0.175020 -0.497024
O17   O     O_R   0.734360 0.792100 0.824980 -0.500522
O18   O     O_R   0.670190 0.408840 0.168540 -0.517897
O19   O     O_R   0.329810 0.408840 0.831460 -0.521170
O20   O     O_R   0.170190 0.908840 0.168540 -0.520544
O21   O     O_R   0.829810 0.908840 0.831460 -0.519762
O22   O     O_R   0.556620 0.251410 0.175160 -0.508254
O23   O     O_R   0.287520 0.542810 0.170440 -0.527809
O24   O     O_R   0.443380 0.251410 0.824840 -0.525693
O25   O     O_R   0.056620 0.751410 0.175160 -0.505323
O26   O     O_R   0.943380 0.751410 0.824840 -0.524933
O27   O     O_R   0.545960 0.049620 0.170320 -0.524319
O28   O     O_R   0.454040 0.049620 0.829680 -0.528521
O29   O     O_R   0.045960 0.549620 0.170320 -0.522261
O30   O     O_R   0.954040 0.549620 0.829680 -0.524714
O31   O     O_R   0.681390 0.958010 0.176690 -0.496183
O32   O     O_R   0.318610 0.958010 0.823310 -0.504393
O33   O     O_R   0.181390 0.458010 0.176690 -0.496554
O34   O     O_R   0.712480 0.542810 0.829560 -0.539416
O35   O     O_R   0.818610 0.458010 0.823310 -0.500993
O36   O     O_R   0.787510 0.044390 0.330970 -0.532525
O37   O     O_R   0.212490 0.044390 0.669030 -0.531876
O38   O     O_R   0.287510 0.544390 0.330970 -0.527420
O39   O     O_R   0.712490 0.544390 0.669030 -0.529965
O40   O     O_R   0.765630 0.293570 0.323840 -0.503675
O41   O     O_R   0.234370 0.293570 0.676160 -0.508796
O42   O     O_R   0.265630 0.793570 0.323840 -0.512302
O43   O     O_R   0.734370 0.793570 0.676160 -0.506460
O44   O     O_R   0.670190 0.410420 0.329080 -0.524486
O45   O     O_R   0.556610 0.252880 0.323980 -0.520735
O46   O     O_R   0.329810 0.410420 0.670920 -0.520721
O47   O     O_R   0.170190 0.910420 0.329080 -0.527039
O48   O     O_R   0.829810 0.910420 0.670920 -0.521664
O49   O     O_R   0.443390 0.252880 0.676020 -0.509348
O50   O     O_R   0.056610 0.752880 0.323980 -0.496113
O51   O     O_R   0.943390 0.752880 0.676020 -0.513682
O52   O     O_R   0.545950 0.051210 0.330860 -0.532186

loop_
_geom_bond_atom_site_label_1
_geom_bond_atom_site_label_2
_ccdc_geom_bond_type
C3    C104  A    
C60   H48   S    
C71   C75   A    
C65   O22   A    
C5    O41   A    
C37   O19   A    
C87   C91   A    
C35   C53   S    
C2    C114  A    
Cr11  O21   S    
Cr12  O31   S    
C24   H30   S    
C115  O12   A    
C18   C26   A    
C100  C105  A    
Cr6   O11   S    
C72   C76   A    
C26   H1    S    
Cr8   O22   S    
C111  H16   S    
H59   N3    S    
C83   H80   S    
C36   C41   A    
C1    C33   S    
C12   O5    A    
C11   O51   A    
C66   O24   A    
C85   C86   S    
C34   C52   S    
C18   C65   S    
C98   C124  A    
Cr1   O36   S    
Cr6   O16   S    
C5    O46   A    
C101  C123  A    
C113  O31   A    
C32   C36   A    
C96   C118  S    
C7    O48   A    
Cr2   O6    S    
C9    C69   S    
C41   C58   S    
C38   C42   A    
C6    C88   S    
C95   C112  S    
C53   H39   S    
C56   H44   S    
C117  O35   A    
C10   C73   S    
C95   C99   A    
C75   C84   S    
C37   O15   A    
C80   H67   S    
Cr7   O43   S    
C20   C25   A    
C94   C98   A    
C118  H22   S    
C102  C107  A    
C94   C111  S    
C40   C62   A    
C103  H74   S    
Cr2   O28   S    
C86   N2    S    
C114  H27   S    
C89   C94   A    
C85   N1    S    
C55   H37   S    
C110  H19   S    
C20   C67   S    
C22   C81   A    
C48   O16   A    
C91   C96   A    
C82   H78   S    
C16   O39   A    
C113  O1    A    
Cr4   O30   S    
C73   C80   A    
C7    C87   S    
C38   C55   S    
C39   C56   S    
H70   N8    S    
C27   H12   S    
C8    C71   S    
C6    O42   A    
C45   H77   S    
Cr10  O11   S    
C104  H8    S    
Cr12  O27   S    
C9    O2    A    
H63   N5    S    
C59   O17   A    
C29   H34   S    
H61   N4    S    
C43   H75   S    
C111  H20   S    
C85   H3    S    
C4    C90   S    
C48   O20   A    
C93   C110  S    
C99   C121  S    
C84   N4    S    
C6    O47   A    
C84   H2    S    
Cr4   O8    S    
C18   C22   A    
C55   C60   S    
Cr5   O15   S    
C118  N5    S    
Cr3   O3    S    
Cr11  O51   S    
C92   H73   S    
Cr12  O52   S    
H65   N6    S    
C10   O50   A    
C102  C124  A    
H55   N2    S    
C57   H46   S    
H60   N4    S    
H53   N1    S    
C109  C118  S    
C68   O30   A    
Cr7   O39   S    
C67   O29   A    
C69   C74   A    
H57   N2    S    
C39   C61   A    
C66   O28   A    
C11   C72   S    
Cr9   O49   S    
C74   C75   A    
C30   C34   A    
Cr5   O12   S    
C35   C40   A    
C34   C39   A    
C17   C27   A    
C74   C83   S    
C54   H36   S    
C30   C47   A    
C90   C95   A    
H62   N5    S    
C36   C54   S    
C76   C77   A    
C49   H32   S    
C80   C82   A    
C110  H15   S    
C112  H21   S    
C2    H28   S    
Cr8   O45   S    
C53   C57   S    
C88   C106  A    
C11   O4    A    
C20   C28   A    
Cr12  O9    S    
C44   C62   A    
Cr10  O47   S    
C46   C51   A    
C16   O8    A    
C44   C49   A    
C17   C21   A    
C64   C117  S    
Cr11  O13   S    
C13   C24   A    
C46   C64   A    
C58   H47   S    
C44   H76   S    
C97   C119  S    
C19   C23   A    
C24   C81   A    
Cr4   O35   S    
C8    O45   A    
Cr4   O13   S    
C14   O37   A    
C3    C99   A    
Cr8   O44   S    
Cr7   O34   S    
C47   H31   S    
C101  H6    S    
C93   C97   A    
C13   H29   S    
C83   C84   S    
C87   C105  A    
C116  O23   A    
Cr4   O4    S    
C105  H9    S    
C30   C59   S    
C89   C107  A    
Cr3   O7    S    
C26   C27   A    
C19   C68   S    
C59   O21   A    
C8    O52   A    
C32   C37   S    
C7    O43   A    
C109  H18   S    
C28   H23   S    
Cr10  O20   S    
C57   H50   S    
Cr6   O38   S    
C120  H25   S    
C81   H72   S    
C63   C116  S    
C67   O25   A    
Cr8   O18   S    
C15   C124  S    
Cr3   O33   S    
C46   H79   S    
C120  N7    S    
C31   C48   S    
C65   O27   A    
H68   N7    S    
Cr7   O17   S    
C10   O3    A    
Cr10  O50   S    
Cr8   O9    S    
C31   C35   A    
C4    O40   A    
C69   C79   A    
C4    O44   A    
C102  H7    S    
C41   C63   A    
Cr11  O26   S    
C42   C60   S    
C19   C29   A    
H54   N1    S    
C52   H38   S    
C104  C108  A    
Cr5   O41   S    
C43   C61   A    
C54   C58   S    
C9    O49   A    
C101  C106  A    
Cr1   O14   S    
C52   H40   S    
C119  H24   S    
C28   C29   A    
C107  H11   S    
C14   C123  S    
C15   O7    A    
C58   H51   S    
Cr3   O29   S    
C55   H43   S    
H66   N7    S    
C25   C103  A    
C68   O26   A    
C43   C47   A    
C40   C57   S    
C53   H41   S    
C110  C119  S    
C77   C86   S    
C42   C64   A    
Cr6   O23   S    
C98   C120  S    
H58   N3    S    
Cr2   O2    S    
C86   H4    S    
C1    O14   A    
C33   C51   A    
C12   O36   A    
Cr12  O5    S    
Cr5   O10   S    
H69   N8    S    
Cr3   O11   S    
C33   C38   A    
C106  H10   S    
C96   C122  A    
C21   C70   A    
C112  H17   S    
C78   H45   S    
H64   N6    S    
C31   C49   A    
Cr5   O37   S    
C51   H35   S    
C109  H14   S    
C70   H71   S    
C90   C108  A    
C62   C115  S    
C97   C123  A    
C15   O38   A    
Cr9   O19   S    
C61   C113  S    
C117  O34   A    
C78   C79   A    
C91   C109  S    
Cr9   O46   S    
C45   C63   A    
C45   C50   A    
Cr7   O13   S    
C72   C82   A    
C121  H26   S    
C115  O32   A    
Cr1   O40   S    
Cr11  O48   S    
C121  N8    S    
C88   C93   A    
C79   H56   S    
C32   C50   A    
C50   H33   S    
C100  C122  A    
Cr9   O10   S    
C23   C25   A    
C17   C66   S    
Cr2   O10   S    
C2    C103  A    
C14   O6    A    
C100  H5    S    
Cr1   O9    S    
C1    O18   A    
Cr1   O1    S    
Cr9   O24   S    
C108  H13   S    
Cr6   O42   S    
C54   H42   S    
C112  C121  S    
C12   C122  S    
C56   H49   S    
C60   H52   S    
C83   N3    S    
C13   C70   A    
C116  O33   A    
C73   C77   A    
C23   C92   A    
C111  C120  S    
Cr2   O32   S    
C119  N6    S    
Cr10  O25   S    
C21   C22   A    
C92   C114  A    
C76   C85   S    
C71   C78   A    
C5    C89   S    
C3    C16   S    
C52   C56   S    
