data_str_m9_o4_o18_f0_sra.sym.7
_audit_creation_date              2012-12-11T17:02:20-0500
_audit_creation_method            fapswitch 2.2
_symmetry_space_group_name_H-M    P1
_symmetry_Int_Tables_number       1
_space_group_crystal_system       triclinic
_cell_length_a                    21.646201
_cell_length_b                    7.071606
_cell_length_c                    14.835427
_cell_angle_alpha                 90.100327
_cell_angle_beta                  105.998393
_cell_angle_gamma                 90.030076
_cell_volume                      2182.9511574

loop_
_atom_site_label
_atom_site_type_symbol
_atom_type_description
_atom_site_fract_x
_atom_site_fract_y
_atom_site_fract_z
_atom_type_partial_charge
O1    O     O_R   0.585850 0.505770 0.002130 -0.537193
O2    O     O_R   0.414150 0.005770 0.997870 -0.537106
O3    O     O_R   0.467530 0.173560 0.861970 -0.538266
O4    O     O_R   0.532470 0.673560 0.138030 -0.538135
C1    C     C_R   0.455477 0.344081 0.825299 0.683394
C2    C     C_R   0.544492 0.844524 0.174656 0.683512
O5    O     O_R   0.588690 0.175900 0.993250 -0.544846
O6    O     O_R   0.411310 0.675900 0.006750 -0.544847
O7    O     O_R   0.536170 0.007950 0.130090 -0.537311
O8    O     O_R   0.463830 0.507950 0.869910 -0.537458
C3    C     C_R   0.615066 0.344665 0.997728 0.689897
C4    C     C_R   0.384938 0.844603 0.002290 0.689390
O9    O     O_3   0.482630 0.339970 0.044740 -0.372591
O10   O     O_3   0.517370 0.839970 0.955260 -0.372760
V1    V     V_3+5 0.503220 0.064200 0.991700 1.408888
V2    V     V_3+5 0.496780 0.564200 0.008300 1.408891
C5    C     C_R   0.292382 0.010010 0.041491 0.103990
C6    C     C_R   0.707691 0.509825 0.958615 0.104608
C7    C     C_R   0.317026 0.852699 0.005426 -0.108052
C8    C     C_R   0.682982 0.352778 0.994627 -0.108841
C9    C     C_R   0.274858 0.699593 0.974000 -0.180250
C10   C     C_R   0.725071 0.199814 0.025963 -0.179857
H1    H     H_    0.291548 0.574944 0.945703 0.134185
H2    H     H_    0.708322 0.075375 0.054225 0.134680
C11   C     C_R   0.209492 0.711391 0.972260 -0.182321
C12   C     C_R   0.790431 0.211512 0.027654 -0.182588
H3    H     H_    0.178011 0.594251 0.943708 0.133990
H4    H     H_    0.821859 0.094549 0.056159 0.134295
C13   C     C_R   0.184170 0.877250 0.001287 -0.105073
C14   C     C_R   0.815824 0.377130 0.998667 -0.105935
C15   C     C_R   0.227750 0.021948 0.039546 0.107112
C16   C     C_R   0.772321 0.521673 0.960522 0.108557
C17   C     C_3   0.224979 0.227349 0.016749 -0.422440
C18   C     C_3   0.775227 0.727190 0.983476 -0.422212
C19   C     C_3   0.295498 0.214383 0.019093 -0.401410
C20   C     C_3   0.704712 0.714306 0.981180 -0.402104
H5    H     H_    0.216454 0.315470 0.074287 0.170266
H6    H     H_    0.783783 0.815002 0.925986 0.170091
H7    H     H_    0.192868 0.257256 0.945693 0.172095
H8    H     H_    0.807378 0.757423 0.054540 0.171622
H9    H     H_    0.327658 0.294888 0.078044 0.174212
H10   H     H_    0.672583 0.794552 0.922309 0.174150
H11   H     H_    0.304235 0.237196 0.949466 0.167124
H12   H     H_    0.696018 0.737469 0.050845 0.166578
C21   C     C_R   0.927786 0.884599 0.723402 -0.071391
C22   C     C_R   0.072139 0.387158 0.276746 -0.071933
C23   C     C_R   0.572865 0.852028 0.275998 -0.027576
C24   C     C_R   0.427228 0.349361 0.723838 -0.029350
C25   C     C_R   0.940553 0.899769 0.566212 0.381320
C26   C     C_R   0.060331 0.429488 0.433463 0.380558
C27   C     C_R   0.967255 0.899450 0.663825 -0.241084
C28   C     C_R   0.033373 0.420685 0.336008 -0.241017
C29   C     C_R   0.861307 0.870615 0.686822 -0.220626
C30   C     C_R   0.138243 0.362777 0.313581 -0.220788
C31   C     C_R   0.832157 0.873493 0.588941 0.025779
C32   C     C_R   0.167764 0.374962 0.411238 0.025217
C33   C     C_R   0.873088 0.887590 0.528810 0.094799
C34   C     C_R   0.127493 0.408266 0.470992 0.095610
C35   C     C_R   0.763864 0.864608 0.549123 0.081619
C36   C     C_R   0.235869 0.358154 0.451109 0.081505
C37   C     C_R   0.737530 0.869647 0.449448 0.065140
C38   C     C_R   0.262690 0.375527 0.550386 0.065107
C39   C     C_R   0.780263 0.882200 0.392931 -0.219136
C40   C     C_R   0.220565 0.407044 0.606548 -0.220241
C41   C     C_R   0.846225 0.890750 0.431780 -0.164310
C42   C     C_R   0.154766 0.422451 0.567705 -0.162742
C43   C     C_R   0.720984 0.851572 0.605651 -0.184514
C44   C     C_R   0.278100 0.325209 0.394993 -0.184780
C45   C     C_R   0.655001 0.843569 0.566661 -0.209106
C46   C     C_R   0.343905 0.309623 0.433995 -0.208872
C47   C     C_R   0.628661 0.847811 0.469931 0.138564
C48   C     C_R   0.370691 0.325488 0.530351 0.138352
C49   C     C_R   0.669287 0.861430 0.409631 0.084862
C50   C     C_R   0.330767 0.359632 0.590223 0.084688
C51   C     C_R   0.561627 0.837066 0.433028 -0.164364
C52   C     C_R   0.437404 0.304686 0.567392 -0.164389
C53   C     C_R   0.533946 0.837868 0.336533 -0.176586
C54   C     C_R   0.465370 0.314460 0.663686 -0.175158
C55   C     C_R   0.639630 0.864752 0.311750 -0.208988
C56   C     C_R   0.360855 0.373543 0.687807 -0.209881
H13   H     H_    0.876349 0.900826 0.384512 0.169866
H14   H     H_    0.125131 0.447361 0.614677 0.170131
H15   H     H_    0.666623 0.874157 0.260850 0.089574
H16   H     H_    0.334346 0.397849 0.738403 0.090953
H17   H     H_    0.482226 0.826829 0.309011 0.104929
H18   H     H_    0.516691 0.293386 0.691428 0.105641
H19   H     H_    0.624187 0.833246 0.613019 0.123449
H20   H     H_    0.374195 0.283477 0.387990 0.123637
H21   H     H_    0.018803 0.911303 0.693525 0.101539
H22   H     H_    0.982180 0.441163 0.306123 0.102254
H23   H     H_    0.834064 0.860718 0.737354 0.102955
H24   H     H_    0.165069 0.339894 0.263290 0.103824
H25   H     H_    0.764528 0.886175 0.317569 0.122399
H26   H     H_    0.236678 0.421069 0.681610 0.122566
H27   H     H_    0.736501 0.846884 0.680988 0.121714
H28   H     H_    0.262160 0.309565 0.320022 0.121857
H29   H     H_    0.530584 0.826230 0.478997 0.118216
H30   H     H_    0.467880 0.277553 0.521795 0.118358
O11   O     O_R   0.036080 0.231270 0.130120 -0.537985
O12   O     O_R   0.963920 0.731270 0.869880 -0.537903
O13   O     O_R   0.911300 0.558970 0.006750 -0.541633
O14   O     O_R   0.088700 0.058970 0.993250 -0.541694
C57   C     C_R   0.884873 0.389896 0.001951 0.688546
C58   C     C_R   0.115124 0.889960 0.998037 0.688023
O15   O     O_R   0.032450 0.561140 0.138040 -0.538496
O16   O     O_R   0.967550 0.061140 0.861960 -0.538401
O17   O     O_R   0.085870 0.728910 0.002130 -0.540977
O18   O     O_R   0.914130 0.228910 0.997870 -0.541126
C59   C     C_R   0.044593 0.392840 0.175099 0.714690
C60   C     C_R   0.955447 0.892393 0.824940 0.714845
O19   O     O_3   0.017320 0.394650 0.955270 -0.374182
O20   O     O_3   0.982680 0.894650 0.044730 -0.374283
V3    V     V_3+5 0.996780 0.670490 0.008300 1.417422
V4    V     V_3+5 0.003220 0.170490 0.991700 1.417237
O21   O     O_3   0.979305 0.913856 0.506349 -0.645500
H31   H     H_    0.024925 0.920814 0.543814 0.303027
O22   O     O_3   0.022201 0.461653 0.492963 -0.645246
H32   H     H_    0.976753 0.473976 0.455419 0.303559

loop_
_geom_bond_atom_site_label_1
_geom_bond_atom_site_label_2
_ccdc_geom_bond_type
C14   C16   A    
C39   C41   A    
O12   C60   A    
C31   C35   A    
C26   O22   S    
O13   V3    S    
C28   H22   S    
O1    C3    A    
C23   C55   A    
C56   H16   S    
C46   H20   S    
O11   V4    S    
O20   V4    S    
O5    C3    A    
C44   H28   S    
O16   V4    S    
C18   H8    S    
O15   V3    S    
C7    C9    A    
C52   C54   A    
C17   C19   S    
C21   C27   A    
O18   V4    S    
O21   H31   S    
O11   C59   A    
C22   C28   A    
C51   H29   S    
C25   C33   A    
C36   C38   A    
C24   C54   A    
C45   C47   A    
O17   V3    S    
C38   C40   A    
C35   C43   A    
C20   H10   S    
C34   C42   A    
C25   C27   A    
C14   C57   S    
C29   H23   S    
C26   C28   A    
C15   C17   S    
C57   O18   A    
C19   H11   S    
C18   C20   S    
C45   H19   S    
C48   C52   A    
C54   H18   S    
O5    V1    S    
O2    C4    A    
O6    V2    S    
C50   C56   A    
C43   H27   S    
C2    O7    A    
O20   V3    S    
C22   C59   S    
C29   C31   A    
C11   C13   A    
C1    C24   S    
C30   C32   A    
C3    C8    S    
C35   C37   A    
C2    C23   S    
C26   C34   A    
C48   C50   A    
C47   C49   A    
C21   C60   S    
C37   C49   A    
C21   C29   A    
C17   H5    S    
C32   C36   A    
C13   C58   S    
C43   C45   A    
C40   C42   A    
O4    V2    S    
C30   H24   S    
O14   V4    S    
C42   H14   S    
C41   H13   S    
O6    C4    A    
C22   C30   A    
C37   C39   A    
C49   C55   A    
O19   V3    S    
O1    V2    S    
C17   H7    S    
O14   C58   A    
O2    V1    S    
C51   C53   A    
O4    C2    A    
C25   O21   S    
C8    C10   A    
C12   C14   A    
C31   C33   A    
C5    C15   A    
C10   H2    S    
C20   H12   S    
C6    C16   A    
C23   C53   A    
O3    V1    S    
O16   C60   A    
C9    C11   A    
C18   H6    S    
O12   V3    S    
C33   C41   A    
O3    C1    A    
C11   H3    S    
C39   H25   S    
C12   H4    S    
C24   C56   A    
C9    H1    S    
O7    V1    S    
C40   H26   S    
C1    O8    A    
C13   C15   A    
O8    V2    S    
O22   H32   S    
C27   H21   S    
C47   C51   A    
C6    C20   S    
O15   C59   A    
C4    C7    S    
C5    C7    A    
C32   C34   A    
O19   V4    S    
C6    C8    A    
C19   H9    S    
C53   H17   S    
C55   H15   S    
C36   C44   A    
O13   C57   A    
C10   C12   A    
O9    V2    S    
C44   C46   A    
O10   V1    S    
C38   C50   A    
C46   C48   A    
C5    C19   S    
C52   H30   S    
C58   O17   A    
C16   C18   S    
