data_str_m9_o8_o16_f0_sra.sym.179
_audit_creation_date              2013-03-05T16:13:53-0500
_audit_creation_method            fapswitch 2.2
_symmetry_space_group_name_H-M    P1
_symmetry_Int_Tables_number       1
_space_group_crystal_system       triclinic
_cell_length_a                    20.247811
_cell_length_b                    22.72033
_cell_length_c                    6.943029
_cell_angle_alpha                 89.999897
_cell_angle_beta                  86.807915
_cell_angle_gamma                 89.999465
_cell_volume                      3189.09419181

loop_
_atom_site_label
_atom_site_type_symbol
_atom_site_description
_atom_site_fract_x
_atom_site_fract_y
_atom_site_fract_z
_atom_type_partial_charge
O1    O     O_R   0.751270 0.447300 0.600030 -0.598262
O2    O     O_R   0.248730 0.947300 0.399970 -0.598210
O3    O     O_R   0.613530 0.440160 0.952150 -0.588495
O4    O     O_R   0.386470 0.940160 0.047850 -0.589100
O5    O     O_R   0.613050 0.552700 0.122560 -0.584694
O6    O     O_R   0.386950 0.052700 0.877440 -0.586208
C1    C     C_R   0.591607 0.425364 0.787034 0.962709
C2    C     C_R   0.408409 0.925372 0.212925 0.962906
O7    O     O_R   0.750780 0.440350 0.929820 -0.600803
O8    O     O_R   0.249220 0.940350 0.070180 -0.600530
O9    O     O_R   0.751280 0.552900 0.100070 -0.597696
O10   O     O_R   0.248720 0.052900 0.899930 -0.598321
C3    C     C_R   0.773931 0.426130 0.757366 0.918339
C4    C     C_R   0.226069 0.926129 0.242634 0.918556
O11   O     O_R   0.613040 0.447100 0.622520 -0.587584
O12   O     O_R   0.386960 0.947100 0.377480 -0.587078
O13   O     O_3   0.682160 0.536920 0.777780 -0.270890
O14   O     O_3   0.317840 0.036920 0.222220 -0.271686
V1    V     V_3+5 0.682160 0.493150 0.052630 1.163242
V2    V     V_3+5 0.317840 0.993150 0.947370 1.161526
O15   O     O_R   0.750790 0.559840 0.429870 -0.599158
O16   O     O_R   0.249210 0.059840 0.570130 -0.598973
C5    C     C_R   0.773754 0.574246 0.257404 0.917715
C6    C     C_R   0.226248 0.074248 0.742596 0.917660
O17   O     O_R   0.613540 0.559650 0.452200 -0.586011
O18   O     O_R   0.386460 0.059650 0.547800 -0.585228
C7    C     C_R   0.591633 0.574432 0.287063 0.939320
C8    C     C_R   0.408356 0.074448 0.712893 0.938813
V3    V     V_3+5 0.682160 0.506850 0.552630 1.164750
V4    V     V_3+5 0.317840 0.006850 0.447370 1.164365
O19   O     O_3   0.682150 0.463080 0.277610 -0.272879
O20   O     O_3   0.317850 0.963080 0.722390 -0.272549
C9    C     C_R   0.579860 0.861332 0.147274 0.368470
C10   C     C_R   0.419410 0.362086 0.835641 0.366200
H1    H     H_    0.536121 0.947354 0.129419 0.154812
H2    H     H_    0.463236 0.448034 0.855675 0.155126
H3    H     H_    0.671847 0.775156 0.160147 0.182884
H4    H     H_    0.329332 0.274034 0.865714 0.183015
C11   C     C_R   0.463035 0.882371 0.210731 -0.151513
C12   C     C_R   0.536981 0.382385 0.788562 -0.151579
C13   C     C_R   0.472734 0.596119 0.327994 -0.147760
C14   C     C_R   0.526924 0.096475 0.663312 -0.147700
C15   C     C_R   0.418939 0.634164 0.334732 -0.064033
C16   C     C_R   0.580472 0.134768 0.650313 -0.064636
C17   C     C_R   0.427908 0.694304 0.303558 -0.193708
C18   C     C_R   0.571553 0.194867 0.682366 -0.193781
C19   C     C_R   0.491780 0.718362 0.264559 0.121739
C20   C     C_R   0.508032 0.218588 0.729840 0.121501
C21   C     C_R   0.546848 0.678755 0.256278 0.107914
C22   C     C_R   0.453262 0.178695 0.745016 0.108547
C23   C     C_R   0.502659 0.780206 0.232765 0.074567
C24   C     C_R   0.497134 0.280441 0.761536 0.074492
C25   C     C_R   0.568242 0.800738 0.186606 -0.013590
C26   C     C_R   0.431440 0.301078 0.805476 -0.013226
C27   C     C_R   0.621207 0.760733 0.184855 -0.121698
C28   C     C_R   0.379228 0.260356 0.824043 -0.128475
C29   C     C_R   0.610764 0.701135 0.218476 -0.225905
C30   C     C_R   0.389792 0.200642 0.793218 -0.230248
C31   C     C_R   0.450711 0.822475 0.245662 -0.232224
C32   C     C_R   0.549276 0.322539 0.752768 -0.232609
C33   C     C_R   0.527187 0.901234 0.161366 -0.266807
C34   C     C_R   0.472486 0.401592 0.830512 -0.266525
C35   C     C_R   0.536765 0.617447 0.288444 -0.192571
C36   C     C_R   0.463234 0.117473 0.710709 -0.192967
H5    H     H_    0.400058 0.810487 0.281685 0.106591
H6    H     H_    0.600174 0.310363 0.721952 0.106241
H7    H     H_    0.464366 0.549584 0.353596 0.128982
H8    H     H_    0.535170 0.050042 0.635402 0.127986
H9    H     H_    0.383618 0.720593 0.309931 0.118273
H10   H     H_    0.615520 0.221470 0.667545 0.118323
H11   H     H_    0.369604 0.616861 0.364575 0.138673
H12   H     H_    0.629507 0.117749 0.613497 0.138127
H13   H     H_    0.653628 0.672558 0.214498 0.114423
H14   H     H_    0.347415 0.171597 0.808481 0.117206
C37   C     C_R   0.170878 0.882633 0.260941 -0.126402
C38   C     C_R   0.829122 0.382633 0.739060 -0.126288
C39   C     C_R   0.143432 0.858704 0.096151 -0.172652
C40   C     C_R   0.856592 0.358729 0.903851 -0.172517
C41   C     C_R   0.090956 0.818432 0.113693 -0.136266
C42   C     C_R   0.909068 0.318456 0.886310 -0.135946
C43   C     C_R   0.064504 0.801001 0.297584 0.233601
C44   C     C_R   0.935494 0.300999 0.702419 0.234103
C45   C     C_R   0.092100 0.824730 0.461202 -0.155384
C46   C     C_R   0.907874 0.324703 0.538800 -0.155054
C47   C     C_R   0.144477 0.864986 0.443727 -0.164342
C48   C     C_R   0.855498 0.364961 0.556274 -0.164318
C49   C     C_R   0.908069 0.682726 0.386306 -0.130178
C50   C     C_R   0.091900 0.182695 0.613696 -0.128405
C51   C     C_R   0.855908 0.642136 0.403865 -0.164026
C52   C     C_R   0.144056 0.142100 0.596137 -0.163022
C53   C     C_R   0.934229 0.700447 0.202405 0.232220
C54   C     C_R   0.065785 0.200462 0.797597 0.234083
N1    N     N_2   0.010893 0.760236 0.325664 -0.103473
N2    N     N_2   0.989101 0.260228 0.674340 -0.103210
N3    N     N_2   0.987754 0.741302 0.174310 -0.103255
N4    N     N_2   0.012267 0.241324 0.825692 -0.103143
C55   C     C_R   0.828515 0.618154 0.239085 -0.130474
C56   C     C_R   0.171490 0.118158 0.760915 -0.128847
H15   H     H_    0.837254 0.629391 0.546991 0.133122
H16   H     H_    0.162672 0.129317 0.453010 0.132131
H17   H     H_    0.927756 0.699933 0.516684 0.115301
H18   H     H_    0.072179 0.199868 0.483319 0.114572
H19   H     H_    0.072712 0.812005 0.603670 0.110802
H20   H     H_    0.927242 0.311957 0.396332 0.110820
H21   H     H_    0.164142 0.882371 0.573961 0.133484
H22   H     H_    0.835813 0.382325 0.426040 0.133487
C57   C     C_R   0.854507 0.636200 0.056294 -0.157526
C58   C     C_R   0.145542 0.136250 0.943706 -0.160605
C59   C     C_R   0.906572 0.676773 0.038799 -0.146966
C60   C     C_R   0.093483 0.176828 0.961202 -0.147916
H23   H     H_    0.834799 0.618850 0.926074 0.134206
H24   H     H_    0.165285 0.118934 0.073925 0.134003
H25   H     H_    0.071308 0.801187 0.983309 0.114536
H26   H     H_    0.928734 0.301231 0.016695 0.114488
H27   H     H_    0.925719 0.689737 0.896325 0.110259
H28   H     H_    0.074371 0.189828 0.103676 0.110085
H29   H     H_    0.162335 0.871201 0.953026 0.131921
H30   H     H_    0.837710 0.371247 0.046975 0.131877
N5    N     N_R   0.644392 0.883065 0.087117 0.230207
O21   O     O_R   0.676977 0.859358 0.940012 -0.394182
O22   O     O_R   0.664734 0.933041 0.153637 -0.378596
N6    N     N_R   0.353617 0.385031 0.868723 0.229757
O23   O     O_R   0.308596 0.373285 0.747710 -0.385129
O24   O     O_R   0.342254 0.426353 0.996068 -0.379025

loop_
_geom_bond_atom_site_label_1
_geom_bond_atom_site_label_2
_geom_bond_distance
_ccdc_geom_bond_type
C21   C35   1.423659 A    
C49   C53   1.413386 A    
C22   C36   1.423724 A    
C25   C27   1.405306 A    
C54   N4    1.432027 S    
O4    C2    1.296339 A    
H3    C27   1.081004 S    
V1    O19   1.704904 S    
C56   C58   1.407618 A    
C19   C21   1.431494 A    
O9    V1    1.990341 S    
C45   H19   1.083000 S    
C51   H15   1.082690 S    
C6    C56   1.491662 S    
C40   H30   1.082695 S    
C38   C40   1.408644 A    
C60   H28   1.082990 S    
C39   H29   1.082696 S    
C40   C42   1.402360 A    
O12   V4    1.990327 S    
C10   C34   1.399147 A    
C12   C34   1.392202 A    
O17   V3    1.990890 S    
C17   C19   1.416213 A    
C29   H13   1.083005 S    
O7    C3    1.302025 A    
C24   C32   1.423391 A    
O5    C7    1.296609 A    
O7    V1    1.991145 S    
O6    C8    1.296947 A    
C50   C54   1.413379 A    
O8    V2    1.991158 S    
C1    C12   1.475031 S    
O3    V1    1.993788 S    
O14   V4    1.705997 S    
C2    C11   1.475199 S    
C13   C15   1.389289 A    
N5    O22   1.301312 A    
C32   H6    1.076959 S    
C10   N6    1.437034 S    
C49   H17   1.082294 S    
C14   H8    1.083883 S    
C57   C59   1.400568 A    
C48   H22   1.082708 S    
C14   C16   1.389159 A    
C47   H21   1.082716 S    
C52   H16   1.082691 S    
O18   C8    1.296175 A    
C43   C45   1.401451 A    
C24   C26   1.427257 A    
O11   V3    1.990342 S    
C18   C20   1.416370 A    
C39   C41   1.402366 A    
O15   C5    1.301992 A    
C9    C25   1.420606 A    
C11   C33   1.392409 A    
C26   C28   1.405402 A    
C17   H9    1.076328 S    
C22   C30   1.401532 A    
C13   H7    1.083882 S    
C42   C44   1.413378 A    
O8    C4    1.302027 A    
C41   C43   1.413384 A    
C19   C23   1.437411 A    
C1    O11   1.296804 A    
C16   C18   1.393608 A    
H2    C34   1.084145 S    
O15   V3    1.993761 S    
C58   H24   1.082701 S    
C51   C55   1.408584 A    
C23   C25   1.426989 A    
C55   C57   1.407622 A    
O1    C3    1.300393 A    
C43   N1    1.432019 S    
C3    C38   1.491887 S    
V3    O19   2.152929 S    
C11   C31   1.402247 A    
O10   V2    1.990323 S    
O1    V3    1.987025 S    
H1    C33   1.084192 S    
N2    N4    1.250458 D    
C20   C22   1.431577 A    
C37   C39   1.408652 A    
C7    C35   1.479271 S    
C8    C36   1.479412 S    
C9    C33   1.399043 A    
C45   C47   1.400595 A    
C50   C52   1.402299 A    
C10   C26   1.420842 A    
C44   C46   1.401446 A    
C27   C29   1.388252 A    
C46   H20   1.083000 S    
O16   C6    1.301991 A    
C23   C31   1.423436 A    
C13   C35   1.396950 A    
N6    O24   1.301336 A    
C44   N2    1.432018 S    
C14   C36   1.397018 A    
C30   H14   1.082990 S    
C37   C47   1.407680 A    
V2    O20   1.704907 S    
C15   H11   1.082716 S    
O16   V4    1.993747 S    
C5    C55   1.491672 S    
C57   H23   1.082707 S    
C42   H26   1.082297 S    
C21   C29   1.401608 A    
C50   H18   1.082288 S    
N5    O21   1.301360 A    
C58   C60   1.400568 A    
O18   V4    1.990907 S    
O5    V1    1.987145 S    
O17   C7    1.296435 A    
O6    V2    1.987166 S    
O10   C6    1.300352 A    
O3    C1    1.296524 A    
O2    V4    1.987042 S    
C4    C37   1.491899 S    
C53   C59   1.401459 A    
C41   H25   1.082301 S    
C15   C17   1.393738 A    
O13   V3    1.705999 S    
C31   H5    1.077066 S    
V4    O20   2.152926 S    
C54   C60   1.401455 A    
N1    N3    1.250469 D    
O9    C5    1.300359 A    
O13   V1    2.151870 S    
C28   C30   1.388204 A    
C16   H12   1.082742 S    
O14   V2    2.151873 S    
O2    C4    1.300399 A    
C18   H10   1.076230 S    
C59   H27   1.082990 S    
C53   N3    1.432026 S    
O4    V2    1.993773 S    
C20   C24   1.437567 A    
H4    C28   1.080924 S    
C9    N5    1.436945 S    
C2    O12   1.297069 A    
C38   C48   1.407677 A    
C12   C32   1.402043 A    
C49   C51   1.402308 A    
C46   C48   1.400593 A    
N6    O23   1.301319 A    
C52   C56   1.408577 A    
