data_str_m3_o10_o14_f0_pcu.sym.145
_audit_creation_date              2012-12-10T16:50:03-0500
_audit_creation_method            fapswitch 2.2
_symmetry_space_group_name_H-M    P1
_symmetry_Int_Tables_number       1
_space_group_crystal_system       triclinic
_cell_length_a                    7.768332
_cell_length_b                    8.571497
_cell_length_c                    10.671434
_cell_angle_alpha                 91.602459
_cell_angle_beta                  83.835176
_cell_angle_gamma                 93.954675
_cell_volume                      704.627885271

loop_
_atom_site_label
_atom_site_type_symbol
_atom_type_description
_atom_site_fract_x
_atom_site_fract_y
_atom_site_fract_z
_atom_type_partial_charge
C1    C     C_R   0.546050 0.794923 0.496822 0.952773
C2    C     C_R   0.453928 0.205073 0.503209 0.961226
C3    C     C_R   0.503011 0.511296 0.260232 0.865081
C4    C     C_R   0.162094 0.534275 0.919224 0.564912
C5    C     C_R   0.051060 0.637080 0.985293 -0.241908
C6    C     C_R   0.099390 0.716364 0.092673 -0.236683
C7    C     C_R   0.253231 0.684294 0.139598 -0.163478
C8    C     C_R   0.365709 0.579257 0.074316 0.032872
C9    C     C_3   0.089531 0.279590 0.867052 -0.325875
C10   C     C_R   0.334746 0.526253 0.953583 -0.026873
C11   C     C_R   0.479839 0.472158 0.874643 -0.127695
C12   C     C_R   0.626043 0.427461 0.925711 -0.231279
C13   C     C_R   0.635433 0.444954 0.052566 -0.219093
C14   C     C_R   0.506238 0.520873 0.126876 -0.089048
C15   C     C_2   0.570247 0.958484 0.494857 -0.384353
C16   C     C_2   0.429680 0.041510 0.505189 -0.391271
C17   C     C_R   0.494541 0.487903 0.740264 0.884192
H1    H     H_    0.732982 0.378897 0.867458 0.202815
H2    H     H_    0.025848 0.263829 0.964914 0.143672
H3    H     H_    0.222288 0.237052 0.858005 0.168151
H4    H     H_    0.012671 0.205514 0.803469 0.188785
H5    H     H_    0.985418 0.618393 0.595307 0.202949
H6    H     H_    0.924722 0.651962 0.955140 0.171929
H7    H     H_    0.013335 0.796158 0.143344 0.164963
H8    H     H_    0.284418 0.743245 0.226121 0.163151
H9    H     H_    0.744340 0.399781 0.092100 0.174433
H10   H     H_    0.702816 0.010020 0.484935 0.178300
H11   H     H_    0.297106 0.989978 0.515114 0.176926
H12   H     H_    0.014613 0.381584 0.404734 0.188366
N1    N     N_2   0.950330 0.457950 0.466250 -0.171665
N2    N     N_2   0.049670 0.542050 0.533750 -0.148020
O1    O     O_R   0.389250 0.738570 0.508280 -0.623310
O2    O     O_R   0.678390 0.711630 0.486650 -0.632995
O3    O     O_R   0.355400 0.513470 0.694050 -0.564549
O4    O     O_R   0.644540 0.486530 0.672420 -0.623251
O5    O     O_R   0.321610 0.288370 0.513350 -0.621307
O6    O     O_R   0.610750 0.261430 0.491720 -0.615756
O7    O     O_R   0.355460 0.513470 0.327580 -0.632763
O8    O     O_R   0.644600 0.486530 0.305950 -0.624114
O9    O     O_3   0.092118 0.436376 0.829492 -0.597788
Zn1   Zn    Zn3+2 0.306930 0.517990 0.514440 0.965828
Zn2   Zn    Zn3+2 0.693070 0.482010 0.485560 0.941749

loop_
_geom_bond_atom_site_label_1
_geom_bond_atom_site_label_2
_ccdc_geom_bond_type
C16   H11   S    
C17   O3    A    
O1    Zn1   S    
C6    C7    A    
C1    C15   S    
C2    C16   S    
C9    H3    S    
C15   H10   S    
C7    H8    S    
C11   C12   A    
C6    H7    S    
C3    O8    A    
C7    C8    A    
N2    Zn1   S    
C13   C14   A    
C3    C14   S    
C2    O6    A    
C9    H4    S    
O5    Zn1   S    
H12   N1    S    
O3    Zn1   S    
C5    C6    A    
O2    Zn2   S    
O8    Zn2   S    
C9    O9    S    
N1    N2    D    
C13   H9    S    
H5    N2    S    
C1    O2    A    
C15   C16   D    
C2    O5    A    
C12   C13   A    
O7    Zn1   S    
C8    C10   A    
C10   C11   A    
C12   H1    S    
O6    Zn2   S    
O4    Zn2   S    
N1    Zn2   S    
C8    C14   A    
C17   O4    A    
C4    C10   A    
C9    H2    S    
C1    O1    A    
C11   C17   S    
C4    O9    S    
C3    O7    A    
C4    C5    A    
C5    H6    S    
