data_str_m2_o5_o29_f0_pcu.sym.22
_audit_creation_date              2013-03-05T16:36:13-0500
_audit_creation_method            fapswitch 2.2
_symmetry_space_group_name_H-M    P1
_symmetry_Int_Tables_number       1
_space_group_crystal_system       triclinic
_cell_length_a                    27.720551
_cell_length_b                    9.070179
_cell_length_c                    7.795796
_cell_angle_alpha                 90.065014
_cell_angle_beta                  89.998088
_cell_angle_gamma                 90.237509
_cell_volume                      1960.08168779

loop_
_atom_site_label
_atom_site_type_symbol
_atom_site_description
_atom_site_fract_x
_atom_site_fract_y
_atom_site_fract_z
_atom_type_partial_charge
O1    O     O_R   0.500000 0.288390 0.642760 -0.577094
O2    O     O_R   0.500000 0.711610 0.357240 -0.578486
O3    O     O_R   0.500000 0.711610 0.642760 -0.577210
O4    O     O_R   0.500000 0.288390 0.357240 -0.578620
C1    C     C_R   0.500002 0.220095 0.499940 0.844195
C2    C     C_R   0.500029 0.779905 0.500058 0.844021
O5    O     O_R   0.430260 0.500000 0.642770 -0.584714
O6    O     O_R   0.569740 0.500000 0.357230 -0.582650
O7    O     O_R   0.569740 0.500000 0.642770 -0.584410
O8    O     O_R   0.430260 0.500000 0.357230 -0.583334
C3    C     C_R   0.407220 0.497272 0.499710 0.841659
C4    C     C_R   0.592771 0.502985 0.499619 0.842113
Cu1   Cu    Cu3+1 0.500000 0.500000 0.669080 0.995645
Cu2   Cu    Cu3+1 0.500000 0.500000 0.330920 0.994517
C5    C     C_R   0.175964 0.349293 0.467307 0.546999
C6    C     C_R   0.823915 0.646350 0.447993 0.515067
C7    C     C_R   0.179821 0.609145 0.421729 0.589677
C8    C     C_R   0.820025 0.385665 0.408372 0.585583
O9    O     O_2   0.198723 0.221279 0.500890 -0.554197
O10   O     O_2   0.801252 0.775245 0.477877 -0.561547
O11   O     O_2   0.206532 0.732819 0.402629 -0.539971
O12   O     O_2   0.793321 0.262123 0.387996 -0.518129
N1    N     N_R   0.201974 0.477393 0.453427 -0.427944
N2    N     N_R   0.797789 0.518076 0.436672 -0.436580
C9    C     C_R   0.275606 0.543738 0.613339 0.430749
C10   C     C_R   0.724926 0.450970 0.603169 0.427907
C11   C     C_R   0.281677 0.402118 0.347710 0.416428
C12   C     C_R   0.717368 0.597158 0.341188 0.436231
C13   C     C_R   0.326025 0.548066 0.625524 -0.321663
C14   C     C_R   0.674549 0.449238 0.619856 -0.315601
C15   C     C_R   0.332156 0.412858 0.357959 -0.348274
C16   C     C_R   0.667129 0.588759 0.356340 -0.331745
C17   C     C_R   0.253535 0.473895 0.472041 0.212545
C18   C     C_R   0.746326 0.522192 0.460645 0.203060
C19   C     C_R   0.101944 0.486069 0.423564 -0.042788
C20   C     C_R   0.898068 0.508147 0.414524 -0.048533
C21   C     C_R   0.125588 0.350857 0.449443 -0.039607
C22   C     C_R   0.874358 0.644010 0.434079 -0.027237
C23   C     C_R   0.129419 0.616376 0.409356 -0.042994
C24   C     C_R   0.870582 0.377728 0.401474 -0.066145
C25   C     C_R   0.098467 0.220946 0.460503 -0.163459
C26   C     C_R   0.901456 0.773961 0.444326 -0.147423
C27   C     C_R   0.106104 0.750726 0.382854 -0.171498
C28   C     C_R   0.894036 0.242791 0.380810 -0.148280
C29   C     C_R   0.354394 0.485274 0.496134 -0.130896
C30   C     C_R   0.645562 0.515521 0.494812 -0.142014
H1    H     H_    0.354260 0.366442 0.257248 0.165340
H2    H     H_    0.644851 0.637997 0.257827 0.172876
H3    H     H_    0.342814 0.605667 0.731863 0.176035
H4    H     H_    0.658159 0.388935 0.724809 0.178534
H5    H     H_    0.115740 0.115739 0.482460 0.179442
H6    H     H_    0.884120 0.879626 0.462246 0.180544
H7    H     H_    0.126482 0.851893 0.366408 0.181790
H8    H     H_    0.873711 0.141425 0.365345 0.183055
C31   C     C_R   0.972696 0.364016 0.403240 0.042134
C32   C     C_R   0.027410 0.629605 0.401795 0.042167
C33   C     C_R   0.976365 0.635585 0.413136 0.040408
C34   C     C_R   0.023690 0.358282 0.418947 0.041478
C35   C     C_R   0.949216 0.502608 0.409513 0.073936
C36   C     C_R   0.050848 0.491243 0.413958 0.069787
C37   C     C_R   0.944138 0.235731 0.382362 -0.203707
C38   C     C_R   0.056041 0.757554 0.379652 -0.207183
C39   C     C_R   0.951462 0.770158 0.433243 -0.210335
C40   C     C_R   0.048518 0.224214 0.444570 -0.205699
H9    H     H_    0.959628 0.128334 0.362782 0.128691
H10   H     H_    0.040688 0.864488 0.355625 0.131642
H11   H     H_    0.969857 0.874177 0.448191 0.127292
H12   H     H_    0.030073 0.120294 0.459969 0.128181
C41   C     C_1   0.500022 0.065428 0.499914 -0.179200
C42   C     C_1   0.500032 0.934572 0.500077 -0.178606
N3    N     N_1   0.500000 0.500000 0.076820 -0.051520
N4    N     N_1   0.500000 0.500000 0.923180 -0.050794
O13   O     O_3   0.258467 0.336725 0.209094 -0.634993
C43   C     C_3   0.277364 0.195610 0.172518 0.062707
H13   H     H_    0.284889 0.132156 0.292125 0.182219
H14   H     H_    0.310966 0.206843 0.095660 0.132068
C44   C     C_3   0.240476 0.109511 0.065939 -0.323750
H15   H     H_    0.206513 0.096752 0.140458 0.245365
H16   H     H_    0.232199 0.171722 0.946807 0.220058
C45   C     C_3   0.259333 0.957281 0.017113 -0.844515
H17   H     H_    0.293803 0.967164 0.945280 0.252933
H18   H     H_    0.232602 0.900775 0.933672 0.282531
H19   H     H_    0.265151 0.889491 0.133854 0.273075
O14   O     O_3   0.738693 0.659775 0.197691 -0.633768
C46   C     C_3   0.725485 0.809541 0.176742 0.105230
H20   H     H_    0.758719 0.877647 0.188989 0.210285
H21   H     H_    0.699527 0.851859 0.274451 0.141624
C47   C     C_3   0.704823 0.831858 0.996736 -0.402573
H22   H     H_    0.731816 0.796441 0.899758 0.237466
H23   H     H_    0.671885 0.762927 0.980862 0.218109
C48   C     C_3   0.692139 0.993146 0.964803 -0.829034
H24   H     H_    0.664453 0.030568 0.058032 0.248985
H25   H     H_    0.677458 0.005545 0.833095 0.263029
H26   H     H_    0.724802 0.063796 0.977068 0.271353
O15   O     O_3   0.247674 0.619188 0.731052 -0.575799
C49   C     C_3   0.242401 0.535761 0.883426 0.099755
H27   H     H_    0.257730 0.600414 0.991788 0.179924
H28   H     H_    0.261649 0.427788 0.881928 0.117609
C50   C     C_3   0.188831 0.505553 0.918577 -0.342670
H29   H     H_    0.173388 0.439001 0.812307 0.208809
H30   H     H_    0.185183 0.440227 0.038308 0.216194
C51   C     C_3   0.159811 0.647245 0.938445 -0.756573
H31   H     H_    0.174396 0.714633 0.045630 0.254666
H32   H     H_    0.121644 0.619273 0.967573 0.230945
H33   H     H_    0.160839 0.712527 0.818037 0.281619
O16   O     O_3   0.752428 0.362905 0.709864 -0.582301
C52   C     C_3   0.765357 0.439979 0.861000 0.068845
H34   H     H_    0.768165 0.356966 0.965213 0.198364
H35   H     H_    0.737451 0.520263 0.903311 0.152379
C53   C     C_3   0.814436 0.516829 0.837652 -0.358932
H36   H     H_    0.837346 0.451118 0.749747 0.239126
H37   H     H_    0.808567 0.627894 0.782524 0.223126
C54   C     C_3   0.842237 0.534496 0.004343 -0.845594
H38   H     H_    0.821841 0.604101 0.094994 0.293552
H39   H     H_    0.877444 0.588943 0.978473 0.251769
H40   H     H_    0.849253 0.424626 0.061008 0.257146

loop_
_geom_bond_atom_site_label_1
_geom_bond_atom_site_label_2
_geom_bond_distance
_ccdc_geom_bond_type
O5    Cu1   1.944088 S    
C31   C35   1.418763 A    
C12   O14   1.386382 S    
C52   H35   1.114269 S    
O13   C43   1.413744 S    
O15   C49   1.416373 S    
C20   C35   1.419472 A    
C10   O16   1.384805 S    
C13   H3    1.083434 S    
C44   H15   1.111967 S    
C11   C17   1.405207 A    
C5    O9    1.349630 S    
C7    N1    1.368580 A    
C43   H14   1.111913 S    
O1    C1    1.273499 A    
C40   H12   1.077285 S    
C19   C21   1.407681 A    
C22   C26   1.397270 A    
C7    C23   1.402292 A    
C33   C35   1.419274 A    
O16   C52   1.414727 S    
C34   C36   1.419590 A    
C49   C50   1.533659 S    
C32   C33   1.419007 A    
C51   H33   1.110700 S    
Cu2   N3    1.980911 S    
O7    Cu1   1.944072 S    
C53   H36   1.109218 S    
C5    C21   1.403533 A    
C1    C41   1.402863 S    
C27   H7    1.083283 S    
N1    C17   1.437117 S    
C43   C44   1.528988 S    
C49   H28   1.117254 S    
C52   H34   1.111256 S    
O3    Cu1   1.930509 S    
O6    C4    1.280758 A    
C54   H40   1.108453 S    
O3    C2    1.273924 A    
C44   H16   1.111686 S    
C14   H4    1.083489 S    
C12   C18   1.407124 A    
C6    N2    1.370672 A    
C15   H1    1.081872 S    
Cu1   Cu2   2.636227 S    
C34   C40   1.414141 A    
C16   H2    1.083390 S    
O2    C2    1.273482 A    
C45   H19   1.111053 S    
C10   C18   1.414970 A    
C33   C39   1.413351 A    
C53   H37   1.108301 S    
C46   H21   1.116656 S    
C9    C13   1.401265 A    
C39   H11   1.076797 S    
C43   H13   1.116419 S    
C38   H10   1.077406 S    
C11   C15   1.404566 A    
C51   H31   1.109993 S    
C20   C24   1.407999 A    
O14   C46   1.417960 S    
C45   H18   1.109522 S    
O8    Cu2   1.944074 S    
C48   H24   1.110872 S    
O4    C1    1.273908 A    
C23   C27   1.397302 A    
C46   H20   1.111119 S    
C7    O11   1.349905 S    
C32   C36   1.418831 A    
C13   C29   1.400937 A    
C19   C36   1.419366 A    
C19   C23   1.407871 A    
C37   H9    1.076881 S    
C48   H25   1.110498 S    
O5    C3    1.285377 A    
C50   H29   1.109375 S    
C47   C48   1.526693 S    
C12   C16   1.399409 A    
C6    O10   1.349529 S    
C49   H27   1.111266 S    
C51   H32   1.110508 S    
C53   C54   1.518841 S    
C4    C30   1.467811 S    
C50   H30   1.110541 S    
C47   H23   1.111296 S    
C9    O15   1.383063 S    
C52   C53   1.536982 S    
C8    N2    1.369870 A    
C3    C29   1.468220 S    
O1    Cu1   1.930046 S    
C54   H38   1.104355 S    
C46   C47   1.529680 S    
C2    C42   1.402857 S    
O6    Cu2   1.944085 S    
C8    O12   1.349644 S    
C16   C30   1.400831 A    
C14   C30   1.400987 A    
C45   H17   1.110869 S    
C10   C14   1.402556 A    
Cu1   N4    1.980911 S    
C28   C37   1.390661 A    
C20   C22   1.407147 A    
N3    N4    1.197747 T    
O4    Cu2   1.930509 S    
C48   H26   1.111146 S    
C44   C45   1.526234 S    
C31   C37   1.413867 A    
C5    N1    1.369262 A    
C32   C38   1.413973 A    
C21   C25   1.397833 A    
C41   C42   1.186888 T    
O2    Cu2   1.930046 S    
O7    C4    1.285926 A    
N2    C18   1.439393 S    
C9    C17   1.408634 A    
O8    C3    1.281472 A    
C28   H8    1.082932 S    
C24   C28   1.397404 A    
C50   C51   1.526726 S    
C8    C24   1.404633 A    
C47   H22   1.111776 S    
C15   C29   1.402440 A    
C31   C34   1.420046 A    
C6    C22   1.402752 A    
C25   C40   1.390617 A    
C11   O13   1.388855 S    
C26   C39   1.389449 A    
C25   H5    1.083189 S    
C27   C38   1.389624 A    
C26   H6    1.082820 S    
C54   H39   1.110525 S    
