data_str_m3_o5_o28_f0_pcu.sym.81
_audit_creation_date              2013-03-05T16:48:17-0500
_audit_creation_method            fapswitch 2.2
_symmetry_space_group_name_H-M    P1
_symmetry_Int_Tables_number       1
_space_group_crystal_system       triclinic
_cell_length_a                    23.573089
_cell_length_b                    9.13387
_cell_length_c                    8.064613
_cell_angle_alpha                 90.000526
_cell_angle_beta                  90.001304
_cell_angle_gamma                 89.923569
_cell_volume                      1736.41875105

loop_
_atom_site_label
_atom_site_type_symbol
_atom_site_description
_atom_site_fract_x
_atom_site_fract_y
_atom_site_fract_z
_atom_type_partial_charge
O1    O     O_R   0.500000 0.285350 0.636850 -0.590942
O2    O     O_R   0.500000 0.714650 0.363150 -0.625646
O3    O     O_R   0.500000 0.714650 0.636850 -0.590935
O4    O     O_R   0.500000 0.285350 0.363150 -0.625650
C1    C     C_R   0.500019 0.217482 0.500001 0.956925
C2    C     C_R   0.499981 0.782517 0.500002 0.956926
O5    O     O_R   0.416160 0.500000 0.636910 -0.600475
O6    O     O_R   0.583840 0.500000 0.363090 -0.637244
O7    O     O_R   0.583840 0.500000 0.636910 -0.600462
O8    O     O_R   0.416160 0.500000 0.363090 -0.637219
C3    C     C_R   0.207614 0.493134 0.520148 0.094144
C4    C     C_R   0.792386 0.506837 0.520183 0.094150
C5    C     C_R   0.388860 0.497786 0.500113 0.889694
C6    C     C_R   0.611140 0.502213 0.500116 0.889700
Zn1   Zn    Zn3+2 0.500000 0.500000 0.682780 1.067830
Zn2   Zn    Zn3+2 0.500000 0.500000 0.317220 1.024842
C7    C     C_R   0.294229 0.553838 0.371036 -0.098502
C8    C     C_R   0.705770 0.446151 0.371052 -0.098502
C9    C     C_R   0.298351 0.422570 0.638173 -0.053790
C10   C     C_R   0.701651 0.577411 0.638196 -0.053784
C11   C     C_R   0.326271 0.490729 0.502118 -0.183273
C12   C     C_R   0.673729 0.509262 0.502131 -0.183264
C13   C     C_R   0.881987 0.634203 0.530450 0.567222
C14   C     C_R   0.118015 0.365762 0.530418 0.567215
C15   C     C_R   0.880659 0.373176 0.537072 0.561705
C16   C     C_R   0.119340 0.626790 0.537029 0.561717
N1    N     N_R   0.853091 0.504666 0.529906 -0.397684
N2    N     N_R   0.146909 0.495301 0.529867 -0.397683
C17   C     C_R   0.940016 0.368582 0.532454 -0.148808
C18   C     C_R   0.059984 0.631379 0.532432 -0.148804
C19   C     C_R   0.941101 0.634412 0.544421 -0.149923
C20   C     C_R   0.058901 0.365548 0.544406 -0.149924
C21   C     C_R   0.970201 0.500715 0.539118 -0.120360
C22   C     C_R   0.029800 0.499244 0.539110 -0.120362
C23   C     C_R   0.969993 0.236424 0.523394 0.417417
C24   C     C_R   0.030006 0.763535 0.523372 0.417460
C25   C     C_R   0.971872 0.764348 0.559401 0.420076
C26   C     C_R   0.028131 0.235610 0.559388 0.420032
C27   C     C_1   0.500005 0.064729 0.500014 -0.131643
C28   C     C_1   0.499995 0.935271 0.500015 -0.131647
C29   C     C_R   0.234514 0.548745 0.377307 0.006870
C30   C     C_R   0.765486 0.451224 0.377340 0.006861
C31   C     C_R   0.239040 0.433713 0.652579 -0.020747
C32   C     C_R   0.760962 0.566265 0.652610 -0.020757
N3    N     N_1   0.500000 0.500000 0.073640 -0.022679
N4    N     N_1   0.500000 0.500000 0.926360 -0.016403
O9    O     O_2   0.853561 0.761625 0.512482 -0.412764
O10   O     O_2   0.146442 0.238344 0.512437 -0.412770
O11   O     O_2   0.850542 0.248319 0.552224 -0.417898
O12   O     O_2   0.149457 0.751651 0.552157 -0.417905
Cl1   Cl    Cl    0.942765 0.098670 0.392703 -0.371695
Cl2   Cl    Cl    0.057214 0.901239 0.392585 -0.371728
Cl3   Cl    Cl    0.945205 0.896752 0.698148 -0.373356
Cl4   Cl    Cl    0.054817 0.103155 0.698039 -0.373331
C33   C     C_2   0.198524 0.603689 0.238561 0.560751
H1    H     H_    0.159698 0.546432 0.206673 0.043377
O13   O     O_2   0.210007 0.716695 0.165058 -0.465910
C34   C     C_2   0.801473 0.396246 0.238612 0.560779
H2    H     H_    0.840299 0.453499 0.206711 0.043348
O14   O     O_2   0.789992 0.283207 0.165155 -0.465851
C35   C     C_2   0.208086 0.384631 0.804239 0.498280
H3    H     H_    0.170397 0.443302 0.844061 0.072729
O15   O     O_2   0.222364 0.275690 0.881422 -0.508525
C36   C     C_2   0.791918 0.615346 0.804273 0.498293
H4    H     H_    0.829605 0.556675 0.844098 0.072736
O16   O     O_2   0.777643 0.724285 0.881456 -0.508526
C37   C     C_2   0.323196 0.626762 0.229628 0.556572
H5    H     H_    0.356080 0.707226 0.253012 0.066838
O17   O     O_2   0.311862 0.594191 0.086609 -0.574681
C38   C     C_2   0.676803 0.373242 0.229626 0.556489
H6    H     H_    0.643904 0.292815 0.252991 0.066868
O18   O     O_2   0.688157 0.405777 0.086610 -0.574690
C39   C     C_2   0.330586 0.337192 0.763977 0.570988
H7    H     H_    0.323508 0.355244 0.895196 0.126096
O19   O     O_2   0.364232 0.242714 0.721101 -0.552628
C40   C     C_2   0.669419 0.662786 0.764004 0.570975
H8    H     H_    0.676502 0.644742 0.895222 0.126092
O20   O     O_2   0.635768 0.757255 0.721133 -0.552626

loop_
_geom_bond_atom_site_label_1
_geom_bond_atom_site_label_2
_geom_bond_distance
_ccdc_geom_bond_type
C8    C38   1.487202 S    
C33   H1    1.085631 S    
C39   H7    1.083882 S    
O3    C2    1.265804 A    
C30   C34   1.490781 S    
N3    N4    1.187755 T    
C32   C36   1.493416 S    
O1    C1    1.265802 A    
C24   C25   1.400888 A    
C9    C11   1.423307 A    
C40   O20   1.221260 D    
C16   O12   1.349706 S    
C34   O14   1.221044 D    
C17   C21   1.402877 A    
C10   C40   1.487702 S    
C35   O15   1.220640 D    
C29   C33   1.490782 S    
C4    C30   1.409969 A    
C8    C30   1.409408 A    
C19   C21   1.400503 A    
C3    C31   1.408160 A    
C38   H6    1.085406 S    
O1    Zn1   1.995265 S    
C20   C26   1.397006 A    
O2    Zn2   1.995264 S    
C24   Cl2   1.762960 S    
C25   Cl3   1.762870 S    
O5    Zn1   2.010684 S    
O6    Zn2   2.010682 S    
C39   O19   1.221267 D    
O2    C2    1.265829 A    
C10   C32   1.406519 A    
C9    C31   1.406519 A    
C7    C29   1.409413 A    
C15   C17   1.400290 A    
C7    C37   1.487185 S    
C13   O9    1.349994 S    
C18   C22   1.402878 A    
C4    N1    1.433258 S    
C37   H5    1.085410 S    
C14   O10   1.349989 S    
C9    C39   1.487715 S    
C23   C26   1.400892 A    
C40   H8    1.083878 S    
C27   C28   1.182447 T    
C13   C19   1.398060 A    
C34   H2    1.085650 S    
C7    C11   1.420960 A    
C19   C25   1.396990 A    
C37   O17   1.220823 D    
C36   O16   1.220606 D    
O4    Zn2   1.995272 S    
O7    C6    1.277360 A    
C14   C20   1.398070 A    
C26   Cl4   1.762858 S    
C21   C22   1.404981 A    
C5    C11   1.476996 S    
C10   C12   1.423315 A    
C16   C18   1.400278 A    
C13   N1    1.366027 A    
C33   O13   1.220991 D    
C23   Cl1   1.762961 S    
C2    C28   1.395235 S    
O3    Zn1   1.995271 S    
C31   C35   1.493408 S    
O6    C6    1.278958 A    
C8    C12   1.420955 A    
C14   N2    1.366031 A    
O4    C1    1.265832 A    
O8    C5    1.278958 A    
Zn2   N3    1.964378 S    
C15   N1    1.366025 A    
C17   C23   1.399834 A    
C16   N2    1.366018 A    
C18   C24   1.399825 A    
C36   H4    1.085512 S    
C6    C12   1.477002 S    
C1    C27   1.395235 S    
O7    Zn1   2.010698 S    
C4    C32   1.408151 A    
O8    Zn2   2.010700 S    
C3    N2    1.433259 S    
C3    C29   1.409965 A    
C35   H3    1.085543 S    
C15   O11   1.349708 S    
O5    C5    1.277358 A    
C38   O18   1.220843 D    
Zn1   N4    1.964378 S    
C20   C22   1.400504 A    
