data_str_m3_o10_o16_f0_pcu.sym.95
_audit_creation_date              2012-12-10T16:51:33-0500
_audit_creation_method            fapswitch 2.2
_symmetry_space_group_name_H-M    P1
_symmetry_Int_Tables_number       1
_space_group_crystal_system       triclinic
_cell_length_a                    7.862098
_cell_length_b                    8.562392
_cell_length_c                    12.078076
_cell_angle_alpha                 92.697922
_cell_angle_beta                  101.194032
_cell_angle_gamma                 94.045819
_cell_volume                      794.08456542

loop_
_atom_site_label
_atom_site_type_symbol
_atom_type_description
_atom_site_fract_x
_atom_site_fract_y
_atom_site_fract_z
_atom_type_partial_charge
C1    C     C_R   0.044431 0.794547 0.497418 0.958899
C2    C     C_R   0.159071 0.503123 0.832457 -0.115777
C3    C     C_2   0.067445 0.958254 0.495978 -0.391396
C4    C     C_R   0.105859 0.503503 0.710333 0.846077
C5    C     C_2   0.932790 0.041800 0.505008 -0.378933
C6    C     C_R   0.955669 0.205461 0.502889 0.959376
C7    C     C_R   0.892505 0.488200 0.289625 0.871060
C8    C     C_R   0.809160 0.287118 0.001408 -0.186133
C9    C     C_R   0.829879 0.456836 0.169505 -0.065150
C10   C     C_R   0.073896 0.593767 0.901142 -0.179123
C11   C     C_R   0.145644 0.623804 0.015100 -0.142020
C12   C     C_R   0.396409 0.482972 0.990211 0.085635
C13   C     C_R   0.307208 0.572043 0.059389 -0.171899
C14   C     C_2   0.471663 0.320298 0.412485 1.132642
C15   C     C_R   0.310339 0.432418 0.879911 0.066616
C16   C     C_R   0.568517 0.442999 0.026524 0.095032
C17   C     C_R   0.640891 0.332075 0.961719 0.154102
C18   C     C_R   0.542907 0.265879 0.859692 -0.231880
C19   C     C_R   0.379511 0.315662 0.818898 -0.190280
C20   C     C_R   0.671871 0.513133 0.124996 -0.212419
C21   C     C_R   0.902045 0.346469 0.106996 -0.179005
H1    H     H_    0.025322 0.301479 0.141661 0.172471
H2    H     H_    0.307062 0.260724 0.739591 0.177303
H3    H     H_    0.194266 0.009361 0.487269 0.212847
H4    H     H_    0.505662 0.089359 0.416148 0.312478
H5    H     H_    0.805961 0.990589 0.513936 0.191043
H6    H     H_    0.529978 0.634343 0.576376 0.184324
H7    H     H_    0.593724 0.177814 0.810417 0.159053
H8    H     H_    0.865217 0.201491 0.953292 0.139889
H9    H     H_    0.628351 0.607224 0.172423 0.142366
H10   H     H_    0.955140 0.645853 0.865978 0.158608
H11   H     H_    0.357172 0.599981 0.148331 0.154584
H12   H     H_    0.079053 0.692413 0.068404 0.145704
N1    N     N_2   0.434800 0.456690 0.470850 -0.157072
N2    N     N_2   0.565200 0.543310 0.529150 -0.203521
O1    O     O_R   0.893060 0.738880 0.507150 -0.617897
O2    O     O_R   0.487471 0.180863 0.467807 -0.834279
O3    O     O_R   0.172250 0.711130 0.488470 -0.629722
O4    O     O_R   0.944700 0.520730 0.667600 -0.614517
O5    O     O_R   0.223890 0.492980 0.648920 -0.621277
O6    O     O_R   0.827750 0.288870 0.511530 -0.602914
O7    O     O_R   0.106940 0.261120 0.492850 -0.618169
O8    O     O_R   0.776110 0.507020 0.351080 -0.595148
O9    O     O_R   0.055300 0.479270 0.332400 -0.628214
O10   O     O_2   0.472908 0.321163 0.311528 -0.671492
Zn1   Zn    Zn3+2 0.813580 0.518530 0.512470 0.963731
Zn2   Zn    Zn3+2 0.186420 0.481470 0.487530 0.954396

loop_
_geom_bond_atom_site_label_1
_geom_bond_atom_site_label_2
_ccdc_geom_bond_type
C14   N1    S    
O5    Zn2   S    
C2    C4    S    
O6    Zn1   S    
C4    O4    A    
O1    Zn1   S    
C7    O8    A    
C14   O10   D    
C13   H11   S    
C19   H2    S    
C8    C17   A    
O9    Zn2   S    
C16   C20   A    
H6    N2    S    
C3    C5    D    
C8    C21   A    
C3    H3    S    
C20   H9    S    
C7    O9    A    
C14   O2    S    
C15   C19   A    
C2    C15   A    
C11   C13   A    
C9    C21   A    
O3    Zn2   S    
C1    O3    A    
O4    Zn1   S    
C8    H8    S    
C17   C18   A    
C12   C15   A    
O7    Zn2   S    
C5    C6    S    
N1    N2    D    
O8    Zn1   S    
C10   C11   A    
C5    H5    S    
C2    C10   A    
C12   C16   A    
C11   H12   S    
C18   H7    S    
C12   C13   A    
C18   C19   A    
C6    O7    A    
C7    C9    S    
N1    Zn2   S    
C9    C20   A    
H4    O2    S    
C21   H1    S    
N2    Zn1   S    
C10   H10   S    
C4    O5    A    
C1    O1    A    
C16   C17   A    
C1    C3    S    
C6    O6    A    
