data_str_m2_o11_o29_f0_pcu.sym.25
_audit_creation_date              2012-10-26T21:23:28-0400
_audit_creation_method            fapswitch 2.2
_symmetry_space_group_name_H-M    P1
_symmetry_Int_Tables_number       1
_space_group_crystal_system       triclinic
_cell_length_a                    27.738498
_cell_length_b                    11.053908
_cell_length_c                    9.708608
_cell_angle_alpha                 89.623059
_cell_angle_beta                  88.946459
_cell_angle_gamma                 91.15625
_cell_volume                      2975.66059617

loop_
_atom_site_label
_atom_site_type_symbol
_atom_type_description
_atom_site_fract_x
_atom_site_fract_y
_atom_site_fract_z
_atom_type_partial_charge
C1    C     C_R   0.500194 0.265024 0.500400 0.584530
C2    C     C_R   0.971935 0.397276 0.594601 -0.009682
C3    C     C_R   0.974770 0.617332 0.556309 -0.001030
C4    C     C_R   0.407608 0.497798 0.501256 0.623892
C5    C     C_R   0.948359 0.506599 0.563333 -0.040896
C6    C     C_R   0.941807 0.296522 0.633979 0.276012
C7    C     C_R   0.892299 0.293455 0.602850 0.250028
C8    C     C_R   0.869579 0.400305 0.563128 -0.011217
C9    C     C_R   0.897499 0.507382 0.547427 -0.091795
C10   C     C_R   0.874379 0.616737 0.518756 0.017882
C11   C     C_R   0.824748 0.615982 0.494311 0.418559
C12   C     C_R   0.276296 0.410735 0.451942 0.001181
C13   C     C_R   0.819064 0.405530 0.547023 0.461458
C14   C     C_R   0.722086 0.453906 0.389641 0.046549
C15   C     C_R   0.671496 0.450844 0.392259 -0.222449
C16   C     C_R   0.499033 0.733998 0.499916 0.537427
C17   C     C_R   0.670244 0.578051 0.595635 0.240622
C18   C     C_R   0.720403 0.575088 0.598388 -0.067639
C19   C     C_R   0.746665 0.514452 0.496527 0.204908
C20   C     C_R   0.023922 0.396578 0.595402 -0.005319
C21   C     C_R   0.050241 0.507128 0.572298 -0.032362
C22   C     C_R   0.025733 0.615608 0.546276 0.007025
C23   C     C_R   0.253666 0.503393 0.528538 0.155786
C24   C     C_R   0.051180 0.288755 0.602173 0.265694
C25   C     C_R   0.102695 0.720628 0.495314 0.011319
C26   C     C_R   0.948674 0.726311 0.564827 0.001526
C27   C     C_R   0.900113 0.725703 0.529514 -0.077966
C28   C     C_R   0.592444 0.502073 0.498821 0.555986
C29   C     C_R   0.052531 0.718335 0.500272 -0.174582
C30   C     C_2   0.501581 0.933348 0.391665 -0.161157
C31   C     C_2   0.492663 0.863549 0.502110 -0.097761
C32   C     C_2   0.490271 0.062447 0.395317 -0.001702
C33   C     C_2   0.505486 0.132603 0.501963 0.251663
C34   C     C_R   0.101549 0.508402 0.567074 -0.113587
C35   C     C_2   0.466344 0.446772 0.925001 0.351706
C36   C     C_2   0.471397 0.432200 0.079477 -0.029744
C37   C     C_R   0.177647 0.409945 0.604665 0.460244
C38   C     C_R   0.177826 0.604178 0.498285 0.486995
C39   C     C_R   0.282066 0.594927 0.589132 0.256836
C40   C     C_R   0.331931 0.600190 0.562490 0.182019
C41   C     C_R   0.326976 0.401517 0.456635 0.132092
C42   C     C_3   0.342546 0.201073 0.497648 0.012396
C43   C     C_3   0.371425 0.216131 0.629920 -0.242216
C44   C     C_3   0.376451 0.096614 0.707095 -0.485180
C45   C     C_R   0.126821 0.403776 0.602927 0.004778
C46   C     C_3   0.261919 0.652896 0.805517 0.016335
C47   C     C_3   0.240173 0.753861 0.891870 -0.259872
C48   C     C_3   0.241910 0.724173 0.045576 -0.473235
C49   C     C_2   0.126980 0.839603 0.470937 0.268622
C50   C     C_2   0.967762 0.832396 0.640818 0.170435
C51   C     C_3   0.631624 0.756408 0.633240 0.022605
C52   C     C_3   0.672810 0.851315 0.633189 -0.288009
C53   C     C_3   0.656795 0.971602 0.573332 -0.455820
C54   C     C_2   0.459962 0.103696 0.280177 0.166417
C55   C     C_2   0.248637 0.326941 0.361743 0.278115
C56   C     C_R   0.101366 0.294079 0.625450 0.256471
C57   C     C_3   0.518032 0.088784 0.734113 -0.000420
C58   C     C_3   0.553699 0.156285 0.826304 -0.239742
C59   C     C_3   0.535808 0.156700 0.975853 -0.472570
C60   C     C_3   0.383379 0.444460 0.912572 -0.004189
C61   C     C_3   0.353339 0.351542 0.997332 -0.291461
C62   C     C_3   0.300821 0.388612 0.011130 -0.467399
C63   C     C_3   0.111882 0.123935 0.760526 0.056412
C64   C     C_3   0.156110 0.074937 0.832319 -0.236647
C65   C     C_3   0.141658 0.997623 0.957755 -0.500896
C66   C     C_2   0.747413 0.393398 0.273914 0.263337
C67   C     C_R   0.127751 0.613516 0.523012 0.035986
C68   C     C_3   0.875395 0.101894 0.524749 0.054270
C69   C     C_3   0.849722 0.127918 0.389240 -0.279245
C70   C     C_3   0.860518 0.031283 0.282033 -0.486471
C71   C     C_3   0.944999 0.216792 0.852047 0.055751
C72   C     C_3   0.983578 0.164303 0.944094 -0.257318
C73   C     C_3   0.996360 0.035631 0.901985 -0.373653
C74   C     C_3   0.046388 0.143578 0.435465 0.028502
C75   C     C_3   0.006032 0.071286 0.368039 -0.274445
C76   C     C_3   0.023857 0.008057 0.239181 -0.507405
C77   C     C_3   0.348150 0.796230 0.495616 0.019180
C78   C     C_R   0.354717 0.499495 0.506035 -0.035909
C79   C     C_3   0.367515 0.770015 0.349370 -0.285680
C80   C     C_3   0.357431 0.873891 0.250557 -0.492090
C81   C     C_R   0.645387 0.509994 0.496084 -0.004209
Cu1   Cu    Cu3+1 0.500010 0.500020 0.638630 1.006317
Cu2   Cu    Cu3+1 0.499990 0.499980 0.361370 0.957746
H1    H     H_    0.881158 0.810134 0.525085 0.170407
H2    H     H_    0.354629 0.118698 0.443538 0.176306
H3    H     H_    0.303782 0.184650 0.524615 0.126935
H4    H     H_    0.407897 0.252920 0.604468 0.215327
H5    H     H_    0.352693 0.281103 0.697738 0.160357
H6    H     H_    0.340622 0.051762 0.724237 0.157218
H7    H     H_    0.393118 0.113254 0.808423 0.152593
H8    H     H_    0.400511 0.036369 0.647764 0.132782
H9    H     H_    0.299802 0.639901 0.838342 0.135197
H10   H     H_    0.240338 0.568159 0.824957 0.134224
H11   H     H_    0.260569 0.839894 0.871245 0.177532
H12   H     H_    0.739279 0.622166 0.679456 0.144934
H13   H     H_    0.202062 0.766471 0.862267 0.187924
H14   H     H_    0.220990 0.639539 0.069047 0.178748
H15   H     H_    0.226034 0.798979 0.105887 0.170329
H16   H     H_    0.279811 0.713009 0.077668 0.147180
H17   H     H_    0.114376 0.899715 0.391754 0.079902
H18   H     H_    0.002439 0.829241 0.690309 0.109700
H19   H     H_    0.601156 0.790822 0.696648 0.166713
H20   H     H_    0.617599 0.745095 0.527033 0.124270
H21   H     H_    0.685053 0.865368 0.740369 0.179767
H22   H     H_    0.703766 0.819426 0.570087 0.191696
H23   H     H_    0.034538 0.798855 0.466705 0.093593
H24   H     H_    0.645104 0.959774 0.465332 0.164037
H25   H     H_    0.687283 0.038240 0.574431 0.172394
H26   H     H_    0.626525 0.007455 0.635702 0.190386
H27   H     H_    0.461101 0.055740 0.183045 0.091066
H28   H     H_    0.265406 0.246944 0.320167 0.123102
H29   H     H_    0.514145 0.994748 0.774322 0.132372
H30   H     H_    0.481669 0.129423 0.743341 0.143764
H31   H     H_    0.589201 0.111725 0.821509 0.157548
H32   H     H_    0.559046 0.251064 0.790006 0.205840
H33   H     H_    0.499340 0.195909 0.983293 0.164371
H34   H     H_    0.513021 0.893859 0.294471 0.120471
H35   H     H_    0.560844 0.211873 0.038956 0.157587
H36   H     H_    0.534260 0.062955 0.017839 0.131393
H37   H     H_    0.362614 0.471055 0.820930 0.158572
H38   H     H_    0.388399 0.529031 0.973625 0.114958
H39   H     H_    0.354515 0.261673 0.947482 0.177372
H40   H     H_    0.368240 0.342474 0.102022 0.204353
H41   H     H_    0.298318 0.477573 0.063014 0.150867
H42   H     H_    0.280282 0.319843 0.073264 0.174103
H43   H     H_    0.284353 0.393815 0.907931 0.149081
H44   H     H_    0.088587 0.046410 0.729248 0.163765
H45   H     H_    0.477563 0.901437 0.595545 0.118315
H46   H     H_    0.091766 0.180194 0.836347 0.107848
H47   H     H_    0.177409 0.019468 0.759199 0.227104
H48   H     H_    0.179319 0.151882 0.866163 0.196319
H49   H     H_    0.120864 0.051835 0.033233 0.149986
H50   H     H_    0.174544 0.964993 0.008375 0.153305
H51   H     H_    0.119476 0.918088 0.926165 0.151843
H52   H     H_    0.727113 0.335975 0.204554 0.094706
H53   H     H_    0.861899 0.013078 0.564690 0.193552
H54   H     H_    0.914701 0.093442 0.505249 0.184402
H55   H     H_    0.810141 0.129443 0.408415 0.222970
H56   H     H_    0.530546 0.528791 0.892767 0.177752
H57   H     H_    0.861850 0.217332 0.347045 0.183782
H58   H     H_    0.899852 0.028642 0.259145 0.137585
H59   H     H_    0.841626 0.052560 0.185257 0.172617
H60   H     H_    0.847765 0.940936 0.319872 0.189713
H61   H     H_    0.910390 0.166402 0.871013 0.185303
H62   H     H_    0.940141 0.313133 0.882636 0.091226
H63   H     H_    0.016428 0.223227 0.937146 0.143652
H64   H     H_    0.970258 0.164095 0.052701 0.111831
H65   H     H_    0.965165 0.973004 0.921768 0.179995
H66   H     H_    0.027762 0.003489 0.959169 0.091309
H67   H     H_    0.448674 0.365430 0.131863 0.197211
H68   H     H_    0.007134 0.033244 0.791895 0.245074
H69   H     H_    0.078414 0.085937 0.446059 0.179632
H70   H     H_    0.056185 0.221877 0.366223 0.125024
H71   H     H_    0.991216 0.002012 0.440783 0.212544
H72   H     H_    0.976866 0.133901 0.340184 0.148938
H73   H     H_    0.043204 0.074415 0.170920 0.150789
H74   H     H_    0.992542 0.967380 0.185611 0.155921
H75   H     H_    0.048556 0.934360 0.265270 0.136946
H76   H     H_    0.365868 0.880617 0.531168 0.136377
H77   H     H_    0.308872 0.814684 0.493424 0.202225
H78   H     H_    0.518124 0.568397 0.104358 0.198329
H79   H     H_    0.406978 0.756169 0.352376 0.191537
H80   H     H_    0.350027 0.686741 0.308518 0.159790
H81   H     H_    0.317994 0.888052 0.244241 0.162155
H82   H     H_    0.371697 0.852241 0.146173 0.147970
H83   H     H_    0.375302 0.958386 0.285842 0.166729
H84   H     H_    0.652286 0.401571 0.313372 0.121130
N1    N     N_R   0.201922 0.506160 0.545277 -0.360285
N2    N     N_R   0.798220 0.511103 0.508015 -0.361337
N3    N     N_2   0.499480 0.498660 0.846910 -0.324893
N4    N     N_2   0.499460 0.498630 0.153040 -0.384161
O1    O     O_R   0.500010 0.321960 0.617040 -0.507533
O2    O     O_R   0.569740 0.500000 0.617090 -0.470809
O3    O     O_R   0.569730 0.499960 0.382940 -0.509796
O4    O     O_2   0.202821 0.319626 0.661134 -0.486259
O5    O     O_3   0.350096 0.300694 0.405957 -0.545782
O6    O     O_3   0.260543 0.685304 0.664857 -0.516740
O7    O     O_2   0.159897 0.873740 0.543840 -0.466169
O8    O     O_2   0.943707 0.922571 0.655919 -0.548520
O9    O     O_3   0.646094 0.645937 0.693356 -0.560038
O10   O     O_2   0.431030 0.184301 0.294587 -0.504386
O11   O     O_2   0.207710 0.348954 0.326420 -0.508423
O12   O     O_2   0.790612 0.307306 0.572795 -0.460044
O13   O     O_3   0.536814 0.083511 0.597324 -0.608215
O14   O     O_3   0.426830 0.392571 0.863632 -0.549103
O15   O     O_3   0.127035 0.188336 0.640492 -0.512483
O16   O     O_2   0.790583 0.408690 0.251971 -0.498925
O17   O     O_3   0.865049 0.188722 0.627103 -0.515324
O18   O     O_3   0.959434 0.203750 0.712609 -0.486553
O19   O     O_3   0.030398 0.178646 0.568013 -0.529576
O20   O     O_3   0.358976 0.703373 0.591376 -0.562343
O21   O     O_2   0.202133 0.689235 0.422969 -0.450751
O22   O     O_2   0.802946 0.719604 0.459437 -0.531832
O23   O     O_R   0.499990 0.321920 0.382900 -0.464997
O24   O     O_R   0.430270 0.500040 0.617060 -0.450688
O25   O     O_R   0.430260 0.500000 0.382910 -0.478238
O26   O     O_R   0.500010 0.678080 0.617100 -0.496009
O27   O     O_R   0.499990 0.678040 0.382960 -0.516902

loop_
_geom_bond_atom_site_label_1
_geom_bond_atom_site_label_2
_ccdc_geom_bond_type
C10   C27   A    
C4    O24   A    
Cu1   N3    S    
C60   O14   S    
C22   C29   A    
C35   C36   S    
C75   H71   S    
C43   C44   S    
C28   O3    A    
C62   H41   S    
C1    C33   S    
C7    C8    A    
C15   C81   A    
C16   C31   S    
C38   N1    A    
C48   H14   S    
C40   O20   S    
C12   C23   A    
C76   H75   S    
C70   H60   S    
C8    C13   A    
C63   H44   S    
C43   H5    S    
C27   H1    S    
C69   C70   S    
C26   C50   S    
C30   C31   D    
C72   H63   S    
C28   O2    A    
C57   H29   S    
C46   H9    S    
C51   H20   S    
C54   H27   S    
H56   N3    S    
C18   C19   A    
C80   H83   S    
Cu2   O25   S    
C80   H81   S    
C74   O19   S    
C1    O23   A    
C55   O11   D    
C20   C24   A    
C45   C56   A    
C68   C69   S    
C13   O12   S    
Cu2   N4    S    
C47   H13   S    
Cu1   O2    S    
C42   H3    S    
C9    C10   A    
C65   H51   S    
C73   H66   S    
C69   H57   S    
C13   N2    A    
C21   C22   A    
C73   H68   S    
C18   H12   S    
C46   O6    S    
C15   H84   S    
C68   H54   S    
C2    C6    A    
C31   H45   S    
C32   C54   S    
C39   O6    S    
C37   N1    A    
C60   H38   S    
C77   C79   S    
C25   C29   A    
Cu1   O1    S    
C76   H74   S    
C70   H59   S    
C74   C75   S    
C73   H65   S    
C2    C20   A    
C51   C52   S    
C77   O20   S    
C19   N2    S    
C7    O17   S    
C68   H53   S    
C38   C67   A    
Cu1   O26   S    
C79   H80   S    
C41   C78   A    
C62   H43   S    
C8    C9    A    
C57   H30   S    
C21   C34   A    
C58   C59   S    
C59   H33   S    
C76   H73   S    
C66   H52   S    
C74   H70   S    
C61   H39   S    
C51   H19   S    
C75   C76   S    
C5    C9    A    
C12   C41   A    
C23   N1    S    
C37   O4    S    
C53   H24   S    
C47   C48   S    
C64   H48   S    
C35   O14   S    
C63   O15   S    
C33   O13   S    
C17   C18   A    
C14   C66   S    
C54   O10   D    
C42   H2    S    
C71   O18   S    
Cu2   O27   S    
Cu1   O24   S    
C44   H8    S    
C34   C45   A    
C77   H76   S    
C17   O9    S    
C71   H62   S    
C41   O5    S    
C64   H47   S    
C52   H22   S    
C11   N2    A    
C59   H35   S    
C38   O21   S    
C26   C27   A    
C58   H32   S    
C40   C78   A    
C29   H23   S    
C2    C5    A    
C24   C56   A    
C42   C43   S    
C79   H79   S    
C37   C45   A    
C51   O9    S    
C80   H82   S    
C39   C40   A    
C65   H49   S    
C16   O27   A    
C52   C53   S    
C49   O7    D    
C53   H26   S    
C69   H55   S    
C4    O25   A    
C48   H16   S    
C46   C47   S    
C52   H21   S    
C70   H58   S    
C59   H36   S    
C55   H28   S    
C28   C81   S    
C14   C19   A    
C3    C26   A    
C11   O22   S    
C56   O15   S    
C72   C73   S    
C3    C5    A    
C34   C67   A    
C62   H42   S    
C6    C7    A    
C30   H34   S    
C4    C78   S    
C72   H64   S    
C48   H15   S    
C1    O1    A    
C61   H40   S    
C43   H4    S    
C64   C65   S    
Cu2   O23   S    
C50   O8    D    
C71   C72   S    
C42   O5    S    
C32   C33   D    
C49   H17   S    
C30   C32   S    
C36   N4    D    
C53   H25   S    
C36   H67   S    
C57   C58   S    
C25   C67   A    
C46   H10   S    
C23   C39   A    
C6    O18   S    
C63   C64   S    
C74   H69   S    
C47   H11   S    
C60   H37   S    
C17   C81   A    
C63   H46   S    
C61   C62   S    
C25   C49   S    
C12   C55   S    
C10   C11   A    
C44   H6    S    
C77   H77   S    
C79   C80   S    
H78   N4    S    
C75   H72   S    
C20   C21   A    
C68   O17   S    
C50   H18   S    
Cu1   Cu2   S    
Cu2   O3    S    
C58   H31   S    
C35   N3    D    
C14   C15   A    
C60   C61   S    
C3    C22   A    
C24   O19   S    
C66   O16   D    
C57   O13   S    
C65   H50   S    
C16   O26   A    
C71   H61   S    
C44   H7    S    
