data_str_m9_o17_o22_f0_sra.sym.24
_audit_creation_date              2012-12-11T15:21:34-0500
_audit_creation_method            fapswitch 2.2
_symmetry_space_group_name_H-M    P1
_symmetry_Int_Tables_number       1
_space_group_crystal_system       triclinic
_cell_length_a                    19.373026
_cell_length_b                    7.283072
_cell_length_c                    17.67662
_cell_angle_alpha                 89.760768
_cell_angle_beta                  108.469471
_cell_angle_gamma                 90.115361
_cell_volume                      2365.60011312

loop_
_atom_site_label
_atom_site_type_symbol
_atom_type_description
_atom_site_fract_x
_atom_site_fract_y
_atom_site_fract_z
_atom_type_partial_charge
O1    O     O_R   0.562310 0.505770 0.439670 -0.540484
O2    O     O_R   0.437690 0.005770 0.560330 -0.541950
O3    O     O_R   0.411650 0.169150 0.405330 -0.503001
O4    O     O_R   0.588350 0.669150 0.594670 -0.502509
C1    C     C_R   0.385724 0.345870 0.382578 0.794129
C2    C     C_R   0.613968 0.845904 0.617948 0.785551
O5    O     O_R   0.560140 0.175610 0.430010 -0.540701
O6    O     O_R   0.439860 0.675610 0.569990 -0.539638
O7    O     O_R   0.587240 0.012100 0.585200 -0.514228
O8    O     O_R   0.412760 0.512100 0.414800 -0.511863
C3    C     C_R   0.582063 0.343489 0.416931 0.699747
C4    C     C_R   0.418881 0.843634 0.584089 0.696603
O9    O     O_3   0.508720 0.341420 0.550890 -0.369130
O10   O     O_3   0.491280 0.841420 0.449110 -0.368277
V1    V     V_3+5 0.498380 0.063930 0.490560 1.530779
V2    V     V_3+5 0.501620 0.563930 0.509440 1.537972
C5    C     C_R   0.205389 0.883685 0.903268 0.288423
C6    C     C_R   0.800024 0.337879 0.102524 0.296272
C7    C     C_R   0.130252 0.917053 0.865070 -0.150421
C8    C     C_R   0.870040 0.417722 0.134930 -0.158128
C9    C     C_R   0.104904 0.938336 0.781074 0.078813
C10   C     C_R   0.892290 0.485877 0.214207 0.070926
C11   C     C_R   0.150648 0.882725 0.735802 0.062444
C12   C     C_R   0.844712 0.468721 0.261664 0.060698
C13   C     C_R   0.227036 0.881991 0.774522 -0.108515
C14   C     C_R   0.776549 0.379108 0.229815 -0.109572
C15   C     C_R   0.255025 0.896417 0.858804 0.045247
C16   C     C_R   0.754199 0.312350 0.150528 0.033700
C17   C     C_R   0.123599 0.816006 0.655771 0.157370
C18   C     C_R   0.863882 0.530662 0.341819 0.163890
C19   C     C_R   0.173925 0.755715 0.617748 0.162619
C20   C     C_R   0.830013 0.451199 0.393999 0.152292
C21   C     C_R   0.247697 0.813302 0.647503 0.067904
C22   C     C_R   0.757420 0.382527 0.361539 0.069065
C23   C     C_R   0.275311 0.865570 0.728687 -0.091579
C24   C     C_R   0.729682 0.359326 0.277400 -0.092368
C25   C     C_R   0.350758 0.900031 0.764375 0.047485
C26   C     C_R   0.655725 0.311372 0.240843 0.054474
C27   C     C_R   0.376166 0.947944 0.846465 0.318921
C28   C     C_R   0.633997 0.240894 0.162083 0.319299
C29   C     C_R   0.331423 0.921433 0.895215 0.066822
C30   C     C_R   0.685648 0.221862 0.121156 0.066546
C31   C     C_R   0.294351 0.818244 0.599039 0.088567
C32   C     C_R   0.709840 0.343031 0.407492 0.100634
C33   C     C_R   0.369742 0.850219 0.634328 -0.081015
C34   C     C_R   0.633454 0.347203 0.369105 -0.086934
C35   C     C_R   0.398442 0.884952 0.717205 0.032516
C36   C     C_R   0.606243 0.333984 0.285065 0.046437
C37   C     C_3   0.769148 0.724599 0.824362 0.292520
C38   C     C_3   0.229694 0.223051 0.177994 0.284123
C39   C     C_3   0.691246 0.713886 0.756211 0.522351
C40   C     C_3   0.308028 0.213855 0.245488 0.520606
C41   C     C_3   0.826281 0.907733 0.733296 0.540172
C42   C     C_3   0.173032 0.405366 0.268658 0.542609
C43   C     C_3   0.753596 0.075983 0.811428 0.408828
C44   C     C_3   0.245385 0.574912 0.189308 0.405056
C45   C     C_3   0.808969 0.912658 0.816096 -0.120259
C46   C     C_3   0.190052 0.411292 0.185462 -0.117300
C47   C     C_3   0.684652 0.867376 0.690519 -0.135451
C48   C     C_3   0.314626 0.366653 0.310707 -0.137493
C49   C     C_3   0.753727 0.867951 0.661749 -0.201058
C50   C     C_3   0.245729 0.365653 0.340047 -0.197485
C51   C     C_3   0.685830 0.061973 0.731336 0.530526
C52   C     C_3   0.313311 0.561133 0.269175 0.532940
H1    H     H_    0.746619 0.982156 0.618324 0.152506
H2    H     H_    0.252913 0.479946 0.382803 0.148264
O11   O     O_R   0.087220 0.271820 0.085230 -0.523528
O12   O     O_R   0.912780 0.771820 0.914770 -0.522804
O13   O     O_R   0.939860 0.595540 0.069990 -0.540709
O14   O     O_R   0.060140 0.095540 0.930010 -0.543892
C53   C     C_R   0.919849 0.426768 0.085325 0.653742
C54   C     C_R   0.079263 0.927000 0.913433 0.663832
O15   O     O_R   0.088340 0.601930 0.094680 -0.523140
O16   O     O_R   0.911660 0.101930 0.905320 -0.521560
O17   O     O_R   0.062310 0.765410 0.939660 -0.544717
O18   O     O_R   0.937690 0.265410 0.060340 -0.535325
C55   C     C_R   0.117408 0.432311 0.115137 0.752437
C56   C     C_R   0.881955 0.932813 0.885931 0.767923
O19   O     O_3   0.991270 0.429630 0.949130 -0.368784
O20   O     O_3   0.008730 0.929630 0.050870 -0.366230
V3    V     V_3+5 0.001620 0.707150 0.009440 1.496866
V4    V     V_3+5 0.998380 0.207150 0.990560 1.502890
O21   O     O_3   0.231630 0.844848 0.983652 -0.672084
H3    H     H_    0.192482 0.796510 0.002602 0.291435
O22   O     O_3   0.772886 0.293325 0.022616 -0.653572
H4    H     H_    0.804557 0.339773 0.992927 0.276850
C57   C     C_3   0.761513 0.685876 0.908540 -0.648921
H5    H     H_    0.814598 0.657596 0.953935 0.211118
H6    H     H_    0.735795 0.792464 0.934350 0.214432
H7    H     H_    0.728462 0.559686 0.905239 0.200243
C58   C     C_3   0.236802 0.182045 0.094072 -0.638485
H8    H     H_    0.272822 0.061292 0.099565 0.211915
H9    H     H_    0.184300 0.142041 0.050199 0.230141
H10   H     H_    0.258893 0.291670 0.065494 0.210619
O23   O     O_3   0.632127 0.728468 0.786657 -0.659098
H11   H     H_    0.641538 0.822787 0.828441 0.330508
O24   O     O_3   0.366935 0.231340 0.214708 -0.657875
H12   H     H_    0.356201 0.322146 0.171095 0.330485
O25   O     O_3   0.683476 0.542116 0.720122 -0.604965
H13   H     H_    0.681143 0.453927 0.761984 0.341950
O26   O     O_3   0.316606 0.041744 0.281867 -0.606032
H14   H     H_    0.319094 0.954537 0.240032 0.341310
O27   O     O_3   0.878901 0.772853 0.734211 -0.645171
H15   H     H_    0.925045 0.805376 0.775712 0.296772
O28   O     O_3   0.120818 0.269659 0.268972 -0.640293
H16   H     H_    0.074840 0.297893 0.226523 0.296035
C59   C     C_3   0.758354 0.706707 0.607732 -0.675923
H17   H     H_    0.807132 0.726513 0.588907 0.213312
H18   H     H_    0.761707 0.571567 0.636587 0.251018
H19   H     H_    0.710650 0.705629 0.552597 0.187349
C60   C     C_3   0.241642 0.204117 0.395327 -0.670020
H20   H     H_    0.192928 0.218835 0.415125 0.223733
H21   H     H_    0.239446 0.068422 0.367573 0.250087
H22   H     H_    0.289612 0.206521 0.450165 0.178766
O29   O     O_3   0.789982 0.242295 0.812034 -0.620365
H23   H     H_    0.808487 0.287054 0.867678 0.345410
O30   O     O_3   0.209131 0.741410 0.188364 -0.618101
H24   H     H_    0.191983 0.789215 0.132954 0.345510
O31   O     O_3   0.728869 0.071390 0.878327 -0.678014
H25   H     H_    0.701330 0.186097 0.878564 0.313360
O32   O     O_3   0.269742 0.569982 0.122119 -0.686787
H26   H     H_    0.297481 0.684316 0.121273 0.311426
O33   O     O_3   0.620031 0.082140 0.748541 -0.654869
H27   H     H_    0.611451 0.214085 0.755416 0.310564
O34   O     O_3   0.379001 0.581743 0.251477 -0.650687
H28   H     H_    0.387426 0.713725 0.243982 0.311671
O35   O     O_3   0.686949 0.202929 0.675916 -0.620769
H29   H     H_    0.736932 0.231877 0.676536 0.331037
O36   O     O_3   0.312341 0.701685 0.324307 -0.620899
H30   H     H_    0.262417 0.729920 0.323953 0.331802
O37   O     O_3   0.854964 0.079357 0.720968 -0.645183
H31   H     H_    0.867167 0.071685 0.670572 0.289656
O38   O     O_3   0.144498 0.576635 0.280814 -0.647494
H32   H     H_    0.131356 0.567376 0.330647 0.292425
C61   C     C_3   0.036453 0.047703 0.742532 -0.757431
H33   H     H_    0.021501 0.137011 0.785355 0.235487
H34   H     H_    0.045126 0.142108 0.696871 0.209087
H35   H     H_    0.990123 0.956437 0.714957 0.219262
C62   C     C_3   0.969208 0.559089 0.250016 -0.698659
H36   H     H_    0.004162 0.536431 0.212650 0.209656
H37   H     H_    0.969010 0.709932 0.256914 0.219437
H38   H     H_    0.996638 0.489045 0.307553 0.206366
C63   C     C_3   0.042698 0.788242 0.613743 -0.776322
H39   H     H_    0.015041 0.922531 0.598574 0.208763
H40   H     H_    0.029982 0.718961 0.555395 0.208146
H41   H     H_    0.018477 0.703992 0.651386 0.227014
C64   C     C_3   0.906037 0.707634 0.368314 -0.784220
H42   H     H_    0.893561 0.807847 0.318357 0.216573
H43   H     H_    0.888660 0.777126 0.415130 0.214845
H44   H     H_    0.965317 0.681507 0.393495 0.206798
C65   C     C_3   0.152467 0.599585 0.558088 -0.788405
H45   H     H_    0.200386 0.517570 0.557379 0.216030
H46   H     H_    0.117372 0.499375 0.576345 0.213233
H47   H     H_    0.122877 0.651967 0.497417 0.206299
C66   C     C_3   0.872439 0.454871 0.482034 -0.776907
H48   H     H_    0.876679 0.316001 0.508622 0.212211
H49   H     H_    0.929892 0.496686 0.493188 0.211536
H50   H     H_    0.848217 0.554920 0.512608 0.211406
C67   C     C_3   0.263801 0.806641 0.508831 -0.779919
H51   H     H_    0.297337 0.883770 0.479295 0.209824
H52   H     H_    0.263106 0.662301 0.489615 0.204903
H53   H     H_    0.208741 0.868436 0.486349 0.221643
C68   C     C_3   0.738024 0.273158 0.492658 -0.788042
H54   H     H_    0.694993 0.213819 0.514111 0.212338
H55   H     H_    0.776620 0.158544 0.496544 0.203096
H56   H     H_    0.763205 0.383335 0.534514 0.219470
C69   C     C_3   0.480123 0.897340 0.755071 -0.572412
H57   H     H_    0.510545 0.852751 0.715187 0.208590
H58   H     H_    0.495958 0.041636 0.771752 0.246830
H59   H     H_    0.498202 0.805170 0.807874 0.237142
C70   C     C_3   0.525029 0.343234 0.243821 -0.596146
H60   H     H_    0.496474 0.412950 0.280675 0.212469
H61   H     H_    0.512611 0.425587 0.188100 0.220533
H62   H     H_    0.502831 0.202129 0.231116 0.261668
O39   O     O_3   0.444178 0.025567 0.878448 -0.659200
H63   H     H_    0.440147 0.127741 0.913736 0.290672
O40   O     O_3   0.564248 0.173658 0.128761 -0.654122
H64   H     H_    0.549408 0.191474 0.070163 0.293497
C71   C     C_3   0.367036 0.924305 0.985186 -0.663477
H65   H     H_    0.345809 0.041055 0.011302 0.220129
H66   H     H_    0.357577 0.791726 0.011420 0.241900
H67   H     H_    0.427118 0.936841 0.004167 0.208401
C72   C     C_3   0.669069 0.088396 0.051860 -0.646146
H68   H     H_    0.645431 0.162606 0.994493 0.232736
H69   H     H_    0.718808 0.012370 0.052242 0.236409
H70   H     H_    0.630334 0.979808 0.056629 0.199876
O41   O     O_3   0.815311 0.581388 0.817112 -0.603466
H71   H     H_    0.807348 0.547895 0.761261 0.375677
O42   O     O_3   0.183653 0.080153 0.186761 -0.600510
H72   H     H_    0.193071 0.044908 0.242796 0.375812

loop_
_geom_bond_atom_site_label_1
_geom_bond_atom_site_label_2
_ccdc_geom_bond_type
C63   H41   S    
C26   C28   A    
C70   H60   S    
O26   H14   S    
C66   H49   S    
C44   O30   S    
C37   C57   S    
O23   H11   S    
O1    C3    A    
C57   H5    S    
O2    C4    A    
C2    O7    A    
O24   H12   S    
O33   H27   S    
C27   C29   A    
C43   O31   S    
O22   H4    S    
O5    C3    A    
C70   H61   S    
O21   H3    S    
O12   V3    S    
C11   C17   A    
C23   C25   A    
C12   C14   A    
C3    C34   S    
C31   C67   S    
C72   H69   S    
C53   O18   A    
C62   H38   S    
O29   H23   S    
C36   C70   S    
C63   H40   S    
C40   O24   S    
C37   C45   S    
C6    C8    A    
C48   C50   S    
C65   H47   S    
O13   C53   A    
C38   O42   S    
C40   C48   S    
C64   H42   S    
C5    C7    A    
C41   C49   S    
C50   C60   S    
C68   H54   S    
C37   C39   S    
C43   C51   S    
C35   C69   S    
C38   C40   S    
C65   H45   S    
C44   C52   S    
C8    C53   S    
C41   O37   S    
C32   C68   S    
C25   C35   A    
C26   C36   A    
C1    C48   S    
C71   H67   S    
C28   C30   A    
O6    V2    S    
C66   H50   S    
O12   C56   A    
C59   H18   S    
C7    C54   S    
O16   V4    S    
C54   O17   A    
C49   C59   S    
C2    C47   S    
O15   V3    S    
C32   C34   A    
C69   H59   S    
C33   C35   A    
C39   O25   S    
C70   H62   S    
C34   C36   A    
C40   O26   S    
C47   C49   S    
C6    O22   S    
C50   H2    S    
C60   H20   S    
C5    C15   A    
C61   H33   S    
C64   H44   S    
C6    C16   A    
C27   O39   S    
C72   H70   S    
O18   V4    S    
C69   H57   S    
C41   C45   S    
O17   V3    S    
O5    V1    S    
C42   C50   S    
C20   C22   A    
C42   O38   S    
C10   C62   S    
C28   O40   S    
C69   H58   S    
C5    O21   S    
C21   C31   A    
O4    V2    S    
C72   H68   S    
C7    C9    A    
O11   C55   A    
C58   H9    S    
C20   C66   S    
C18   C64   S    
C15   C29   A    
C67   H51   S    
C37   O41   S    
O6    C4    A    
C68   H56   S    
C19   C21   A    
C19   C65   S    
C67   H53   S    
C22   C32   A    
C60   H21   S    
O1    V2    S    
O31   H25   S    
O2    V1    S    
C31   C33   A    
O32   H26   S    
C61   H35   S    
C13   C23   A    
C14   C24   A    
C38   C46   S    
C46   C55   S    
C8    C10   A    
C52   O34   S    
C43   C45   S    
O38   H32   S    
C59   H19   S    
C10   C12   A    
O9    V2    S    
O4    C2    A    
C39   C47   S    
C59   H17   S    
O35   H29   S    
C58   H8    S    
O3    V1    S    
O36   H30   S    
C42   C46   S    
C61   H34   S    
C42   O28   S    
C64   H43   S    
C14   C16   A    
C45   C56   S    
C29   C71   S    
O20   V3    S    
O3    C1    A    
O37   H31   S    
O19   V4    S    
C51   O33   S    
C62   H36   S    
C4    C33   S    
C30   C72   S    
C13   C15   A    
O28   H16   S    
C47   C51   S    
O25   H13   S    
C48   C52   S    
C44   O32   S    
C9    C11   A    
C67   H52   S    
O7    V1    S    
O41   H71   S    
C17   C19   A    
O39   H63   S    
O8    V2    S    
O30   H24   S    
C58   H10   S    
C18   C20   A    
C62   H37   S    
O34   H28   S    
C43   O29   S    
C41   O27   S    
C16   C30   A    
C21   C23   A    
C44   C46   S    
C60   H22   S    
C22   C24   A    
C65   H46   S    
O42   H72   S    
O14   V4    S    
C12   C18   A    
O13   V3    S    
C24   C26   A    
C71   H65   S    
C49   H1    S    
C38   C58   S    
C1    O8    A    
C11   C13   A    
C52   O36   S    
O11   V4    S    
C25   C27   A    
O40   H64   S    
O16   C56   A    
C57   H7    S    
O27   H15   S    
C57   H6    S    
O15   C55   A    
O10   V1    S    
C68   H55   S    
O14   C54   A    
C66   H48   S    
C9    C61   S    
C51   O35   S    
C63   H39   S    
C39   O23   S    
C71   H66   S    
C17   C63   S    
