data_str_m12_o11_o24_f0_bcu.sym.42
_audit_creation_date              2012-12-11T14:30:46-0500
_audit_creation_method            fapswitch 2.2
_symmetry_space_group_name_H-M    P1
_symmetry_Int_Tables_number       1
_space_group_crystal_system       triclinic
_cell_length_a                    17.384855
_cell_length_b                    24.174634
_cell_length_c                    14.875575
_cell_angle_alpha                 89.000033
_cell_angle_beta                  124.600913
_cell_angle_gamma                 89.856786
_cell_volume                      5144.65475815

loop_
_atom_site_label
_atom_site_type_symbol
_atom_type_description
_atom_site_fract_x
_atom_site_fract_y
_atom_site_fract_z
_atom_type_partial_charge
Br1   Br    Br    0.567364 0.366165 0.490253 -0.202790
Br2   Br    Br    0.324869 0.385059 0.282469 -0.340380
Br3   Br    Br    0.293749 0.906073 0.624241 -0.388932
Br4   Br    Br    0.824871 0.885061 0.282461 -0.340358
Br5   Br    Br    0.486804 0.440537 0.231382 -0.325961
Br6   Br    Br    0.067367 0.866163 0.490248 -0.202766
Br7   Br    Br    0.986804 0.940546 0.231380 -0.325974
Br8   Br    Br    0.630455 0.394771 0.935786 -0.364516
Br9   Br    Br    0.130074 0.157259 0.127079 -0.261606
Br10  Br    Br    0.130467 0.894775 0.935812 -0.364585
Br11  Br    Br    0.630074 0.657255 0.127065 -0.261574
Br12  Br    Br    0.793747 0.406074 0.624237 -0.388912
C1    C     C_R   0.812092 0.630552 0.906094 -0.045629
C2    C     C_R   0.055237 0.499297 0.730887 0.038384
C3    C     C_R   0.538825 0.997031 0.354353 0.043631
C4    C     C_R   0.555236 0.999309 0.730888 0.038658
C5    C     C_R   0.704476 0.500154 0.630403 -0.139016
C6    C     C_R   0.327671 0.503679 0.292253 -0.162048
C7    C     C_R   0.204475 0.000153 0.630404 -0.139015
C8    C     C_R   0.827671 0.003680 0.292258 -0.162044
C9    C     C_3   0.546732 0.445715 0.473240 0.370990
C10   C     C_3   0.505670 0.473542 0.360316 0.293297
C11   C     C_3   0.046731 0.945714 0.473239 0.371016
C12   C     C_R   0.139482 0.656465 0.082635 0.074879
C13   C     C_3   0.005668 0.973545 0.360318 0.293286
C14   C     C_3   0.471524 0.474803 0.480191 -0.195564
C15   C     C_3   0.571903 0.523074 0.415651 -0.203632
C16   C     C_3   0.971522 0.974798 0.480193 -0.195587
C17   C     C_3   0.071901 0.023077 0.415660 -0.203618
C18   C     C_3   0.431353 0.502832 0.368146 0.009329
C19   C     C_3   0.610901 0.495880 0.527784 -0.013048
C20   C     C_3   0.931352 0.002832 0.368152 0.009314
C21   C     C_3   0.110899 0.995878 0.527789 -0.013057
C22   C     C_3   0.496438 0.552472 0.421968 0.008898
C23   C     C_R   0.312087 0.130544 0.906103 -0.045510
C24   C     C_3   0.535378 0.524673 0.534026 -0.090396
C25   C     C_3   0.996437 0.052471 0.421982 0.008941
C26   C     C_3   0.035376 0.024668 0.534035 -0.090419
C27   C     C_2   0.139308 0.786220 0.030701 -0.042056
C28   C     C_2   0.745676 0.705716 0.070178 -0.239834
C29   C     C_2   0.639302 0.286214 0.030670 -0.041843
C30   C     C_2   0.245679 0.205712 0.070191 -0.239884
C31   C     C_2   0.109342 0.745082 0.961025 -0.109840
C32   C     C_2   0.738864 0.680022 0.986773 -0.135891
C33   C     C_2   0.609369 0.245071 0.961006 -0.109836
C34   C     C_R   0.639489 0.156464 0.082624 0.075059
C35   C     C_2   0.238864 0.180010 0.986791 -0.135754
C36   C     C_2   0.693934 0.328203 0.017785 0.187650
C37   C     C_2   0.158956 0.216689 0.063034 0.349343
C38   C     C_2   0.193941 0.828204 0.017802 0.187703
C39   C     C_2   0.658952 0.716688 0.063021 0.349361
C40   C     C_R   0.918518 0.371163 0.104027 -0.018251
C41   C     C_R   0.052213 0.349697 0.905534 -0.018740
C42   C     C_R   0.418523 0.871158 0.104028 -0.018246
C43   C     C_R   0.552215 0.849698 0.905532 -0.018720
C44   C     C_2   0.782526 0.315008 0.051667 0.426648
C45   C     C_R   0.836151 0.350458 0.024364 -0.178634
C46   C     C_2   0.091772 0.251331 0.984555 0.379117
C47   C     C_2   0.282528 0.815004 0.051670 0.426693
C48   C     C_2   0.591767 0.751332 0.984549 0.379112
C49   C     C_2   0.136343 0.468353 0.550707 0.346429
C50   C     C_2   0.137776 0.457940 0.650267 0.423631
C51   C     C_2   0.636344 0.968358 0.550704 0.346346
C52   C     C_2   0.637800 0.957968 0.650290 0.423569
C53   C     C_2   0.057673 0.491729 0.462928 -0.278813
C54   C     C_2   0.110913 0.500782 0.683783 -0.344299
C55   C     C_2   0.557663 0.991726 0.462920 -0.278699
C56   C     C_R   0.105435 0.313257 0.992346 -0.235642
C57   C     C_2   0.610880 0.000809 0.683746 -0.344377
C58   C     C_R   0.035006 0.544618 0.298867 0.359751
C59   C     C_R   0.017807 0.546006 0.747498 0.336915
C60   C     C_R   0.534995 0.044619 0.298862 0.360083
C61   C     C_R   0.517787 0.046011 0.747484 0.336016
C62   C     C_R   0.756769 0.456011 0.692243 0.404156
C63   C     C_R   0.271574 0.457263 0.255593 0.360568
C64   C     C_R   0.256770 0.956011 0.692243 0.404167
C65   C     C_R   0.771574 0.957264 0.255595 0.360602
C66   C     C_R   0.036028 0.453505 0.296287 -0.091131
C67   C     C_R   0.336154 0.850454 0.024365 -0.178644
C68   C     C_R   0.019942 0.454408 0.754128 -0.025982
C69   C     C_R   0.536010 0.953503 0.296275 -0.091285
C70   C     C_R   0.519949 0.954413 0.754131 -0.025814
C71   C     C_R   0.745033 0.546473 0.692740 0.417481
C72   C     C_R   0.269227 0.548314 0.267214 0.466901
C73   C     C_R   0.245030 0.046473 0.692741 0.417546
C74   C     C_R   0.769226 0.048315 0.267213 0.466901
C75   C     C_R   0.823322 0.366189 0.924464 0.546502
C76   C     C_R   0.132801 0.344850 0.084350 0.532462
C77   C     C_R   0.323322 0.866188 0.924465 0.546505
C78   C     C_R   0.605436 0.813258 0.992343 -0.235692
C79   C     C_R   0.632802 0.844850 0.084349 0.532462
C80   C     C_R   0.901053 0.631256 0.086241 -0.045667
C81   C     C_R   0.051257 0.652355 0.904269 -0.043560
C82   C     C_R   0.401060 0.131254 0.086252 -0.045552
C83   C     C_R   0.551297 0.152342 0.904258 -0.045085
C84   C     C_R   0.816866 0.650534 0.994565 0.076919
C85   C     C_R   0.104615 0.686849 0.986142 0.040139
C86   C     C_R   0.316866 0.150526 0.994579 0.076905
C87   C     C_R   0.604647 0.186839 0.986128 0.040426
C88   C     C_R   0.038853 0.497033 0.354370 0.043359
H1    H     H_    0.750760 0.633205 0.824397 0.190574
H2    H     H_    0.811872 0.706183 0.149689 0.211349
H3    H     H_    0.647568 0.280811 0.108258 0.185545
H4    H     H_    0.311878 0.206186 0.149697 0.211129
H5    H     H_    0.098005 0.753011 0.882222 0.225051
H6    H     H_    0.670822 0.677923 0.909307 0.176497
H7    H     H_    0.598046 0.252998 0.882211 0.224967
H8    H     H_    0.170819 0.177905 0.909330 0.176475
H9    H     H_    0.999655 0.503020 0.467809 0.177070
H10   H     H_    0.117975 0.541429 0.657515 0.187408
H11   H     H_    0.499651 0.003020 0.467809 0.177222
H12   H     H_    0.170500 0.675611 0.159977 0.205148
H13   H     H_    0.617866 0.041458 0.657407 0.187846
H14   H     H_    0.951080 0.365065 0.189899 0.178330
H15   H     H_    0.004177 0.337870 0.821937 0.206521
H16   H     H_    0.451090 0.865054 0.189900 0.178337
H17   H     H_    0.504182 0.837873 0.821934 0.206497
H18   H     H_    0.052192 0.411456 0.326912 0.173432
H19   H     H_    0.026896 0.411622 0.742676 0.201781
H20   H     H_    0.552181 0.911455 0.326903 0.173444
H21   H     H_    0.526907 0.911629 0.742670 0.201686
H22   H     H_    0.916701 0.633193 0.166310 0.143561
H23   H     H_    0.250746 0.133189 0.824413 0.190534
H24   H     H_    0.998591 0.666991 0.823418 0.218551
H25   H     H_    0.416728 0.133191 0.166329 0.143180
H26   H     H_    0.498666 0.166975 0.823394 0.218653
H27   H     H_    0.430519 0.455354 0.508158 0.244956
H28   H     H_    0.612817 0.541509 0.386812 0.232235
H29   H     H_    0.930516 0.955346 0.508156 0.244961
H30   H     H_    0.112816 0.041514 0.386823 0.232249
H31   H     H_    0.983393 0.232623 0.276249 0.400651
H32   H     H_    0.856811 0.218538 0.901203 0.408368
H33   H     H_    0.483390 0.732604 0.276221 0.400660
H34   H     H_    0.670488 0.175620 0.159953 0.205100
H35   H     H_    0.356801 0.718554 0.901207 0.408356
H36   H     H_    0.332995 0.497103 0.702524 0.358717
H37   H     H_    0.253706 0.321706 0.733477 0.389237
H38   H     H_    0.832985 0.997172 0.702360 0.358774
H39   H     H_    0.754482 0.821941 0.734574 0.389214
H40   H     H_    0.927908 0.613993 0.331947 0.326201
H41   H     H_    0.140009 0.624754 0.763187 0.337328
H42   H     H_    0.428038 0.114429 0.331956 0.326504
H43   H     H_    0.639883 0.124721 0.763807 0.336728
H44   H     H_    0.612404 0.674373 0.566898 0.394078
H45   H     H_    0.487634 0.597396 0.406297 0.214628
H46   H     H_    0.390517 0.677225 0.366668 0.398596
H47   H     H_    0.112361 0.174368 0.566947 0.394009
H48   H     H_    0.890525 0.177224 0.366629 0.398582
H49   H     H_    0.735091 0.287834 0.678811 0.429544
H50   H     H_    0.147563 0.335808 0.339425 0.406417
H51   H     H_    0.235063 0.787831 0.678810 0.429515
H52   H     H_    0.647577 0.835808 0.339431 0.406439
H53   H     H_    0.545952 0.545374 0.606254 0.214286
H54   H     H_    0.987639 0.097396 0.406325 0.214634
H55   H     H_    0.045947 0.045363 0.606267 0.214299
H56   H     H_    0.147594 0.780815 0.108300 0.185588
N1    N     N_R   0.892320 0.603520 0.941090 -0.060260
N2    N     N_R   0.973240 0.529450 0.794410 -0.099986
N3    N     N_R   0.526760 0.029450 0.205590 -0.114591
N4    N     N_R   0.473240 0.029450 0.794410 -0.099879
N5    N     N_R   0.819350 0.473090 0.793940 -0.133847
N6    N     N_R   0.180650 0.473090 0.206060 -0.091989
N7    N     N_R   0.319350 0.973090 0.793940 -0.133855
N8    N     N_R   0.680650 0.973090 0.206060 -0.091979
N9    N     N_R   0.027860 0.473090 0.206590 -0.076936
N10   N     N_R   0.972140 0.473090 0.793410 -0.089121
N11   N     N_R   0.527860 0.973090 0.206590 -0.076929
N12   N     N_R   0.107680 0.603520 0.058910 -0.090274
N13   N     N_R   0.472140 0.973090 0.793410 -0.089088
N14   N     N_R   0.818250 0.529450 0.792940 -0.140265
N15   N     N_R   0.181750 0.529450 0.207060 -0.130139
N16   N     N_R   0.318250 0.029450 0.792940 -0.140271
N17   N     N_R   0.681750 0.029450 0.207060 -0.130144
N18   N     N_R   0.896320 0.399020 0.944720 -0.116817
N19   N     N_R   0.103680 0.399020 0.055280 -0.104518
N20   N     N_R   0.396320 0.899020 0.944720 -0.116818
N21   N     N_R   0.603680 0.899020 0.055280 -0.104517
N22   N     N_R   0.949790 0.603520 0.054810 -0.068225
N23   N     N_R   0.392320 0.103520 0.941090 -0.060199
N24   N     N_R   0.050210 0.603520 0.945190 -0.088583
N25   N     N_R   0.449790 0.103520 0.054810 -0.068211
N26   N     N_R   0.550210 0.103520 0.945190 -0.088467
N27   N     N_R   0.607680 0.103520 0.058910 -0.090240
N28   N     N_R   0.953790 0.399020 0.058440 -0.084446
N29   N     N_R   0.046210 0.399020 0.941560 -0.097175
N30   N     N_R   0.453790 0.899020 0.058440 -0.084450
N31   N     N_R   0.546210 0.899020 0.941560 -0.097167
N32   N     N_R   0.026760 0.529450 0.205590 -0.114541
Ni1   Ni    Ni4+2 0.934100 0.565890 0.869590 0.301688
Ni2   Ni    Ni4+2 0.065900 0.565890 0.130410 0.314448
Ni3   Ni    Ni4+2 0.434100 0.065890 0.869590 0.301717
Ni4   Ni    Ni4+2 0.565900 0.065890 0.130410 0.314469
Ni5   Ni    Ni4+2 0.068420 0.436630 0.132700 0.319782
Ni6   Ni    Ni4+2 0.931580 0.436630 0.867300 0.289531
Ni7   Ni    Ni4+2 0.568420 0.936630 0.132700 0.319789
Ni8   Ni    Ni4+2 0.431580 0.936630 0.867300 0.289539
O1    O     O_2   0.812206 0.257750 0.225632 -0.297859
O2    O     O_2   0.434146 0.748840 0.780275 -0.221708
O3    O     O_2   0.479326 0.663452 0.888267 -0.229454
O4    O     O_3   0.410949 0.743569 0.938225 -0.442501
O5    O     O_2   0.232737 0.397022 0.513176 -0.190729
O6    O     O_2   0.245748 0.494864 0.480690 -0.258949
O7    O     O_3   0.333497 0.458559 0.681310 -0.403872
O8    O     O_2   0.196501 0.392531 0.827272 -0.282748
O9    O     O_2   0.076767 0.355946 0.646896 -0.286717
O10   O     O_3   0.247350 0.359706 0.703766 -0.398397
O11   O     O_2   0.732732 0.896968 0.513275 -0.190542
O12   O     O_2   0.819602 0.205809 0.090297 -0.235096
O13   O     O_2   0.745672 0.994782 0.480529 -0.259116
O14   O     O_3   0.833503 0.958609 0.681237 -0.403946
O15   O     O_2   0.696595 0.892651 0.827420 -0.283131
O16   O     O_2   0.577005 0.855931 0.647118 -0.286368
O17   O     O_3   0.747604 0.859804 0.704077 -0.398301
O18   O     O_2   0.161229 0.604349 0.468923 -0.136659
O19   O     O_2   0.066031 0.656516 0.296282 -0.240686
O20   O     O_3   0.989577 0.626027 0.394762 -0.412646
O21   O     O_2   0.970241 0.591315 0.556610 -0.220597
O22   O     O_2   0.908124 0.637165 0.644877 -0.153695
O23   O     O_3   0.959358 0.265985 0.227721 -0.462572
O24   O     O_3   0.084134 0.649415 0.725714 -0.462245
O25   O     O_2   0.661436 0.104297 0.468861 -0.136457
O26   O     O_2   0.566039 0.156523 0.296326 -0.240962
O27   O     O_3   0.489890 0.125988 0.395137 -0.412685
O28   O     O_2   0.469911 0.091209 0.556420 -0.220300
O29   O     O_2   0.408067 0.137167 0.644887 -0.153827
O30   O     O_3   0.584005 0.149379 0.725323 -0.461515
O31   O     O_2   0.803366 0.652174 0.711218 -0.277058
O32   O     O_2   0.717599 0.612170 0.529641 -0.221936
O33   O     O_3   0.624999 0.639942 0.610549 -0.563734
O34   O     O_2   0.934161 0.248832 0.780273 -0.221681
O35   O     O_2   0.218869 0.637560 0.327910 -0.202781
O36   O     O_2   0.367608 0.595135 0.463580 -0.246750
O37   O     O_3   0.352791 0.652467 0.304143 -0.522501
O38   O     O_2   0.303323 0.152186 0.711223 -0.277023
O39   O     O_2   0.217550 0.112189 0.529639 -0.221918
O40   O     O_3   0.124966 0.139930 0.610583 -0.563801
O41   O     O_2   0.718862 0.137579 0.327860 -0.202776
O42   O     O_2   0.867594 0.095153 0.463560 -0.246737
O43   O     O_3   0.852799 0.152462 0.304111 -0.522504
O44   O     O_2   0.695856 0.287584 0.822762 -0.286454
O45   O     O_2   0.979344 0.163446 0.888271 -0.229436
O46   O     O_2   0.660421 0.377905 0.731876 -0.250030
O47   O     O_3   0.782915 0.312516 0.735422 -0.433524
O48   O     O_2   0.061143 0.275840 0.157157 -0.219969
O49   O     O_2   0.230955 0.276772 0.260809 -0.201333
O50   O     O_3   0.147350 0.358555 0.283267 -0.527228
O51   O     O_2   0.195830 0.787596 0.822759 -0.286383
O52   O     O_2   0.160416 0.877917 0.731880 -0.250045
O53   O     O_3   0.282889 0.812515 0.735411 -0.433536
O54   O     O_2   0.561154 0.775837 0.157162 -0.219973
O55   O     O_2   0.730965 0.776774 0.260807 -0.201238
O56   O     O_3   0.910950 0.243561 0.938211 -0.442483
O57   O     O_3   0.647358 0.858555 0.283270 -0.527235
O58   O     O_2   0.312224 0.757751 0.225646 -0.297863
O59   O     O_2   0.319574 0.705803 0.090287 -0.235021
O60   O     O_3   0.459357 0.765967 0.227695 -0.462534
S1    S     S_3+6 0.843089 0.259401 0.149662 0.004217
S2    S     S_3+6 0.991980 0.606957 0.665845 0.034490
S3    S     S_3+6 0.565990 0.109746 0.363910 0.057109
S4    S     S_3+6 0.491843 0.106928 0.665706 0.034729
S5    S     S_3+6 0.725503 0.614256 0.635447 -0.022981
S6    S     S_3+6 0.301775 0.609147 0.343890 0.002638
S7    S     S_3+6 0.225471 0.114261 0.635457 -0.023030
S8    S     S_3+6 0.801771 0.109156 0.343864 0.002649
S9    S     S_3+6 0.736875 0.336091 0.800571 0.031108
S10   S     S_3+6 0.143820 0.312248 0.198764 0.014445
S11   S     S_3+6 0.236861 0.836097 0.800569 0.031093
S12   S     S_3+6 0.976946 0.225436 0.893532 0.053102
S13   S     S_3+6 0.643828 0.812248 0.198766 0.014469
S14   S     S_3+6 0.343086 0.759394 0.149658 0.004242
S15   S     S_3+6 0.476936 0.725442 0.893533 0.053072
S16   S     S_3+6 0.237772 0.454437 0.552836 0.072169
S17   S     S_3+6 0.163333 0.390215 0.709506 0.017365
S18   S     S_3+6 0.737750 0.954414 0.552799 0.072230
S19   S     S_3+6 0.663485 0.890272 0.709680 0.017412
S20   S     S_3+6 0.065869 0.609767 0.363839 0.057218

loop_
_geom_bond_atom_site_label_1
_geom_bond_atom_site_label_2
_ccdc_geom_bond_type
O4    S15   S    
C9    C14   S    
Br1   C9    S    
C6    C63   A    
Br12  C62   S    
N31   Ni8   S    
C37   C46   D    
H48   O43   S    
C2    C59   A    
O42   S8    D    
O49   S10   D    
C12   H12   S    
C81   H24   S    
O58   S14   D    
N29   Ni6   S    
C34   C87   A    
C72   N15   A    
N27   Ni4   S    
O55   S13   D    
C61   S4    S    
C39   C48   D    
H51   O53   S    
O52   S11   D    
O34   S12   D    
C59   S2    S    
C29   H3    S    
C3    C60   A    
C9    C19   S    
N14   Ni1   S    
C57   H13   S    
C8    C74   A    
C35   C86   S    
O36   S6    D    
C8    C65   A    
C63   N6    A    
O15   S19   D    
C38   C47   D    
H31   O23   S    
C7    C64   A    
C12   N12   A    
C43   C78   A    
N24   Ni1   S    
H41   O24   S    
C8    C20   S    
H52   O57   S    
N22   Ni2   S    
C22   H45   S    
C83   C87   A    
O16   S19   D    
C34   H34   S    
C82   C86   A    
N28   Ni5   S    
C71   N14   A    
O9    S17   D    
C80   C84   A    
N12   Ni2   S    
C44   C45   S    
C41   H15   S    
N32   Ni2   S    
C16   H29   S    
C31   H5    S    
O46   S9    D    
C74   S8    S    
C59   N2    A    
C41   C56   A    
C41   N29   A    
N26   N27   A    
N18   N28   A    
O6    S16   D    
O14   S18   S    
O56   S12   S    
N6    N15   A    
O17   S19   S    
C17   C21   S    
O57   S13   S    
C11   C21   S    
C42   H16   S    
C6    C72   A    
N4    N13   A    
C6    C18   S    
C82   N25   A    
C2    C68   A    
O11   S18   D    
C23   C86   A    
C10   C18   S    
C49   S16   S    
O48   S10   D    
O26   S3    D    
C58   N32   A    
O28   S4    D    
O51   S11   D    
H47   O40   S    
C65   N8    A    
C70   N13   A    
N16   Ni3   S    
C9    C10   S    
O41   S8    D    
C23   N23   A    
C72   S6    S    
C15   C22   S    
C26   H55   S    
C73   S7    S    
O44   S9    D    
H33   O60   S    
C1    N1    A    
C69   N11   A    
C81   N24   A    
C58   C88   A    
C24   H53   S    
N13   Ni8   S    
H37   O10   S    
C52   S19   S    
C13   C17   S    
C51   C55   D    
N8    Ni7   S    
N9    N32   A    
C58   S20   S    
O19   S20   D    
C18   C22   S    
C1    C84   A    
C15   C19   S    
C12   C85   A    
C73   N16   A    
C31   C85   S    
H44   O33   S    
C16   C20   S    
Br9   C37   S    
C53   C88   S    
C3    C69   A    
C33   C87   S    
N2    Ni1   S    
C47   C67   S    
H35   O4    S    
C50   C54   D    
N3    Ni4   S    
C68   N10   A    
C27   C31   D    
O13   S18   D    
C7    C73   A    
C20   C25   S    
O60   S14   S    
H38   O14   S    
N20   Ni8   S    
O21   S2    D    
C45   C75   A    
N15   Ni2   S    
O18   S20   D    
C17   C25   S    
C77   S11   S    
C50   S17   S    
O22   S2    D    
C34   N27   A    
O24   S2    S    
Br8   C36   S    
C25   C26   S    
C32   C84   S    
C80   H22   S    
N19   N29   A    
C15   H28   S    
N30   Ni7   S    
C51   S18   S    
C17   H30   S    
C69   H20   S    
C16   C26   S    
H49   O47   S    
C3    C55   S    
C4    C70   A    
O20   S20   S    
O45   S12   D    
N9    Ni5   S    
N8    N17   A    
C11   C16   S    
C54   H10   S    
Br3   C64   S    
C61   N4    A    
N7    N16   A    
C76   N19   A    
C53   H9    S    
O2    S15   D    
C60   N3    A    
C77   N20   A    
C80   N22   A    
C75   S9    S    
O23   S1    S    
N5    N14   A    
C55   H11   S    
O38   S7    D    
O29   S4    D    
O35   S6    D    
O8    S17   D    
C14   C18   S    
C32   H6    S    
C10   C15   S    
Br7   C13   S    
C66   C88   A    
C5    C62   A    
C56   C76   A    
O43   S8    S    
C71   S5    S    
C44   S1    S    
N10   Ni6   S    
N26   Ni3   S    
O25   S3    D    
H43   O30   S    
C1    H1    S    
C40   C45   A    
Br10  C38   S    
C62   N5    A    
C81   C85   A    
H42   O27   S    
O32   S5    D    
H32   O56   S    
O3    S15   D    
C42   C67   A    
C43   H17   S    
C82   H25   S    
C46   C56   S    
C36   C44   D    
C75   N18   A    
C14   C24   S    
C66   N9    A    
O39   S7    D    
O12   S1    D    
N21   Ni7   S    
O10   S17   S    
C66   H18   S    
C2    C54   S    
N11   Ni7   S    
C25   H54   S    
C4    C57   S    
C40   N28   A    
N4    Ni3   S    
C7    C21   S    
C79   S13   S    
C4    C61   A    
C30   H4    S    
C14   H27   S    
O47   S9    S    
C49   C53   D    
C43   N31   A    
C83   N26   A    
N18   Ni6   S    
N20   N30   A    
Br5   C10   S    
C48   C78   S    
C28   C39   S    
C52   C57   D    
C64   N7    A    
N17   Ni4   S    
C21   C26   S    
N21   N31   A    
O31   S5    D    
C27   H56   S    
C74   N17   A    
N1    N22   A    
O53   S11   S    
O1    S1    D    
C23   H23   S    
Br4   C65   S    
N12   N24   A    
C60   S3    S    
O59   S14   D    
O27   S3    S    
C83   H26   S    
C76   S10   S    
C78   C79   A    
C40   H14   S    
N7    Ni8   S    
H39   O17   S    
H50   O50   S    
C5    C19   S    
Br6   C11   S    
C79   N21   A    
N6    Ni5   S    
N25   Ni4   S    
C29   C36   S    
N3    N11   A    
N5    Ni6   S    
C22   C24   S    
C30   C35   D    
C11   C13   S    
C48   S15   S    
C49   C50   S    
N1    Ni1   S    
H46   O37   S    
Br11  C39   S    
O7    S16   S    
H40   O20   S    
C30   C37   S    
C28   H2    S    
C51   C52   S    
N2    N10   A    
C68   H19   S    
C28   C32   D    
C27   C38   S    
N23   Ni3   S    
C47   S14   S    
O40   S7    S    
C35   H8    S    
C42   N30   A    
C46   S12   S    
C70   H21   S    
C29   C33   D    
C19   C24   S    
C67   C77   A    
O33   S5    S    
O54   S13   D    
C5    C71   A    
O50   S10   S    
O5    S16   D    
H36   O7    S    
O30   S4    S    
Br2   C63   S    
C33   H7    S    
O37   S6    S    
N23   N25   A    
C13   C20   S    
N19   Ni5   S    
