data_str_m9_o5_o16_f0_sra.sym.27
_audit_creation_date              2012-12-11T17:14:03-0500
_audit_creation_method            fapswitch 2.2
_symmetry_space_group_name_H-M    P1
_symmetry_Int_Tables_number       1
_space_group_crystal_system       triclinic
_cell_length_a                    18.183606
_cell_length_b                    7.101615
_cell_length_c                    13.044808
_cell_angle_alpha                 90.011667
_cell_angle_beta                  71.711748
_cell_angle_gamma                 89.998419
_cell_volume                      1599.42963509

loop_
_atom_site_label
_atom_site_type_symbol
_atom_type_description
_atom_site_fract_x
_atom_site_fract_y
_atom_site_fract_z
_atom_type_partial_charge
O1    O     O_R   0.453880 0.506200 0.150010 -0.535744
O2    O     O_R   0.546120 0.006200 0.849990 -0.536204
O3    O     O_R   0.604080 0.177770 0.007280 -0.539171
O4    O     O_R   0.395920 0.677770 0.992720 -0.538767
C1    C     C_R   0.635906 0.344520 0.001897 0.724310
C2    C     C_R   0.364095 0.844523 0.998098 0.725364
O5    O     O_R   0.458010 0.176640 0.159130 -0.539167
O6    O     O_R   0.541990 0.676640 0.840870 -0.539260
O7    O     O_R   0.399010 0.004010 0.002930 -0.536900
O8    O     O_R   0.600990 0.504010 0.997070 -0.537097
C3    C     C_R   0.443873 0.345415 0.201644 0.701137
C4    C     C_R   0.556156 0.845388 0.798353 0.699890
O9    O     O_3   0.480810 0.338440 0.948570 -0.369779
O10   O     O_3   0.519190 0.838440 0.051430 -0.369812
V1    V     V_3+5 0.503560 0.064490 0.009540 1.455106
V2    V     V_3+5 0.496440 0.564490 0.990460 1.455834
C5    C     C_R   0.574024 0.873612 0.502155 0.230569
C6    C     C_R   0.425984 0.374549 0.497826 0.230123
C7    C     C_R   0.588010 0.854820 0.680767 -0.108840
C8    C     C_R   0.412031 0.354847 0.319233 -0.108473
C9    C     C_R   0.950296 0.866457 0.384889 -0.159306
C10   C     C_R   0.049550 0.360037 0.615180 -0.192385
C11   C     C_R   0.917804 0.869946 0.496593 0.244599
C12   C     C_R   0.082300 0.358768 0.503124 0.258899
C13   C     C_R   0.836982 0.866721 0.542739 -0.187194
C14   C     C_R   0.162861 0.357381 0.457345 -0.148803
C15   C     C_R   0.787056 0.856404 0.477999 0.067058
C16   C     C_R   0.212916 0.353792 0.522034 0.051508
C17   C     C_R   0.821431 0.855841 0.364260 0.020683
C18   C     C_R   0.178540 0.356642 0.635762 0.021913
C19   C     C_R   0.704342 0.852998 0.522896 -0.001145
C20   C     C_R   0.295657 0.352537 0.477106 -0.000896
C21   C     C_R   0.656594 0.861119 0.454054 0.011485
C22   C     C_R   0.343387 0.362912 0.545936 0.013927
C23   C     C_R   0.692799 0.857616 0.340420 0.341054
C24   C     C_R   0.307155 0.362527 0.659589 0.340899
C25   C     C_R   0.773870 0.853554 0.297914 -0.259922
C26   C     C_R   0.226095 0.358465 0.702108 -0.258747
C27   C     C_R   0.667832 0.840153 0.635222 -0.236888
C28   C     C_R   0.332217 0.340099 0.364758 -0.235543
C29   C     C_R   0.540570 0.877882 0.614965 0.176736
C30   C     C_R   0.459484 0.377669 0.385023 0.176351
C31   C     C_R   0.903283 0.860639 0.318549 -0.103786
C32   C     C_R   0.096660 0.359878 0.681472 -0.088317
H1    H     H_    0.699881 0.817221 0.690908 0.113552
H2    H     H_    0.300262 0.318213 0.308896 0.112936
H3    H     H_    0.012778 0.871336 0.349460 0.118354
H4    H     H_    0.987097 0.363040 0.651117 0.102468
H5    H     H_    0.815332 0.877588 0.629259 0.104399
H6    H     H_    0.183778 0.363244 0.370594 0.119966
H7    H     H_    0.799757 0.851238 0.211016 0.111691
H8    H     H_    0.200208 0.358924 0.789016 0.111038
C33   C     C_1   0.216337 0.858768 0.000089 -0.183041
C34   C     C_1   0.783664 0.358775 0.999905 -0.187273
C35   C     C_1   0.283688 0.852605 0.998877 -0.177772
C36   C     C_1   0.716313 0.352604 0.001116 -0.180052
O11   O     O_R   0.899030 0.205490 0.002790 -0.536544
O12   O     O_R   0.100970 0.705490 0.997210 -0.535252
O13   O     O_R   0.042000 0.536370 0.840840 -0.541504
O14   O     O_R   0.958000 0.036370 0.159160 -0.540141
C37   C     C_R   0.058708 0.368272 0.798454 0.696311
C38   C     C_R   0.941248 0.868363 0.201549 0.698873
O15   O     O_R   0.895930 0.535070 0.992690 -0.541508
O16   O     O_R   0.104070 0.035070 0.007310 -0.540427
O17   O     O_R   0.953870 0.707520 0.150040 -0.535007
O18   O     O_R   0.046130 0.207520 0.849960 -0.536726
C39   C     C_R   0.864150 0.366758 0.998796 0.728943
C40   C     C_R   0.135851 0.866753 0.001201 0.731938
O19   O     O_3   0.019200 0.374340 0.051340 -0.372101
O20   O     O_3   0.980800 0.874340 0.948660 -0.376507
V3    V     V_3+5 0.996440 0.648350 0.990470 1.429271
V4    V     V_3+5 0.003560 0.148350 0.009530 1.432039
N1    N     N_3   0.458230 0.910060 0.660041 -0.643881
H9    H     H_    0.428559 0.798207 0.639203 0.248510
H10   H     H_    0.439816 0.917427 0.744143 0.214205
N2    N     N_3   0.541884 0.408938 0.339927 -0.642940
H11   H     H_    0.571339 0.297311 0.361400 0.248159
H12   H     H_    0.560399 0.414886 0.255789 0.214187
O21   O     O_3   0.648970 0.857220 0.270904 -0.658259
H13   H     H_    0.683220 0.854352 0.194914 0.290122
O22   O     O_3   0.350944 0.365893 0.729140 -0.659169
H14   H     H_    0.316682 0.365024 0.805141 0.290238
N3    N     N_3   0.521502 0.882655 0.439979 -0.631597
H15   H     H_    0.533720 0.999946 0.389621 0.258877
H16   H     H_    0.525954 0.759720 0.394804 0.300034
N4    N     N_3   0.478526 0.383202 0.559986 -0.631959
H17   H     H_    0.467085 0.501832 0.609330 0.259300
H18   H     H_    0.473300 0.261269 0.606164 0.299865
N5    N     N_3   0.967955 0.881961 0.562259 -0.667426
H19   H     H_    0.999823 0.756951 0.551801 0.243439
H20   H     H_    0.935653 0.889181 0.644067 0.220247
N6    N     N_3   0.034561 0.363230 0.433884 -0.668340
H21   H     H_    0.975986 0.369562 0.479660 0.235583
H22   H     H_    0.042521 0.235778 0.391693 0.237576

loop_
_geom_bond_atom_site_label_1
_geom_bond_atom_site_label_2
_ccdc_geom_bond_type
C10   H4    S    
C15   C17   A    
N1    H9    S    
C1    C36   S    
O1    C3    A    
C2    C35   S    
O2    C4    A    
C2    O7    A    
O22   H14   S    
O5    C3    A    
C6    N4    S    
O16   C40   A    
C23   C25   A    
C12   C14   A    
C14   H6    S    
C25   H7    S    
N4    H18   S    
O12   V3    S    
C26   H8    S    
O14   V4    S    
C18   C26   A    
O14   C38   A    
O19   V3    S    
C33   C40   S    
C6    C30   A    
O5    V1    S    
C9    C31   A    
C37   O18   A    
C10   C32   A    
O18   V4    S    
C13   H5    S    
C19   C21   A    
O20   V3    S    
N5    H20   S    
C27   H1    S    
C11   C13   A    
O6    V2    S    
C17   C31   A    
N1    H10   S    
C18   C32   A    
C5    C21   A    
O11   C39   A    
C12   N6    S    
C34   C36   T    
C33   C35   T    
O15   C39   A    
C3    C8    S    
O13   C37   A    
C15   C19   A    
C16   C20   A    
N2    H11   S    
O4    C2    A    
N4    H17   S    
C34   C39   S    
O17   V3    S    
C5    N3    S    
C20   C22   A    
O4    V2    S    
O19   V4    S    
C28   H2    S    
N3    H15   S    
C24   O22   S    
O6    C4    A    
N6    H22   S    
C11   N5    S    
O1    V2    S    
O2    V1    S    
C6    C22   A    
C7    C27   A    
O12   C40   A    
N3    H16   S    
O15   V3    S    
C9    C11   A    
C10   C12   A    
C24   C26   A    
C20   C28   A    
O3    V1    S    
C38   O17   A    
C14   C16   A    
N2    H12   S    
O3    C1    A    
C8    C30   A    
C32   C37   S    
C13   C15   A    
C30   N2    S    
C16   C18   A    
O7    V1    S    
C1    O8    A    
O8    V2    S    
C8    C28   A    
C4    C7    S    
C23   O21   S    
N6    H21   S    
C21   C23   A    
C19   C27   A    
C22   C24   A    
O16   V4    S    
O11   V4    S    
C5    C29   A    
C29   N1    S    
O21   H13   S    
O9    V2    S    
C17   C25   A    
O10   V1    S    
O20   V4    S    
N5    H19   S    
C7    C29   A    
C31   C38   S    
O13   V3    S    
C9    H3    S    
