data_str_m4_o4_o14_f0_acs.sym.100
_audit_creation_date              2012-12-11T15:42:54-0500
_audit_creation_method            fapswitch 2.2
_symmetry_space_group_name_H-M    P1
_symmetry_Int_Tables_number       1
_space_group_crystal_system       triclinic
_cell_length_a                    19.183142
_cell_length_b                    10.929544
_cell_length_c                    18.856845
_cell_angle_alpha                 89.932499
_cell_angle_beta                  90.477925
_cell_angle_gamma                 90.139512
_cell_volume                      3953.43067941

loop_
_atom_site_label
_atom_site_type_symbol
_atom_type_description
_atom_site_fract_x
_atom_site_fract_y
_atom_site_fract_z
_atom_type_partial_charge
C1    C     C_R   0.728583 0.374920 0.144952 0.553881
C2    C     C_R   0.271417 0.374901 0.855065 0.551774
C3    C     C_R   0.228584 0.874923 0.144953 0.554206
C4    C     C_R   0.771416 0.874904 0.855064 0.552389
C5    C     C_R   0.508887 0.391592 0.926757 -0.099565
C6    C     C_R   0.491148 0.391357 0.073130 -0.099667
C7    C     C_R   0.008891 0.891591 0.926751 -0.099471
C8    C     C_R   0.991156 0.891361 0.073124 -0.099743
C9    C     C_R   0.005378 0.001958 0.963545 -0.156350
C10   C     C_R   0.994742 0.001838 0.036270 -0.156883
C11   C     C_R   0.505376 0.501957 0.963553 -0.156283
C12   C     C_R   0.494738 0.501835 0.036277 -0.156853
C13   C     C_R   0.756659 0.913281 0.927129 0.015569
C14   C     C_R   0.243390 0.913465 0.072878 0.015892
C15   C     C_R   0.256660 0.413278 0.927130 0.015757
C16   C     C_R   0.743387 0.413455 0.072875 0.015723
C17   C     C_R   0.693599 0.889622 0.961363 0.012830
C18   C     C_R   0.306350 0.889744 0.038620 0.013140
C19   C     C_R   0.193599 0.389623 0.961363 0.012580
C20   C     C_R   0.806348 0.389741 0.038618 0.012915
C21   C     C_R   0.689266 0.897863 0.034756 0.041693
C22   C     C_R   0.310621 0.897902 0.965217 0.041748
C23   C     C_R   0.189266 0.397864 0.034756 0.041648
C24   C     C_R   0.810619 0.397897 0.965214 0.042599
C25   C     C_R   0.810754 0.953073 0.041297 -0.166187
C26   C     C_R   0.189261 0.953016 0.958735 -0.166953
C27   C     C_R   0.310754 0.453070 0.041298 -0.166265
C28   C     C_R   0.689258 0.452998 0.958731 -0.166653
C29   C     C_R   0.813857 0.952913 0.968317 -0.157119
C30   C     C_R   0.186255 0.953056 0.031702 -0.156872
C31   C     C_R   0.313858 0.452908 0.968318 -0.156859
C32   C     C_R   0.686250 0.453037 0.031698 -0.156929
C33   C     C_3   0.647418 0.780029 0.958169 -0.270850
C34   C     C_3   0.352202 0.780100 0.041923 -0.271495
C35   C     C_3   0.147416 0.280034 0.958168 -0.270842
C36   C     C_3   0.852203 0.280100 0.041921 -0.271500
C37   C     C_3   0.643332 0.787348 0.038285 -0.276756
C38   C     C_3   0.356226 0.787367 0.961798 -0.276351
C39   C     C_3   0.143330 0.287352 0.038285 -0.276668
C40   C     C_3   0.856227 0.287366 0.961796 -0.276573
C41   C     C_R   0.748705 0.924307 0.075856 0.015120
C42   C     C_R   0.251199 0.924256 0.924161 0.013097
C43   C     C_R   0.248705 0.424305 0.075857 0.015074
C44   C     C_R   0.751197 0.424246 0.924158 0.014159
C45   C     C_R   0.531169 0.155699 0.146809 0.554262
C46   C     C_R   0.468819 0.155777 0.853197 0.542293
C47   C     C_R   0.031171 0.655700 0.146807 0.553959
C48   C     C_R   0.968820 0.655777 0.853196 0.540007
C49   C     C_R   0.496794 0.175263 0.576556 -0.037110
C50   C     C_R   0.532549 0.160962 0.433142 -0.020386
C51   C     C_R   0.999523 0.674205 0.577466 -0.037486
C52   C     C_R   0.033987 0.660830 0.433594 -0.024351
C53   C     C_R   0.543316 0.088633 0.553085 -0.042136
C54   C     C_R   0.562806 0.083244 0.483264 -0.089455
C55   C     C_R   0.040967 0.580598 0.552232 -0.043641
C56   C     C_R   0.059820 0.574964 0.481978 -0.079762
C57   C     C_R   0.484558 0.251094 0.454634 0.255723
C58   C     C_R   0.471282 0.264907 0.527915 0.245409
C59   C     C_R   0.989891 0.755838 0.456687 0.255742
C60   C     C_R   0.978019 0.768973 0.530171 0.247618
C61   C     C_3   0.542803 0.953366 0.563365 0.024319
C62   C     C_3   0.565747 0.945059 0.486812 -0.025376
C63   C     C_3   0.030091 0.445715 0.558984 0.028385
C64   C     C_3   0.052034 0.436695 0.482308 -0.020008
C65   C     C_R   0.762461 0.890527 0.570080 0.015336
C66   C     C_R   0.251683 0.942661 0.417155 0.019098
C67   C     C_R   0.255527 0.406259 0.574031 0.022118
C68   C     C_R   0.749016 0.434708 0.419452 0.017669
C69   C     C_R   0.799927 0.982979 0.538665 0.092288
C70   C     C_R   0.200581 0.004218 0.455311 0.030101
C71   C     C_R   0.291583 0.501207 0.542853 0.067657
C72   C     C_R   0.697300 0.493682 0.458415 0.027127
C73   C     C_R   0.798867 0.997319 0.467017 0.060998
C74   C     C_R   0.208689 0.025527 0.526033 0.010251
C75   C     C_R   0.290731 0.514533 0.470732 0.044956
C76   C     C_R   0.701358 0.498790 0.530485 0.017627
C77   C     C_R   0.729883 0.815517 0.452037 -0.156505
C78   C     C_R   0.326905 0.959316 0.521892 -0.142472
C79   C     C_R   0.224334 0.329617 0.456098 -0.149293
C80   C     C_R   0.816201 0.416403 0.528582 -0.144247
C81   C     C_R   0.731422 0.800713 0.526265 -0.161245
C82   C     C_R   0.317896 0.930851 0.449055 -0.151482
C83   C     C_R   0.223752 0.317917 0.530071 -0.161686
C84   C     C_R   0.812123 0.408517 0.454068 -0.160270
C85   C     C_3   0.799226 0.116540 0.553197 -0.296144
C86   C     C_3   0.124570 0.978921 0.464752 -0.269796
C87   C     C_3   0.285241 0.635281 0.555547 -0.297407
C88   C     C_3   0.619897 0.476508 0.462027 -0.269121
C89   C     C_R   0.740905 0.969029 0.147671 0.547356
C90   C     C_R   0.259056 0.969064 0.852322 0.549075
C91   C     C_R   0.240905 0.469027 0.147672 0.548032
C92   C     C_R   0.759056 0.469062 0.852321 0.542393
C93   C     C_3   0.799364 0.132815 0.473606 -0.262814
C94   C     C_3   0.134919 0.000584 0.543176 -0.279863
C95   C     C_3   0.285695 0.649914 0.475808 -0.259192
C96   C     C_3   0.625925 0.483293 0.541895 -0.292492
C97   C     C_R   0.758798 0.921855 0.423021 0.033542
C98   C     C_R   0.269301 0.998133 0.562365 0.018305
C99   C     C_R   0.254512 0.433533 0.426397 0.043880
C100  C     C_R   0.757351 0.452464 0.567817 0.015907
C101  C     C_R   0.729933 0.380870 0.351486 0.533440
C102  C     C_R   0.270767 0.376761 0.647098 0.553902
C103  C     C_R   0.230354 0.881739 0.351289 0.530371
C104  C     C_R   0.773191 0.870502 0.644896 0.559916
C105  C     C_R   0.557567 0.153494 0.361301 0.583242
C106  C     C_R   0.465213 0.158443 0.645385 0.575011
C107  C     C_R   0.058064 0.653463 0.361309 0.581058
C108  C     C_R   0.966174 0.658360 0.645805 0.580325
C109  C     C_R   0.742860 0.968798 0.352932 0.536342
C110  C     C_R   0.272108 0.021167 0.638746 0.563448
C111  C     C_R   0.241940 0.472016 0.354238 0.539864
C112  C     C_R   0.760547 0.477626 0.643298 0.542211
C113  C     C_R   0.496997 0.164930 0.925608 0.001559
C114  C     C_R   0.502971 0.164805 0.074401 0.000348
C115  C     C_R   0.997001 0.664931 0.925606 0.002086
C116  C     C_R   0.002976 0.664807 0.074398 0.000322
C117  C     C_R   0.501501 0.278301 0.962397 0.031176
C118  C     C_R   0.498492 0.278210 0.037550 0.030437
C119  C     C_R   0.001507 0.778302 0.962393 0.031416
C120  C     C_R   0.998500 0.778212 0.037546 0.030354
C121  C     C_R   0.500437 0.055127 0.036344 -0.147235
C122  C     C_R   0.499480 0.055196 0.963730 -0.146210
C123  C     C_R   0.000443 0.555128 0.036342 -0.147294
C124  C     C_R   0.999485 0.555196 0.963728 -0.146133
Cr1   Cr    Cr6+3 0.772010 0.169670 0.250090 0.994315
Cr2   Cr    Cr6+3 0.227990 0.169670 0.749910 1.004448
Cr3   Cr    Cr6+3 0.272010 0.669670 0.250090 0.994085
Cr4   Cr    Cr6+3 0.727990 0.669670 0.749910 1.010135
Cr5   Cr    Cr6+3 0.615000 0.323260 0.249260 0.997294
Cr6   Cr    Cr6+3 0.385000 0.323260 0.750740 1.008521
Cr7   Cr    Cr6+3 0.115000 0.823260 0.249260 0.997284
Cr8   Cr    Cr6+3 0.885000 0.823260 0.750740 1.011499
Cr9   Cr    Cr6+3 0.616710 0.010760 0.250840 1.004328
Cr10  Cr    Cr6+3 0.383290 0.010760 0.749160 1.017789
Cr11  Cr    Cr6+3 0.116710 0.510760 0.250840 1.004455
Cr12  Cr    Cr6+3 0.883290 0.510760 0.749160 1.021565
H1    H     H_    0.502408 0.967073 0.062619 0.131746
H2    H     H_    0.497485 0.967186 0.937507 0.132607
H3    H     H_    0.002412 0.467075 0.062617 0.131690
H4    H     H_    0.997489 0.467187 0.937505 0.132558
H5    H     H_    0.975470 0.417835 0.568031 0.186731
H6    H     H_    0.101061 0.387629 0.474486 0.154369
H7    H     H_    0.490789 0.912641 0.573348 0.182750
H8    H     H_    0.618520 0.910659 0.480017 0.158497
H9    H     H_    0.700342 0.752473 0.419232 0.126498
H10   H     H_    0.376763 0.943741 0.547075 0.125926
H11   H     H_    0.196331 0.264446 0.423287 0.122645
H12   H     H_    0.863222 0.387940 0.555365 0.129317
H13   H     H_    0.704893 0.724621 0.549944 0.144421
H14   H     H_    0.359942 0.890081 0.419748 0.122297
H15   H     H_    0.196053 0.243436 0.553740 0.134798
H16   H     H_    0.854549 0.369340 0.424720 0.135264
H17   H     H_    0.847910 0.149449 0.579155 0.134511
H18   H     H_    0.110752 0.882799 0.452218 0.134726
H19   H     H_    0.332185 0.674814 0.581839 0.139734
H20   H     H_    0.603587 0.384635 0.443573 0.144526
H21   H     H_    0.750049 0.147353 0.578362 0.124312
H22   H     H_    0.092097 0.050820 0.439196 0.122984
H23   H     H_    0.234686 0.660790 0.579894 0.133848
H24   H     H_    0.591329 0.555382 0.438597 0.128165
H25   H     H_    0.750676 0.175031 0.452727 0.147117
H26   H     H_    0.108022 0.083397 0.563048 0.122293
H27   H     H_    0.235769 0.685841 0.453975 0.138071
H28   H     H_    0.602254 0.566980 0.564801 0.133059
H29   H     H_    0.849245 0.169846 0.453253 0.144728
H30   H     H_    0.128750 0.916116 0.575484 0.141694
H31   H     H_    0.334199 0.692250 0.455676 0.148288
H32   H     H_    0.613564 0.395511 0.568951 0.125911
H33   H     H_    0.519863 0.396528 0.870730 0.129918
H34   H     H_    0.480177 0.396073 0.129157 0.132387
H35   H     H_    0.019866 0.896527 0.870723 0.129963
H36   H     H_    0.980187 0.896081 0.129151 0.132901
H37   H     H_    0.010385 0.087872 0.935392 0.106623
H38   H     H_    0.989783 0.087654 0.064373 0.105863
H39   H     H_    0.510385 0.587872 0.935401 0.106660
H40   H     H_    0.489778 0.587650 0.064382 0.105870
H41   H     H_    0.856517 0.981300 0.070809 0.142707
H42   H     H_    0.143531 0.981136 0.929233 0.142633
H43   H     H_    0.356517 0.481297 0.070810 0.142579
H44   H     H_    0.643527 0.481115 0.929228 0.142552
H45   H     H_    0.863446 0.975392 0.944838 0.164216
H46   H     H_    0.136743 0.975554 0.055183 0.164016
H47   H     H_    0.363447 0.475386 0.944840 0.164308
H48   H     H_    0.636738 0.475529 0.055179 0.164023
H49   H     H_    0.175076 0.197707 0.939184 0.174445
H50   H     H_    0.824309 0.197796 0.061037 0.174970
H51   H     H_    0.675080 0.697702 0.939186 0.174446
H52   H     H_    0.324306 0.697797 0.061038 0.174919
H53   H     H_    0.596973 0.799565 0.931097 0.124141
H54   H     H_    0.402736 0.799578 0.068912 0.122765
H55   H     H_    0.096972 0.299574 0.931096 0.124026
H56   H     H_    0.902737 0.299583 0.068910 0.122656
H57   H     H_    0.590275 0.809306 0.057523 0.130973
H58   H     H_    0.409325 0.809284 0.942464 0.131636
H59   H     H_    0.090273 0.309311 0.057523 0.130913
H60   H     H_    0.909326 0.309288 0.942461 0.131590
H61   H     H_    0.668892 0.709367 0.065936 0.140660
H62   H     H_    0.330405 0.709388 0.934293 0.140426
H63   H     H_    0.168889 0.209369 0.065935 0.140747
H64   H     H_    0.830408 0.209386 0.934291 0.139965
O1    O     O_R   0.787520 0.042810 0.170440 -0.536528
O2    O     O_R   0.212480 0.042810 0.829560 -0.534197
O3    O     O_R   0.287520 0.542810 0.170440 -0.536785
O4    O     O_R   0.712480 0.542810 0.829560 -0.536997
O5    O     O_R   0.556610 0.252880 0.323980 -0.494032
O6    O     O_R   0.443390 0.252880 0.676020 -0.483850
O7    O     O_R   0.056610 0.752880 0.323980 -0.491144
O8    O     O_R   0.943390 0.752880 0.676020 -0.481498
O9    O     O_R   0.545950 0.051210 0.330860 -0.515133
O10   O     O_R   0.454050 0.051210 0.669140 -0.523414
O11   O     O_R   0.045950 0.551210 0.330860 -0.516015
O12   O     O_R   0.954050 0.551210 0.669140 -0.512654
O13   O     O_R   0.681390 0.959480 0.325510 -0.524596
O14   O     O_R   0.318610 0.959480 0.674490 -0.513131
O15   O     O_R   0.181390 0.459480 0.325510 -0.523626
O16   O     O_R   0.818610 0.459480 0.674490 -0.514031
O17   O     O_3   0.667900 0.167900 0.250060 -0.261580
O18   O     O_3   0.332100 0.167900 0.749940 -0.267529
O19   O     O_3   0.167900 0.667900 0.250060 -0.262681
O20   O     O_3   0.832100 0.667900 0.749940 -0.251632
O21   O     O_R   0.765640 0.292100 0.175020 -0.498771
O22   O     O_R   0.234360 0.292100 0.824980 -0.498171
O23   O     O_R   0.265640 0.792100 0.175020 -0.498592
O24   O     O_R   0.734360 0.792100 0.824980 -0.497054
O25   O     O_R   0.670190 0.408840 0.168540 -0.529533
O26   O     O_R   0.329810 0.408840 0.831460 -0.532793
O27   O     O_R   0.170190 0.908840 0.168540 -0.529540
O28   O     O_R   0.829810 0.908840 0.831460 -0.533782
O29   O     O_R   0.556620 0.251410 0.175160 -0.505306
O30   O     O_R   0.443380 0.251410 0.824840 -0.514099
O31   O     O_R   0.056620 0.751410 0.175160 -0.505230
O32   O     O_R   0.943380 0.751410 0.824840 -0.516304
O33   O     O_R   0.545960 0.049620 0.170320 -0.519015
O34   O     O_R   0.454040 0.049620 0.829680 -0.517879
O35   O     O_R   0.045960 0.549620 0.170320 -0.519468
O36   O     O_R   0.954040 0.549620 0.829680 -0.519124
O37   O     O_R   0.681390 0.958010 0.176690 -0.495302
O38   O     O_R   0.318610 0.958010 0.823310 -0.492209
O39   O     O_R   0.181390 0.458010 0.176690 -0.494670
O40   O     O_R   0.818610 0.458010 0.823310 -0.495897
O41   O     O_R   0.787510 0.044390 0.330970 -0.525978
O42   O     O_R   0.212490 0.044390 0.669030 -0.524329
O43   O     O_R   0.287510 0.544390 0.330970 -0.528083
O44   O     O_R   0.712490 0.544390 0.669030 -0.523568
O45   O     O_R   0.765630 0.293570 0.323840 -0.509735
O46   O     O_R   0.234370 0.293570 0.676160 -0.524055
O47   O     O_R   0.265630 0.793570 0.323840 -0.509207
O48   O     O_R   0.734370 0.793570 0.676160 -0.511459
O49   O     O_R   0.670190 0.410420 0.329080 -0.533432
O50   O     O_R   0.329810 0.410420 0.670920 -0.496683
O51   O     O_R   0.170190 0.910420 0.329080 -0.532895
O52   O     O_R   0.829810 0.910420 0.670920 -0.501714
O53   O     O_3   0.436775 0.294218 0.404885 -0.526968
C125  C     C_3   0.448309 0.418573 0.389248 -0.069600
H65   H     H_    0.503925 0.440552 0.380788 0.102501
H66   H     H_    0.425460 0.478180 0.430128 0.143871
H67   H     H_    0.420897 0.440025 0.338767 0.150616
O54   O     O_3   0.423411 0.351154 0.549357 -0.524830
C126  C     C_3   0.460357 0.454944 0.574103 -0.092671
H68   H     H_    0.499158 0.431801 0.616117 0.114274
H69   H     H_    0.423474 0.520246 0.597972 0.151185
H70   H     H_    0.486048 0.503713 0.529951 0.082959
O55   O     O_3   0.942444 0.804424 0.408293 -0.524498
C127  C     C_3   0.957367 0.927854 0.393268 -0.077609
H71   H     H_    0.012037 0.941863 0.377003 0.115598
H72   H     H_    0.943452 0.988167 0.437821 0.136308
H73   H     H_    0.924451 0.956263 0.347562 0.149684
O56   O     O_3   0.932648 0.858568 0.552569 -0.525214
C128  C     C_3   0.971566 0.955087 0.583391 -0.094349
H74   H     H_    0.013497 0.922902 0.619992 0.105968
H75   H     H_    0.936441 0.012439 0.615458 0.152984
H76   H     H_    0.993575 0.015029 0.541940 0.084539
N1    N     N_3   0.594746 0.914432 0.615634 -0.616787
H77   H     H_    0.640434 0.965307 0.609619 0.231679
H78   H     H_    0.605700 0.822167 0.606712 0.230367
N2    N     N_3   0.514039 0.880103 0.443277 -0.669396
H79   H     H_    0.472989 0.938279 0.429728 0.256539
H80   H     H_    0.537890 0.851832 0.396473 0.254960
N3    N     N_3   0.077776 0.390181 0.610418 -0.622354
H81   H     H_    0.126010 0.434131 0.609145 0.239851
H82   H     H_    0.084308 0.298226 0.597086 0.216849
N4    N     N_3   0.995240 0.388205 0.438036 -0.674442
H83   H     H_    0.960189 0.457497 0.424448 0.263208
H84   H     H_    0.016340 0.353687 0.391252 0.251652

loop_
_geom_bond_atom_site_label_1
_geom_bond_atom_site_label_2
_ccdc_geom_bond_type
C10   H38   S    
Cr11  O11   S    
C55   C56   A    
C88   C96   S    
C65   C69   A    
C67   C83   A    
Cr10  O10   S    
C116  C123  A    
Cr5   O29   S    
Cr2   O46   S    
Cr9   O9    S    
C14   C18   A    
C48   O36   A    
C89   O1    A    
C102  O46   A    
C73   C93   S    
C108  O8    A    
C126  H70   S    
Cr7   O7    S    
C94   H30   S    
Cr3   O19   S    
O55   C127  S    
C74   C98   A    
C22   C42   A    
C53   C54   A    
Cr2   O2    S    
C32   H48   S    
C15   C19   A    
Cr1   O21   S    
Cr1   O1    S    
N4    H83   S    
C50   C54   A    
C17   C33   S    
C58   O54   S    
C104  O52   A    
Cr2   O42   S    
C46   O34   A    
C112  O16   A    
C59   O55   S    
C69   C73   A    
C110  O14   A    
C111  O15   A    
Cr8   O52   S    
C5    C11   A    
C6    H34   S    
C109  O13   A    
Cr8   O28   S    
C6    C12   A    
O53   C125  S    
C27   H43   S    
C116  C120  A    
C107  O11   A    
Cr6   O30   S    
C37   H57   S    
C1    O25   A    
C22   C38   S    
C123  H3    S    
Cr2   O22   S    
C2    O22   A    
C25   H41   S    
C105  O9    A    
N4    H84   S    
C5    H33   S    
C53   C61   S    
Cr7   O19   S    
C51   C55   A    
Cr4   O4    S    
C121  H1    S    
C4    C13   S    
Cr6   O18   S    
C78   C82   A    
Cr9   O17   S    
C1    O21   A    
Cr5   O17   S    
C35   H49   S    
C86   C94   S    
C108  O12   A    
Cr12  O12   S    
C114  C121  A    
C85   C93   S    
C45   C114  S    
C61   H7    S    
Cr11  O15   S    
C113  C122  A    
C20   C24   A    
C52   C107  S    
C87   H23   S    
C127  H71   S    
C104  O48   A    
C55   C63   S    
Cr12  O20   S    
C78   C98   A    
C50   C105  S    
C125  H66   S    
N3    H81   S    
C96   H32   S    
Cr1   O41   S    
C99   C111  S    
N1    H78   S    
C37   H61   S    
C9    C10   A    
Cr4   O20   S    
C107  O7    A    
C44   C92   S    
Cr3   O23   S    
C12   H40   S    
C35   H55   S    
N3    H82   S    
C109  O41   A    
C93   H29   S    
C59   C60   A    
C18   C22   A    
C128  H74   S    
C80   C100  A    
Cr12  O16   S    
Cr10  O38   S    
Cr4   O24   S    
C38   H62   S    
Cr9   O37   S    
C98   C110  S    
C60   O56   S    
Cr11  O35   S    
Cr8   O32   S    
C75   C99   A    
C72   C88   S    
Cr7   O51   S    
C47   O35   A    
C67   C102  S    
C26   H42   S    
C83   H15   S    
C25   C29   A    
C47   C116  S    
C34   H54   S    
Cr5   O49   S    
Cr9   O13   S    
C71   C75   A    
C100  C112  S    
C90   O38   A    
C75   C95   S    
C80   C84   A    
C68   C84   A    
C89   O37   A    
C76   C100  A    
C123  C124  A    
C38   H58   S    
C68   C101  S    
C122  H2    S    
C88   H20   S    
C21   C41   A    
C62   H8    S    
C95   H31   S    
C64   H6    S    
C19   C23   A    
C51   C108  S    
C62   N2    S    
C54   C62   S    
C125  H67   S    
C126  H69   S    
C27   C43   A    
Cr10  O18   S    
C27   C31   A    
C28   C44   A    
C103  O47   A    
C49   C58   A    
C96   H28   S    
C5    C117  A    
C68   C72   A    
Cr8   O20   S    
C34   C38   S    
Cr9   O33   S    
C80   H12   S    
C73   C97   A    
C64   N4    S    
C70   C74   A    
C125  H65   S    
Cr6   O6    S    
C52   C59   A    
C7    C119  A    
C66   C82   A    
Cr5   O5    S    
C101  O45   A    
C110  O42   A    
C65   C81   A    
C28   C32   A    
C39   H63   S    
C16   C20   A    
Cr11  O19   S    
C56   C64   S    
N1    H77   S    
C63   H5    S    
Cr3   O43   S    
C72   C76   A    
C33   H51   S    
C1    C16   S    
C85   H17   S    
N2    H79   S    
C33   H53   S    
C9    H37   S    
C2    C15   S    
C28   H44   S    
Cr5   O25   S    
C121  C122  A    
C114  C118  A    
Cr4   O48   S    
C29   H45   S    
C48   C115  S    
C113  C117  A    
C84   H16   S    
C48   O32   A    
C127  H72   S    
N2    H80   S    
C93   H25   S    
Cr8   O8    S    
C30   H46   S    
C128  H75   S    
C102  O50   A    
C24   C44   A    
Cr2   O18   S    
C71   C87   S    
C51   C60   A    
Cr3   O47   S    
C13   C29   A    
Cr6   O50   S    
C25   C41   A    
C126  H68   S    
C70   C86   S    
C3    O27   A    
C36   C40   S    
C69   C85   S    
C2    O26   A    
C36   H50   S    
C33   C37   S    
C40   H60   S    
C79   C99   A    
Cr7   O31   S    
C79   H11   S    
C7    C9    A    
C8    C120  A    
C94   H26   S    
C87   C95   S    
C92   O40   A    
C111  O43   A    
C115  C124  A    
C45   O29   A    
C46   C113  S    
C31   H47   S    
C41   C89   S    
C46   O30   A    
C50   C57   A    
C11   H39   S    
C66   C103  S    
C124  H4    S    
C101  O49   A    
C81   H13   S    
C45   O33   A    
C82   H14   S    
C106  O10   A    
C92   O4    A    
C106  O6    A    
C88   H24   S    
C119  C120  A    
C86   H22   S    
C15   C31   A    
C49   C106  S    
C34   H52   S    
C105  O5    A    
C3    C14   S    
C16   C32   A    
C40   H64   S    
C115  C119  A    
Cr10  O14   S    
C13   C17   A    
C95   H27   S    
C103  O51   A    
C36   H56   S    
Cr12  O40   S    
C97   C109  S    
C86   H18   S    
C14   C30   A    
C4    O24   A    
C117  C118  A    
C76   C96   S    
C79   C83   A    
C63   N3    S    
C57   C58   A    
C66   C70   A    
C77   H9    S    
C39   H59   S    
C18   C34   S    
C127  H73   S    
Cr4   O44   S    
C52   C56   A    
Cr12  O36   S    
C90   O2    A    
C24   C40   S    
Cr11  O39   S    
O54   C126  S    
C67   C71   A    
C4    O28   A    
C26   C42   A    
C57   O53   S    
C61   C62   S    
C77   C81   A    
C43   C91   S    
C49   C53   A    
Cr1   O17   S    
C78   H10   S    
C63   C64   S    
C20   C36   S    
Cr7   O27   S    
C112  O44   A    
C35   C39   S    
C21   C37   S    
O56   C128  S    
Cr6   O26   S    
C8    C10   A    
Cr1   O45   S    
C128  H76   S    
C91   O39   A    
C74   C94   S    
C85   H21   S    
C3    O23   A    
C61   N1    S    
C19   C35   S    
C77   C97   A    
C65   C104  S    
C42   C90   S    
C7    H35   S    
C23   C43   A    
C47   O31   A    
Cr3   O3    S    
C23   C39   S    
C91   O3    A    
C87   H19   S    
C8    H36   S    
C11   C12   A    
C6    C118  A    
Cr10  O34   S    
C26   C30   A    
C17   C21   A    
