data_str_m2_o10_o29_f0_pcu.sym.70
_audit_creation_date              2012-10-26T20:17:41-0400
_audit_creation_method            fapswitch 2.2
_symmetry_space_group_name_H-M    P1
_symmetry_Int_Tables_number       1
_space_group_crystal_system       triclinic
_cell_length_a                    27.82758
_cell_length_b                    8.691157
_cell_length_c                    7.418163
_cell_angle_alpha                 102.637299
_cell_angle_beta                  94.335428
_cell_angle_gamma                 92.404697
_cell_volume                      1742.48126458

loop_
_atom_site_label
_atom_site_type_symbol
_atom_type_description
_atom_site_fract_x
_atom_site_fract_y
_atom_site_fract_z
_atom_type_partial_charge
C1    C     C_R   0.497818 0.200073 0.454761 0.578921
C2    C     C_R   0.869112 0.362635 0.434295 0.030981
C3    C     C_R   0.354757 0.498497 0.506779 -0.043835
C4    C     C_R   0.645241 0.501504 0.493225 -0.043823
C5    C     C_R   0.970908 0.356882 0.436857 0.027587
C6    C     C_R   0.029094 0.643072 0.563261 0.027581
C7    C     C_R   0.977975 0.644704 0.563723 -0.001315
C8    C     C_R   0.022031 0.355229 0.436541 -0.001288
C9    C     C_R   0.949113 0.502258 0.498220 0.036813
C10   C     C_R   0.050891 0.497696 0.501958 0.036816
C11   C     C_R   0.940561 0.217054 0.380044 -0.120591
C12   C     C_R   0.502182 0.799927 0.545239 0.578924
C13   C     C_R   0.059433 0.782940 0.619802 -0.120614
C14   C     C_R   0.890847 0.220482 0.377620 -0.065171
C15   C     C_R   0.109147 0.779533 0.622227 -0.065174
C16   C     C_R   0.407521 0.499633 0.502254 0.567447
C17   C     C_R   0.592478 0.500366 0.497746 0.567453
C18   C     C_R   0.045318 0.215731 0.367647 -0.127505
C19   C     C_R   0.954697 0.784171 0.632848 -0.127509
C20   C     C_2   0.489349 0.034836 0.436271 0.044048
C21   C     C_2   0.510651 0.965164 0.563729 0.044049
C22   C     C_R   0.175570 0.355021 0.460570 0.472566
C23   C     C_R   0.102096 0.495275 0.504729 -0.050153
C24   C     C_R   0.824439 0.645000 0.539548 0.472601
C25   C     C_R   0.181116 0.635233 0.565296 0.471597
C26   C     C_R   0.818883 0.364794 0.434662 0.471555
C27   C     C_R   0.283686 0.539930 0.680308 0.253574
C28   C     C_R   0.716315 0.460123 0.319698 0.253575
C29   C     C_R   0.334065 0.540032 0.676054 -0.151859
C30   C     C_R   0.665934 0.460018 0.323950 -0.151865
C31   C     C_R   0.324793 0.455589 0.340860 -0.143212
C32   C     C_R   0.675202 0.544380 0.659143 -0.143204
C33   C     C_R   0.274439 0.453532 0.342868 0.257155
C34   C     C_R   0.897909 0.504705 0.495405 -0.050162
C35   C     C_R   0.725561 0.546478 0.657142 0.257154
C36   C     C_R   0.254001 0.496311 0.513022 0.316863
C37   C     C_R   0.746001 0.503734 0.486986 0.316858
C38   C     C_R   0.124589 0.351787 0.445033 0.026731
C39   C     C_R   0.875422 0.648199 0.555168 0.026707
C40   C     C_R   0.095269 0.212344 0.370297 0.105734
C41   C     C_R   0.904747 0.787603 0.630082 0.105771
C42   C     C_R   0.130888 0.637372 0.565701 0.030992
Cu1   Cu    Cu3+1 0.505380 0.517380 0.684380 1.026685
Cu2   Cu    Cu3+1 0.494620 0.482620 0.315620 1.026687
H1    H     H_    0.340466 0.423053 0.209494 0.134635
H2    H     H_    0.046251 0.898905 0.660567 0.119606
H3    H     H_    0.025665 0.105689 0.304799 0.128834
H4    H     H_    0.974363 0.894130 0.696017 0.128910
H5    H     H_    0.264049 0.375037 0.075708 0.348099
H6    H     H_    0.735955 0.624772 0.924345 0.348167
H7    H     H_    0.711772 0.387308 0.051446 0.334427
H8    H     H_    0.288226 0.612626 0.948583 0.334471
H9    H     H_    0.659527 0.576893 0.790514 0.134654
H10   H     H_    0.462395 0.377867 0.948157 0.249075
H11   H     H_    0.537605 0.622133 0.051843 0.249075
H12   H     H_    0.642995 0.426587 0.195280 0.142494
H13   H     H_    0.357005 0.573507 0.804724 0.142511
H14   H     H_    0.869424 0.109753 0.332103 0.197827
H15   H     H_    0.130565 0.890289 0.667568 0.197834
H16   H     H_    0.953729 0.101106 0.338960 0.119633
I1    I     I_    0.119901 0.989555 0.236480 -0.246623
I2    I     I_    0.880124 0.010405 0.763937 -0.246643
I3    I     I_    0.433398 0.928074 0.224272 -0.281348
I4    I     I_    0.566602 0.071926 0.775729 -0.281347
N1    N     N_R   0.202372 0.495443 0.514940 -0.354070
N2    N     N_R   0.797632 0.504592 0.485081 -0.354082
N3    N     N_2   0.486510 0.456430 0.038510 -0.241229
N4    N     N_2   0.513490 0.543570 0.961490 -0.241229
O1    O     O_R   0.503500 0.286120 0.619780 -0.496715
O2    O     O_2   0.801360 0.780014 0.574839 -0.397203
O3    O     O_2   0.791373 0.228030 0.386007 -0.415350
O4    O     O_2   0.208621 0.772010 0.613843 -0.415334
O5    O     O_3   0.244316 0.411097 0.181083 -0.624788
O6    O     O_3   0.755685 0.588970 0.818913 -0.624800
O7    O     O_3   0.737478 0.418688 0.154860 -0.634086
O8    O     O_3   0.262524 0.581386 0.845145 -0.634008
O9    O     O_R   0.496500 0.713880 0.380220 -0.496714
O10   O     O_R   0.494410 0.256780 0.308360 -0.471674
O11   O     O_R   0.505590 0.743220 0.691640 -0.471673
O12   O     O_R   0.434810 0.514700 0.655690 -0.509469
O13   O     O_R   0.565190 0.485300 0.344310 -0.509470
O14   O     O_R   0.425720 0.485350 0.344280 -0.495625
O15   O     O_R   0.574280 0.514650 0.655720 -0.495634
O16   O     O_2   0.198656 0.220029 0.425305 -0.397281

loop_
_geom_bond_atom_site_label_1
_geom_bond_atom_site_label_2
_ccdc_geom_bond_type
C35   O6    S    
C27   O8    S    
C1    O10   A    
C27   C29   A    
Cu1   O15   S    
C18   H3    S    
C24   C39   A    
H11   N4    S    
C24   O2    S    
C39   C41   A    
C23   C42   A    
Cu2   O9    S    
C35   C37   A    
H7    O7    S    
C5    C11   A    
Cu2   O14   S    
H6    O6    S    
C13   H2    S    
C11   C14   A    
Cu1   O11   S    
C22   C38   A    
C12   O11   A    
C33   C36   A    
C3    C29   A    
C18   C40   A    
C21   I4    S    
Cu1   N4    S    
C31   C33   A    
C24   N2    A    
C2    C34   A    
Cu1   O1    S    
C37   N2    S    
C26   O3    S    
C41   I2    S    
C14   H14   S    
N3    N4    D    
C26   N2    A    
C32   C35   A    
C25   N1    A    
Cu2   O13   S    
C36   N1    S    
H10   N3    S    
Cu1   O12   S    
C30   H12   S    
C12   C21   S    
C1    O1    A    
C40   I1    S    
C34   C39   A    
C17   O15   A    
C22   O16   S    
Cu1   Cu2   S    
C22   N1    A    
C5    C9    A    
C12   O9    A    
C16   O14   A    
C2    C26   A    
C25   O4    S    
C3    C31   A    
C4    C32   A    
C4    C17   S    
C33   O5    S    
C29   H13   S    
C7    C19   A    
C13   C15   A    
C9    C34   A    
C10   C23   A    
H5    O5    S    
C11   H16   S    
C32   H9    S    
C7    C9    A    
C1    C20   S    
C19   H4    S    
C15   H15   S    
C15   C42   A    
H8    O8    S    
C25   C42   A    
C6    C10   A    
C5    C8    A    
C6    C7    A    
C27   C36   A    
C23   C38   A    
C20   I3    S    
C28   C30   A    
C6    C13   A    
C38   C40   A    
C28   C37   A    
Cu2   O10   S    
C17   O13   A    
C2    C14   A    
C8    C18   A    
C20   C21   D    
C8    C10   A    
C31   H1    S    
Cu2   N3    S    
C16   O12   A    
C28   O7    S    
C4    C30   A    
C3    C16   S    
C19   C41   A    
