data_str_m3_o14_o14_f0_pcu.sym.221
_audit_creation_date              2012-12-10T17:40:58-0500
_audit_creation_method            fapswitch 2.2
_symmetry_space_group_name_H-M    P1
_symmetry_Int_Tables_number       1
_space_group_crystal_system       triclinic
_cell_length_a                    14.904788
_cell_length_b                    15.31276
_cell_length_c                    9.92889
_cell_angle_alpha                 89.999901
_cell_angle_beta                  90.398091
_cell_angle_gamma                 90.0
_cell_volume                      2266.05003739

loop_
_atom_site_label
_atom_site_type_symbol
_atom_type_description
_atom_site_fract_x
_atom_site_fract_y
_atom_site_fract_z
_atom_type_partial_charge
C1    C     C_R   0.384510 0.876578 0.499751 0.933750
C2    C     C_R   0.381800 0.121140 0.500290 0.932102
C3    C     C_R   0.881800 0.378860 0.500291 0.932101
C4    C     C_R   0.884509 0.623422 0.499751 0.933752
C5    C     C_R   0.231584 0.169066 0.463184 -0.266238
C6    C     C_R   0.256436 0.805880 0.405388 -0.242301
C7    C     C_R   0.756433 0.694117 0.405393 -0.242303
C8    C     C_R   0.731583 0.330935 0.463187 -0.266239
C9    C     C_R   0.692118 0.757293 0.406880 -0.165337
C10   C     C_R   0.666956 0.267183 0.461801 -0.115504
C11   C     C_R   0.166956 0.232818 0.461798 -0.115504
C12   C     C_R   0.192121 0.742704 0.406876 -0.165340
C13   C     C_R   0.695507 0.822574 0.504190 -0.051301
C14   C     C_R   0.690266 0.181933 0.495381 -0.044430
C15   C     C_R   0.190266 0.318067 0.495381 -0.044429
C16   C     C_R   0.195508 0.677425 0.504190 -0.051302
C17   C     C_R   0.336166 0.998737 0.138394 -0.152283
C18   C     C_R   0.836166 0.501264 0.138394 -0.152281
C19   C     C_R   0.255334 0.997657 0.067618 -0.197572
C20   C     C_R   0.755334 0.502343 0.067618 -0.197571
C21   C     C_R   0.255200 0.997494 0.928193 -0.174101
C22   C     C_R   0.755200 0.502506 0.928193 -0.174101
C23   C     C_R   0.335903 0.998432 0.858684 -0.134471
C24   C     C_R   0.835902 0.501568 0.858684 -0.134471
C25   C     C_R   0.419188 0.998924 0.926961 0.173280
C26   C     C_R   0.919188 0.501076 0.926961 0.173280
C27   C     C_R   0.419260 0.999050 0.071476 0.169434
C28   C     C_R   0.919260 0.500950 0.071476 0.169434
C29   C     C_R   0.577200 0.001719 0.072364 -0.105882
C30   C     C_R   0.077200 0.498280 0.072364 -0.105881
C31   C     C_R   0.620403 0.119128 0.499312 0.926939
C32   C     C_R   0.623376 0.883633 0.501095 0.903120
C33   C     C_R   0.123377 0.616367 0.501095 0.903124
C34   C     C_R   0.120403 0.380872 0.499312 0.926941
C35   C     C_R   0.577119 0.002124 0.929489 -0.077670
C36   C     C_R   0.077119 0.497875 0.929489 -0.077671
C37   C     C_R   0.432180 0.300878 0.576004 0.572519
C38   C     C_R   0.414235 0.722187 0.674030 0.611827
C39   C     C_R   0.914238 0.777816 0.674022 0.611826
C40   C     C_R   0.932181 0.199120 0.575996 0.572520
C41   C     C_R   0.457079 0.388617 0.582574 -0.227574
C42   C     C_R   0.416782 0.658123 0.773414 -0.213690
C43   C     C_R   0.916787 0.841881 0.773400 -0.213690
C44   C     C_R   0.957080 0.111382 0.582559 -0.227577
C45   C     C_R   0.845314 0.898718 0.788142 -0.248600
C46   C     C_R   0.895301 0.046624 0.550445 -0.209928
C47   C     C_R   0.395300 0.453376 0.550463 -0.209929
C48   C     C_R   0.345309 0.601287 0.788156 -0.248601
C49   C     C_R   0.772586 0.894009 0.699913 -0.186992
C50   C     C_R   0.806539 0.069013 0.522167 -0.198370
C51   C     C_R   0.306539 0.430987 0.522179 -0.198368
C52   C     C_R   0.272583 0.605994 0.699921 -0.186989
C53   C     C_R   0.766807 0.827981 0.599875 0.020785
C54   C     C_R   0.779795 0.157282 0.518679 0.001235
C55   C     C_R   0.279795 0.342718 0.518685 0.001235
C56   C     C_R   0.266807 0.672020 0.599880 0.020785
C57   C     C_R   0.344516 0.276884 0.533792 -0.008071
C58   C     C_R   0.336547 0.733635 0.591697 -0.038242
C59   C     C_R   0.836548 0.766366 0.591693 -0.038240
C60   C     C_R   0.844516 0.223116 0.533789 -0.008069
C61   C     C_R   0.318776 0.190298 0.502034 -0.070918
C62   C     C_R   0.326597 0.802986 0.498435 -0.084876
C63   C     C_R   0.826596 0.697013 0.498435 -0.084877
C64   C     C_R   0.818776 0.309702 0.502034 -0.070917
H1    H     H_    0.213397 0.102691 0.436245 0.127136
H2    H     H_    0.249730 0.858903 0.333612 0.151656
H3    H     H_    0.749726 0.641093 0.333620 0.151653
H4    H     H_    0.713396 0.397310 0.436251 0.127136
H5    H     H_    0.192147 0.997060 0.873344 0.151379
H6    H     H_    0.692147 0.502940 0.873344 0.151379
H7    H     H_    0.330141 0.999309 0.751847 0.189915
H8    H     H_    0.830141 0.500690 0.751847 0.189915
H9    H     H_    0.640231 0.004803 0.877168 0.128266
H10   H     H_    0.140231 0.495196 0.877168 0.128265
H11   H     H_    0.524853 0.406383 0.611432 0.162166
H12   H     H_    0.475867 0.650678 0.836428 0.167775
H13   H     H_    0.975874 0.849328 0.836410 0.167776
H14   H     H_    0.024855 0.093616 0.611413 0.162166
H15   H     H_    0.848464 0.949948 0.863189 0.172159
H16   H     H_    0.915877 0.978887 0.550023 0.179440
H17   H     H_    0.415876 0.521114 0.550046 0.179440
H18   H     H_    0.348458 0.550059 0.863206 0.172157
H19   H     H_    0.724408 0.945663 0.708889 0.168441
H20   H     H_    0.759649 0.017402 0.498484 0.119872
H21   H     H_    0.259649 0.482599 0.498498 0.119869
H22   H     H_    0.224406 0.554339 0.708897 0.168441
H23   H     H_    0.637269 0.753059 0.334790 0.165523
H24   H     H_    0.598980 0.284170 0.433156 0.166272
H25   H     H_    0.098981 0.215831 0.433151 0.166272
H26   H     H_    0.137274 0.746937 0.334782 0.165525
H27   H     H_    0.640386 0.003186 0.126605 0.147293
H28   H     H_    0.140385 0.496813 0.126605 0.147292
H29   H     H_    0.330799 0.999738 0.245159 0.194315
H30   H     H_    0.830799 0.500263 0.245159 0.194315
H31   H     H_    0.192410 0.997318 0.121482 0.146114
H32   H     H_    0.692410 0.502682 0.121481 0.146114
N1    N     N_R   0.498810 0.000000 0.142780 -0.123949
N2    N     N_R   0.998810 0.500000 0.142780 -0.123949
N3    N     N_R   0.498740 0.000000 0.857170 -0.113823
N4    N     N_R   0.998740 0.500000 0.857170 -0.113824
O1    O     O_R   0.408390 0.908380 0.614690 -0.605168
O2    O     O_R   0.408390 0.091620 0.614690 -0.593466
O3    O     O_R   0.908390 0.408380 0.614690 -0.593467
O4    O     O_R   0.908390 0.591620 0.614690 -0.605169
O5    O     O_R   0.408370 0.908380 0.385360 -0.651568
O6    O     O_R   0.408370 0.091620 0.385360 -0.646508
O7    O     O_R   0.908370 0.408380 0.385360 -0.646508
O8    O     O_R   0.908370 0.591620 0.385360 -0.651567
O9    O     O_R   0.591620 0.091610 0.614640 -0.574240
O10   O     O_R   0.591620 0.908390 0.614640 -0.575036
O11   O     O_R   0.091620 0.591610 0.614640 -0.575037
O12   O     O_R   0.091620 0.408390 0.614640 -0.574242
O13   O     O_R   0.591610 0.091610 0.385310 -0.635372
O14   O     O_R   0.591610 0.908390 0.385310 -0.635123
O15   O     O_R   0.091610 0.591610 0.385310 -0.635123
O16   O     O_R   0.091610 0.408390 0.385310 -0.635372
Zn1   Zn    Zn3+2 0.500010 0.000000 0.653130 1.007223
Zn2   Zn    Zn3+2 0.000010 0.500000 0.653130 1.007221
Zn3   Zn    Zn3+2 0.499980 0.000000 0.346870 0.943174
Zn4   Zn    Zn3+2 0.999980 0.500000 0.346870 0.943174
F1    F     F_    0.493223 0.241022 0.616129 -0.688871
F2    F     F_    0.490931 0.767133 0.653000 -0.675629
F3    F     F_    0.990932 0.732868 0.652992 -0.675631
F4    F     F_    0.993224 0.258976 0.616126 -0.688871

loop_
_geom_bond_atom_site_label_1
_geom_bond_atom_site_label_2
_ccdc_geom_bond_type
C58   C62   A    
C46   H16   S    
C40   C60   A    
O6    Zn3   S    
C34   O12   A    
O8    Zn4   S    
C13   C32   S    
C14   C31   S    
C1    C62   S    
C51   H21   S    
C53   C59   A    
C50   H20   S    
C54   C60   A    
C3    C64   S    
C3    O3    A    
C4    O8    A    
C4    C63   S    
C10   H24   S    
C50   C54   A    
C6    H2    S    
C32   O10   A    
O11   Zn2   S    
C12   H26   S    
C19   C21   A    
C24   C26   A    
C5    C11   A    
C6    C12   A    
C43   H13   S    
C41   H11   S    
C2    O2    A    
C34   O16   A    
C39   F3    S    
C18   C20   A    
C9    C13   A    
O13   Zn3   S    
C11   C15   A    
C25   N3    A    
C35   H9    S    
C12   C16   A    
C48   H18   S    
C33   O11   A    
C15   C34   S    
C13   C53   A    
O14   Zn3   S    
C2    C61   S    
C23   C25   A    
C20   H32   S    
C38   C58   A    
C35   N3    A    
O10   Zn1   S    
C26   C28   A    
C44   C46   A    
O4    Zn2   S    
C41   C47   A    
C40   F4    S    
C33   O15   A    
O9    Zn1   S    
C17   C27   A    
C23   H7    S    
C18   C28   A    
C30   H28   S    
C10   C14   A    
C39   C43   A    
C3    O7    A    
C2    O6    A    
O16   Zn4   S    
C21   H5    S    
C15   C55   A    
N1    Zn3   S    
C44   H14   S    
C16   C56   A    
C16   C33   S    
N3    Zn1   S    
C11   H25   S    
C45   C49   A    
C39   C59   A    
C31   O9    A    
C5    C61   A    
C45   H15   S    
C42   C48   A    
C57   C61   A    
C43   C45   A    
C7    C63   A    
C38   F2    S    
O2    Zn1   S    
C36   H10   S    
C8    C64   A    
C37   F1    S    
C5    H1    S    
C14   C54   A    
C20   C22   A    
C8    H4    S    
C55   C57   A    
C18   H30   S    
C22   C24   A    
O3    Zn2   S    
N4    Zn2   S    
C40   C44   A    
C1    O1    A    
O7    Zn4   S    
C29   H27   S    
C19   H31   S    
C24   H8    S    
C30   N2    A    
C28   N2    A    
C7    C9    A    
C29   C35   A    
C27   N1    A    
C22   H6    S    
C59   C63   A    
C47   C51   A    
C36   N4    A    
N2    Zn4   S    
C30   C36   A    
C25   C27   A    
C46   C50   A    
C42   H12   S    
C29   N1    A    
C60   C64   A    
O1    Zn1   S    
C6    C62   A    
C21   C23   A    
C9    H23   S    
O12   Zn2   S    
C49   H19   S    
C49   C53   A    
C4    O4    A    
C52   H22   S    
C17   C19   A    
C56   C58   A    
C51   C55   A    
C47   H17   S    
C37   C41   A    
C7    H3    S    
C38   C42   A    
C48   C52   A    
C17   H29   S    
C8    C10   A    
O15   Zn4   S    
C26   N4    A    
O5    Zn3   S    
C32   O14   A    
C31   O13   A    
C37   C57   A    
C52   C56   A    
C1    O5    A    
