data_str_m2_o10_o18_f0_pcu.sym.145
_audit_creation_date              2012-12-10T16:45:22-0500
_audit_creation_method            fapswitch 2.2
_symmetry_space_group_name_H-M    P1
_symmetry_Int_Tables_number       1
_space_group_crystal_system       triclinic
_cell_length_a                    7.526527
_cell_length_b                    8.700136
_cell_length_c                    15.807262
_cell_angle_alpha                 95.538431
_cell_angle_beta                  74.872
_cell_angle_gamma                 103.69825
_cell_volume                      970.130829541

loop_
_atom_site_label
_atom_site_type_symbol
_atom_type_description
_atom_site_fract_x
_atom_site_fract_y
_atom_site_fract_z
_atom_type_partial_charge
C1    C     C_R   0.545227 0.800029 0.502836 0.873178
C2    C     C_R   0.454768 0.199970 0.497171 0.873136
C3    C     C_R   0.291171 0.377173 0.074421 -0.216456
C4    C     C_R   0.709016 0.622265 0.925497 -0.216439
C5    C     C_R   0.161399 0.341547 0.023387 -0.219298
C6    C     C_R   0.838801 0.657844 0.976524 -0.219297
C7    C     C_2   0.569435 0.968562 0.504729 -0.314003
C8    C     C_2   0.430549 0.031437 0.495288 -0.314095
C9    C     C_R   0.384444 0.487767 0.666037 0.790666
C10   C     C_R   0.615554 0.512212 0.333962 0.790571
C11   C     C_R   0.314398 0.468512 0.761162 -0.048126
C12   C     C_R   0.685603 0.531343 0.238828 -0.048164
C13   C     C_R   0.080831 0.344918 0.885834 -0.185043
C14   C     C_R   0.919317 0.654583 0.114102 -0.185123
C15   C     C_R   0.133615 0.380188 0.797508 -0.197805
C16   C     C_R   0.866483 0.619454 0.202449 -0.197649
C17   C     C_R   0.439855 0.524691 0.814515 -0.222549
C18   C     C_R   0.560108 0.475194 0.185485 -0.222736
C19   C     C_R   0.393673 0.484747 0.903071 0.078637
C20   C     C_R   0.606396 0.514915 0.096892 0.078639
C21   C     C_R   0.210734 0.392283 0.938005 0.152624
C22   C     C_R   0.789400 0.607242 0.061935 0.152657
C23   C     C_R   0.525983 0.527534 0.956465 0.065172
C24   C     C_R   0.474122 0.472054 0.043484 0.065171
Cu1   Cu    Cu3+1 0.322120 0.483240 0.490330 1.006223
Cu2   Cu    Cu3+1 0.677880 0.516760 0.509670 1.006194
H1    H     H_    0.022678 0.269101 0.050233 0.151067
H2    H     H_    0.977597 0.730149 0.949646 0.151104
H3    H     H_    0.423926 0.406341 0.216466 0.162967
H4    H     H_    0.575911 0.593783 0.783565 0.162752
H5    H     H_    0.963665 0.667974 0.242977 0.195274
H6    H     H_    0.036485 0.331619 0.756966 0.195134
H7    H     H_    0.941096 0.274020 0.912403 0.146447
H8    H     H_    0.059119 0.725345 0.087508 0.146444
H9    H     H_    0.243250 0.325084 0.137525 0.141673
H10   H     H_    0.757058 0.674189 0.862350 0.141651
H11   H     H_    0.702303 0.041126 0.514150 0.204940
H12   H     H_    0.297678 0.958871 0.485870 0.204787
N1    N     N_2   0.945180 0.542040 0.524240 -0.226529
N2    N     N_2   0.054820 0.457960 0.475760 -0.226496
O1    O     O_R   0.384450 0.714270 0.493720 -0.563407
O2    O     O_R   0.615550 0.285730 0.506280 -0.563464
O3    O     O_R   0.684880 0.742590 0.510050 -0.592771
O4    O     O_R   0.315120 0.257410 0.489950 -0.592737
O5    O     O_R   0.265540 0.477900 0.617090 -0.590914
O6    O     O_R   0.734460 0.522100 0.382910 -0.590898
O7    O     O_R   0.565970 0.506210 0.633420 -0.578832
O8    O     O_R   0.434030 0.493790 0.366580 -0.578889
C25   C     C_2   0.980579 0.603676 0.605616 1.117889
O9    O     O_2   0.063262 0.741353 0.612693 -0.643063
O10   O     O_R   0.903466 0.511836 0.679507 -0.781677
H13   H     H_    0.933336 0.570827 0.734298 0.294253
C26   C     C_2   0.019221 0.395959 0.394458 1.117849
O11   O     O_2   0.936723 0.258157 0.387548 -0.643093
O12   O     O_R   0.096058 0.487508 0.320438 -0.781808
H14   H     H_    0.066094 0.428245 0.265709 0.294260

loop_
_geom_bond_atom_site_label_1
_geom_bond_atom_site_label_2
_ccdc_geom_bond_type
C14   H8    S    
C19   C23   A    
C23   C24   A    
C4    H10   S    
C9    O5    A    
C19   C21   A    
C6    H2    S    
C3    H9    S    
O12   H14   S    
C14   C22   A    
C26   O12   S    
C7    H11   S    
C3    C5    A    
C13   C21   A    
C7    C8    D    
C18   H3    S    
C1    C7    S    
C26   O11   D    
C16   H5    S    
C13   H7    S    
C17   H4    S    
C9    C11   S    
Cu1   O8    S    
C3    C24   A    
C8    H12   S    
Cu2   O7    S    
C2    O2    A    
C10   C12   S    
Cu1   O4    S    
C1    O1    A    
C17   C19   A    
C20   C22   A    
Cu2   O3    S    
C9    O7    A    
C18   C20   A    
C13   C15   A    
Cu1   N2    S    
C10   O8    A    
C14   C16   A    
Cu2   N1    S    
Cu2   O6    S    
Cu1   O1    S    
O10   H13   S    
C6    C22   A    
Cu1   O5    S    
C10   O6    A    
C15   H6    S    
C5    C21   A    
Cu2   O2    S    
C4    C6    A    
N2    C26   S    
C12   C18   A    
N1    N2    D    
C25   O9    D    
C4    C23   A    
C20   C24   A    
C11   C17   A    
N1    C25   S    
Cu1   Cu2   S    
C5    H1    S    
C11   C15   A    
C1    O3    A    
C2    C8    S    
C12   C16   A    
C2    O4    A    
C25   O10   S    
