data_str_m2_o10_o28_f0_pcu.sym.170
_audit_creation_date              2012-12-10T16:50:11-0500
_audit_creation_method            fapswitch 2.2
_symmetry_space_group_name_H-M    P1
_symmetry_Int_Tables_number       1
_space_group_crystal_system       triclinic
_cell_length_a                    23.398229
_cell_length_b                    8.690076
_cell_length_c                    7.446157
_cell_angle_alpha                 103.284617
_cell_angle_beta                  93.702708
_cell_angle_gamma                 93.570919
_cell_volume                      1465.81044326

loop_
_atom_site_label
_atom_site_type_symbol
_atom_type_description
_atom_site_fract_x
_atom_site_fract_y
_atom_site_fract_z
_atom_type_partial_charge
C1    C     C_R   0.498228 0.199520 0.452903 0.873746
C2    C     C_R   0.501787 0.800484 0.547095 0.874579
C3    C     C_R   0.245297 0.645869 0.570462 0.213482
C4    C     C_R   0.750305 0.324748 0.444711 0.206787
C5    C     C_R   0.304854 0.641654 0.568307 -0.218904
C6    C     C_R   0.691233 0.340355 0.446344 -0.195657
C7    C     C_R   0.329272 0.498087 0.510171 -0.052018
C8    C     C_R   0.670302 0.490322 0.488332 -0.054227
C9    C     C_R   0.294645 0.355799 0.457921 -0.274665
C10   C     C_R   0.708035 0.627076 0.526978 -0.276979
C11   C     C_R   0.234970 0.355675 0.464595 0.020378
C12   C     C_R   0.767292 0.614544 0.521426 0.016475
C13   C     C_R   0.209773 0.502008 0.518208 0.319106
C14   C     C_R   0.788674 0.462406 0.481362 0.317551
C15   C     C_2   0.497452 0.031372 0.426679 -0.373567
C16   C     C_2   0.502587 0.968638 0.573316 -0.371952
C17   C     C_R   0.391222 0.497639 0.502712 0.801291
C18   C     C_R   0.608782 0.501931 0.497232 0.799636
C19   C     C_R   0.881260 0.494134 0.655767 0.546094
C20   C     C_R   0.116421 0.456130 0.345419 0.542396
C21   C     C_R   0.875543 0.406174 0.325990 0.509858
C22   C     C_R   0.122243 0.540253 0.675540 0.499149
C23   C     C_R   0.935553 0.408820 0.328572 -0.013832
C24   C     C_R   0.062194 0.533332 0.673554 -0.015208
C25   C     C_R   0.968634 0.464086 0.498767 -0.018550
C26   C     C_R   0.029114 0.477914 0.503448 -0.019325
C27   C     C_R   0.941388 0.507361 0.664043 -0.022412
C28   C     C_R   0.056348 0.436686 0.337960 -0.023776
C29   C     C_R   0.963208 0.361829 0.165267 -0.194062
C30   C     C_R   0.034555 0.578737 0.837079 -0.187503
C31   C     C_R   0.023038 0.375471 0.169972 -0.190468
C32   C     C_R   0.974735 0.566469 0.832319 -0.192680
Cu1   Cu    Cu3+1 0.506340 0.517380 0.684380 0.957413
Cu2   Cu    Cu3+1 0.493660 0.482620 0.315620 0.956977
H1    H     H_    0.938733 0.316179 0.033149 0.183976
H2    H     H_    0.059043 0.623761 0.969138 0.185082
H3    H     H_    0.043077 0.338162 0.041632 0.190745
H4    H     H_    0.954736 0.604219 0.960671 0.190720
H5    H     H_    0.332295 0.751278 0.607934 0.139135
H6    H     H_    0.661345 0.235631 0.419504 0.132789
H7    H     H_    0.314265 0.244835 0.414560 0.135453
H8    H     H_    0.691329 0.742976 0.560760 0.137893
H9    H     H_    0.492662 0.958919 0.285727 0.181294
H10   H     H_    0.507379 0.041093 0.714267 0.181544
H11   H     H_    0.454538 0.378003 0.949174 0.226694
H12   H     H_    0.545461 0.621999 0.050826 0.226790
N1    N     N_R   0.849704 0.449303 0.488048 -0.460174
N2    N     N_R   0.148156 0.503106 0.512842 -0.466575
N3    N     N_2   0.484110 0.456420 0.038520 -0.213094
N4    N     N_2   0.515890 0.543580 0.961480 -0.212897
O1    O     O_R   0.504120 0.286130 0.619770 -0.582222
O2    O     O_R   0.495880 0.713870 0.380230 -0.582648
O3    O     O_R   0.493410 0.256770 0.308360 -0.586439
O4    O     O_R   0.506590 0.743230 0.691640 -0.586342
O5    O     O_R   0.423230 0.514630 0.655730 -0.582577
O6    O     O_R   0.576770 0.485370 0.344270 -0.581631
O7    O     O_R   0.412530 0.485280 0.344320 -0.570462
O8    O     O_R   0.587470 0.514720 0.655680 -0.569629
O9    O     O_2   0.854388 0.528798 0.813468 -0.525494
O10   O     O_2   0.143061 0.426491 0.187028 -0.519044
O11   O     O_2   0.843319 0.365505 0.162828 -0.537556
O12   O     O_2   0.154565 0.581611 0.838464 -0.529160
C33   C     C_3   0.221823 0.805889 0.624755 -0.806096
H13   H     H_    0.174362 0.798973 0.613823 0.238330
H14   H     H_    0.237481 0.864015 0.769922 0.225233
H15   H     H_    0.236978 0.881375 0.532847 0.234268
C34   C     C_3   0.771975 0.162168 0.414333 -0.816913
H16   H     H_    0.795897 0.136688 0.288453 0.251140
H17   H     H_    0.800680 0.156606 0.536291 0.253678
H18   H     H_    0.736377 0.067951 0.397458 0.216887
C35   C     C_R   0.199136 0.202513 0.410295 0.122539
C36   C     C_R   0.159100 0.161644 0.528006 -0.157184
C37   C     C_R   0.121946 0.024282 0.469394 -0.172703
C38   C     C_R   0.125553 0.923988 0.295324 -0.088325
C39   C     C_R   0.166111 0.961485 0.179093 -0.112824
C40   C     C_R   0.202794 0.100079 0.236004 -0.121639
H19   H     H_    0.156338 0.236523 0.664534 0.166886
H20   H     H_    0.090825 0.994504 0.559935 0.139842
H21   H     H_    0.097165 0.816846 0.251347 0.134450
H22   H     H_    0.168753 0.884094 0.044074 0.176518
H23   H     H_    0.233050 0.129386 0.142529 0.139177
C41   C     C_R   0.807067 0.760268 0.566782 0.109291
C42   C     C_R   0.810388 0.861672 0.744417 -0.098934
C43   C     C_R   0.852238 0.989444 0.794557 -0.125151
C44   C     C_R   0.890634 0.017883 0.667348 -0.124049
C45   C     C_R   0.886706 0.919852 0.488904 -0.151521
C46   C     C_R   0.845042 0.791709 0.438424 -0.156207
H24   H     H_    0.781830 0.838756 0.845763 0.144835
H25   H     H_    0.855191 0.065591 0.932525 0.168144
H26   H     H_    0.922975 0.116820 0.706245 0.132337
H27   H     H_    0.916086 0.942805 0.389906 0.141241
H28   H     H_    0.842883 0.715833 0.300327 0.171450

loop_
_geom_bond_atom_site_label_1
_geom_bond_atom_site_label_2
_ccdc_geom_bond_type
Cu1   O5    S    
C22   N2    A    
C33   H14   S    
Cu2   O6    S    
Cu1   O8    S    
C10   H8    S    
C37   C38   A    
C44   C45   A    
C23   C29   A    
C24   C26   A    
C45   H27   S    
C35   C40   A    
C11   C35   S    
C41   C46   A    
C1    O3    A    
Cu2   O2    S    
C18   O8    A    
C7    C17   S    
Cu2   O7    S    
C37   H20   S    
C1    C15   S    
C32   H4    S    
C20   O10   S    
C19   C27   A    
C39   H22   S    
C17   O5    A    
C21   O11   S    
C3    C13   A    
C18   O6    A    
C42   H24   S    
C33   H15   S    
C46   H28   S    
C10   C12   A    
C38   C39   A    
C34   H16   S    
C43   C44   A    
C4    C6    A    
C2    O4    A    
C5    C7    A    
C45   C46   A    
C6    C8    A    
C20   C28   A    
C19   O9    S    
Cu1   N4    S    
C8    C18   S    
C31   H3    S    
C34   H17   S    
C39   C40   A    
C36   H19   S    
C22   O12   S    
C9    C11   A    
C42   C43   A    
H11   N3    S    
Cu1   Cu2   S    
C12   C41   S    
C1    O1    A    
C20   N2    A    
C2    O2    A    
C12   C14   A    
C41   C42   A    
C38   H21   S    
C21   C23   A    
C22   C24   A    
Cu1   O1    S    
C43   H25   S    
C2    C16   S    
Cu1   O4    S    
C7    C9    A    
C16   H10   S    
Cu2   N3    S    
C27   C32   A    
C26   C28   A    
C28   C31   A    
C36   C37   A    
C3    C5    A    
C4    C34   S    
C40   H23   S    
C13   N2    S    
C44   H26   S    
C14   N1    S    
C3    C33   S    
C25   C27   A    
C29   H1    S    
H12   N4    S    
C9    H7    S    
C30   H2    S    
C34   H18   S    
C5    H5    S    
C25   C26   A    
C15   H9    S    
C35   C36   A    
C29   C31   A    
C30   C32   A    
C11   C13   A    
C6    H6    S    
C23   C25   A    
C4    C14   A    
C24   C30   A    
C33   H13   S    
Cu2   O3    S    
C8    C10   A    
N3    N4    D    
C19   N1    A    
C15   C16   D    
C17   O7    A    
C21   N1    A    
