data_str_m2_o10_o28_f0_pcu.sym.156
_audit_creation_date              2012-12-10T16:50:10-0500
_audit_creation_method            fapswitch 2.2
_symmetry_space_group_name_H-M    P1
_symmetry_Int_Tables_number       1
_space_group_crystal_system       triclinic
_cell_length_a                    23.474244
_cell_length_b                    8.778763
_cell_length_c                    7.416813
_cell_angle_alpha                 102.406669
_cell_angle_beta                  94.162166
_cell_angle_gamma                 92.522467
_cell_volume                      1485.99890857

loop_
_atom_site_label
_atom_site_type_symbol
_atom_type_description
_atom_site_fract_x
_atom_site_fract_y
_atom_site_fract_z
_atom_type_partial_charge
C1    C     C_R   0.499839 0.200992 0.454933 0.881840
C2    C     C_R   0.500161 0.799008 0.545066 0.881839
C3    C     C_R   0.233778 0.476711 0.345181 -0.097315
C4    C     C_R   0.766222 0.523261 0.654815 -0.097316
C5    C     C_R   0.292986 0.477358 0.341499 -0.195055
C6    C     C_R   0.707014 0.522616 0.658497 -0.195050
C7    C     C_R   0.328371 0.499404 0.507460 -0.032446
C8    C     C_R   0.671629 0.500594 0.492540 -0.032444
C9    C     C_R   0.303382 0.520921 0.677127 -0.181979
C10   C     C_R   0.696618 0.479100 0.322874 -0.181979
C11   C     C_R   0.244028 0.520731 0.680351 -0.093114
C12   C     C_R   0.755973 0.479289 0.319650 -0.093113
C13   C     C_R   0.209217 0.498485 0.514331 0.358373
C14   C     C_R   0.790782 0.501511 0.485667 0.358377
C15   C     C_2   0.507042 0.037366 0.432914 -0.245784
C16   C     C_2   0.492959 0.962634 0.567086 -0.245785
C17   C     C_R   0.390917 0.499690 0.502484 0.820353
C18   C     C_R   0.609083 0.500309 0.497516 0.820353
C19   C     C_R   0.883351 0.640620 0.523698 0.535892
C20   C     C_R   0.116649 0.359376 0.476300 0.535891
C21   C     C_R   0.876756 0.361233 0.447705 0.539918
C22   C     C_R   0.123243 0.638763 0.552294 0.539917
C23   C     C_R   0.936507 0.357779 0.453461 -0.015803
C24   C     C_R   0.063492 0.642216 0.546537 -0.015802
C25   C     C_R   0.969901 0.500236 0.495997 -0.016899
C26   C     C_R   0.030099 0.499760 0.504002 -0.016899
C27   C     C_R   0.943238 0.643164 0.530817 -0.014063
C28   C     C_R   0.056762 0.356832 0.469181 -0.014063
C29   C     C_R   0.963531 0.215956 0.419312 -0.161327
C30   C     C_R   0.036468 0.784040 0.580687 -0.161328
C31   C     C_R   0.023067 0.215483 0.427132 -0.171692
C32   C     C_R   0.976932 0.784513 0.572866 -0.171691
Cu1   Cu    Cu3+1 0.506340 0.517380 0.684380 0.981533
Cu2   Cu    Cu3+1 0.493660 0.482620 0.315620 0.981533
H1    H     H_    0.938803 0.104971 0.386536 0.194245
H2    H     H_    0.061197 0.895025 0.613463 0.194245
H3    H     H_    0.042549 0.104146 0.399812 0.186864
H4    H     H_    0.957451 0.895850 0.600186 0.186864
H5    H     H_    0.206881 0.459818 0.216650 0.137468
H6    H     H_    0.793118 0.540137 0.783344 0.137463
H7    H     H_    0.310953 0.460459 0.208696 0.161831
H8    H     H_    0.689046 0.539497 0.791299 0.161828
H9    H     H_    0.329595 0.538142 0.807042 0.161717
H10   H     H_    0.670406 0.461898 0.192962 0.161712
H11   H     H_    0.225051 0.537603 0.811466 0.136004
H12   H     H_    0.774949 0.462435 0.188537 0.135998
H13   H     H_    0.452903 0.386695 0.950292 0.225544
H14   H     H_    0.547097 0.613305 0.049708 0.225543
N1    N     N_R   0.851637 0.501135 0.483365 -0.476386
N2    N     N_R   0.148363 0.498861 0.516633 -0.476386
N3    N     N_2   0.484110 0.456420 0.038520 -0.224685
N4    N     N_2   0.515890 0.543580 0.961480 -0.224685
O1    O     O_R   0.504120 0.286130 0.619770 -0.616367
O2    O     O_R   0.495880 0.713870 0.380230 -0.616367
O3    O     O_R   0.493410 0.256770 0.308360 -0.563130
O4    O     O_R   0.506590 0.743230 0.691640 -0.563130
O5    O     O_R   0.423230 0.514630 0.655730 -0.586717
O6    O     O_R   0.576770 0.485370 0.344270 -0.586716
O7    O     O_R   0.412530 0.485280 0.344320 -0.586453
O8    O     O_R   0.587470 0.514720 0.655680 -0.586453
O9    O     O_2   0.856939 0.776119 0.557141 -0.508897
O10   O     O_2   0.143061 0.223877 0.442857 -0.508898
O11   O     O_2   0.843978 0.226183 0.408595 -0.502412
O12   O     O_2   0.156021 0.773813 0.591404 -0.502414
C33   C     C_2   0.532731 0.962482 0.260257 0.392501
H15   H     H_    0.509528 0.868310 0.159629 0.112670
O13   O     O_2   0.579163 0.012222 0.225764 -0.536223
C34   C     C_2   0.467269 0.037518 0.739743 0.392503
H16   H     H_    0.490473 0.131690 0.840372 0.112671
O14   O     O_2   0.420837 0.987780 0.774235 -0.536225

loop_
_geom_bond_atom_site_label_1
_geom_bond_atom_site_label_2
_ccdc_geom_bond_type
H13   N3    S    
C5    H7    S    
C20   O10   S    
C4    H6    S    
C16   C34   S    
C32   H4    S    
C30   C32   A    
C2    C16   S    
Cu1   O5    S    
C29   H1    S    
C26   C28   A    
C3    C13   A    
C10   H10   S    
C30   H2    S    
C22   N2    A    
Cu1   O4    S    
C21   N1    A    
Cu1   Cu2   S    
C1    O3    A    
C3    H5    S    
Cu2   O3    S    
C29   C31   A    
C2    O4    A    
Cu1   N4    S    
C4    C14   A    
C9    C11   A    
C24   C26   A    
Cu2   N3    S    
C10   C12   A    
C17   O7    A    
C11   H11   S    
C1    C15   S    
C6    C8    A    
C18   O8    A    
C19   C27   A    
C19   O9    S    
Cu2   O2    S    
Cu1   O8    S    
C24   C30   A    
C23   C25   A    
C21   C23   A    
Cu1   O1    S    
Cu2   O7    S    
Cu2   O6    S    
C22   C24   A    
C19   N1    A    
C9    H9    S    
C14   N1    S    
C25   C27   A    
C15   C16   D    
C27   C32   A    
C22   O12   S    
C13   N2    S    
C15   C33   S    
C23   C29   A    
C11   C13   A    
N3    N4    D    
C7    C9    A    
C33   H15   S    
C2    O2    A    
C17   O5    A    
C28   C31   A    
C5    C7    A    
C34   O14   D    
C1    O1    A    
C20   N2    A    
C33   O13   D    
C20   C28   A    
C7    C17   S    
C25   C26   A    
H14   N4    S    
C4    C6    A    
C6    H8    S    
C18   O6    A    
C8    C10   A    
C8    C18   S    
C31   H3    S    
C21   O11   S    
C12   C14   A    
C34   H16   S    
C3    C5    A    
C12   H12   S    
