data_str_m9_o11_o16_f0_sra.sym.170
_audit_creation_date              2012-12-11T14:17:34-0500
_audit_creation_method            fapswitch 2.2
_symmetry_space_group_name_H-M    P1
_symmetry_Int_Tables_number       1
_space_group_crystal_system       triclinic
_cell_length_a                    6.942739
_cell_length_b                    13.645583
_cell_length_c                    20.439758
_cell_angle_alpha                 102.192409
_cell_angle_beta                  89.958683
_cell_angle_gamma                 90.797822
_cell_volume                      1892.54969571

loop_
_atom_site_label
_atom_site_type_symbol
_atom_type_description
_atom_site_fract_x
_atom_site_fract_y
_atom_site_fract_z
_atom_type_partial_charge
O1    O     O_R   0.506860 0.599390 0.449240 -0.539822
O2    O     O_R   0.180220 0.594600 0.586780 -0.551322
O3    O     O_R   0.004500 0.400610 0.550760 -0.536329
C1    C     C_R   0.349567 0.616933 0.612998 0.676004
O4    O     O_R   0.177490 0.611290 0.451970 -0.541284
O5    O     O_R   0.001750 0.417420 0.414990 -0.537142
C2    C     C_R   0.347099 0.637785 0.435042 0.694623
O6    O     O_R   0.509610 0.582580 0.585010 -0.541634
O7    O     O_3   0.337420 0.436370 0.488020 -0.368825
V1    V     V_3+5 0.064680 0.511800 0.502220 1.423753
O8    O     O_R   0.671710 0.405400 0.413220 -0.547578
C3    C     C_R   0.839683 0.383977 0.386550 0.756774
O9    O     O_R   0.674440 0.388710 0.548030 -0.547403
C4    C     C_R   0.842346 0.362209 0.564650 0.737523
V2    V     V_3+5 0.564010 0.488200 0.497780 1.413673
O10   O     O_3   0.841140 0.563630 0.511980 -0.375155
C5    C     C_R   0.837596 0.109083 0.609466 -0.180929
H1    H     H_    0.836456 0.983256 0.690214 0.131995
H2    H     H_    0.830780 0.030511 0.584808 0.109934
C6    C     C_R   0.847689 0.283535 0.603047 -0.046499
C7    C     C_R   0.871573 0.312765 0.926015 -0.193113
C8    C     C_R   0.870715 0.388199 0.890174 -0.107131
C9    C     C_R   0.864344 0.364832 0.820656 -0.151755
C10   C     C_R   0.857514 0.263892 0.784544 0.046641
C11   C     C_R   0.855902 0.185546 0.821507 0.064139
C12   C     C_R   0.852620 0.238670 0.712935 0.074222
C13   C     C_R   0.844224 0.136446 0.679609 0.075545
C14   C     C_R   0.842191 0.061365 0.716083 -0.232093
C15   C     C_R   0.847961 0.083959 0.785747 0.146909
C16   C     C_R   0.855636 0.311406 0.672884 -0.267435
C17   C     C_R   0.837766 0.182183 0.570752 0.195884
C18   C     C_R   0.864253 0.212176 0.892945 -0.075465
H3    H     H_    0.862439 0.390670 0.693999 0.097936
H4    H     H_    0.878051 0.333005 0.980198 0.100187
H5    H     H_    0.864691 0.428148 0.796978 0.098143
H6    H     H_    0.875393 0.465785 0.916601 0.123371
C19   C     C_2   0.005240 0.288569 0.285195 -0.128515
C20   C     C_2   0.841934 0.315547 0.319805 -0.302679
H7    H     H_    0.142522 0.317101 0.307271 0.133453
H8    H     H_    0.703150 0.287463 0.299411 0.124113
C21   C     C_2   0.013774 0.220532 0.217597 -0.133749
C22   C     C_2   0.858713 0.183217 0.180368 -0.303668
H9    H     H_    0.156732 0.201328 0.197775 0.131481
H10   H     H_    0.714506 0.201635 0.198647 0.126086
C23   C     C_2   0.207605 0.780172 0.785260 -0.122609
C24   C     C_2   0.364542 0.809511 0.822963 -0.261779
H11   H     H_    0.067026 0.804367 0.804797 0.121835
H12   H     H_    0.502726 0.776655 0.807634 0.167629
C25   C     C_2   0.212699 0.706799 0.719965 -0.128177
C26   C     C_2   0.363358 0.692173 0.676836 0.052639
H13   H     H_    0.080495 0.663852 0.706270 0.089738
C27   C     C_R   0.393933 0.887565 0.386407 -0.155335
H14   H     H_    0.388558 0.838128 0.479349 0.103362
H15   H     H_    0.411875 0.011948 0.302923 0.125048
H16   H     H_    0.410421 0.965684 0.411233 0.116689
C28   C     C_R   0.358957 0.714305 0.394618 -0.031833
C29   C     C_R   0.333679 0.681580 0.070390 -0.006306
C30   C     C_R   0.330991 0.606459 0.107238 -0.152548
C31   C     C_R   0.342529 0.629931 0.176703 -0.181018
C32   C     C_R   0.357526 0.730508 0.212349 0.080292
C33   C     C_R   0.366276 0.807684 0.174908 0.054975
C34   C     C_R   0.364678 0.756909 0.283907 0.076019
C35   C     C_R   0.385226 0.859524 0.316254 0.139488
C36   C     C_R   0.396363 0.933575 0.278534 -0.199723
C37   C     C_R   0.386192 0.908369 0.209158 -0.187328
C38   C     C_R   0.350722 0.685206 0.324784 -0.213775
C39   C     C_R   0.381269 0.815314 0.425309 -0.177031
C40   C     C_R   0.354112 0.782784 0.103859 -0.121938
H17   H     H_    0.332534 0.606160 0.304281 0.092693
H18   H     H_    0.339095 0.567054 0.200833 0.113776
H19   H     H_    0.316774 0.528469 0.081864 0.125647
H20   H     H_    0.393946 0.969059 0.182605 0.117737
O11   O     O_R   0.203230 0.917310 0.915020 -0.532788
O12   O     O_R   0.535500 0.888690 0.048040 -0.542584
O13   O     O_R   0.711080 0.082610 0.085000 -0.547476
C41   C     C_R   0.365816 0.861609 0.064541 0.697255
O14   O     O_R   0.532630 0.905370 0.913230 -0.542180
O15   O     O_R   0.708190 0.099410 0.949230 -0.531236
C42   C     C_R   0.364109 0.882312 0.887431 0.743770
O16   O     O_R   0.206120 0.900510 0.050790 -0.543875
O17   O     O_3   0.375360 0.063570 0.011990 -0.376153
V3    V     V_3+5 0.648170 0.988200 0.997780 1.432713
O18   O     O_R   0.038240 0.111390 0.951940 -0.540460
C43   C     C_R   0.870211 0.137758 0.935059 0.776360
O19   O     O_R   0.041120 0.094710 0.086750 -0.545155
C44   C     C_R   0.872608 0.115699 0.113544 0.731880
V4    V     V_3+5 0.148810 0.011930 0.002180 1.431477
O20   O     O_3   0.871750 0.936430 0.988010 -0.370575
N1    N     N_3   0.829464 0.154317 0.498911 -0.681133
H21   H     H_    0.695710 0.176332 0.483940 0.218574
H22   H     H_    0.834025 0.076362 0.482884 0.227913
N2    N     N_3   0.534532 0.753548 0.689506 -0.678117
H23   H     H_    0.651904 0.706714 0.690562 0.221658
H24   H     H_    0.554189 0.789426 0.649523 0.222810
C45   C     C_R   0.310287 0.651476 0.996922 0.067411
C46   C     C_R   0.453557 0.595632 0.957778 -0.137660
C47   C     C_R   0.424823 0.560565 0.889053 -0.118698
C48   C     C_R   0.252423 0.580007 0.859233 -0.079467
C49   C     C_R   0.109633 0.635966 0.897860 -0.142470
C50   C     C_R   0.138252 0.671740 0.966500 -0.122872
H25   H     H_    0.586360 0.578667 0.980597 0.106297
H26   H     H_    0.535342 0.517531 0.859000 0.110808
H27   H     H_    0.229554 0.551828 0.806183 0.105728
H28   H     H_    0.976060 0.650850 0.874698 0.102588
H29   H     H_    0.024937 0.713215 0.996143 0.120363
N3    N     N_3   0.848613 0.001696 0.819049 -0.654856
H30   H     H_    0.972294 0.960569 0.803939 0.223327
H31   H     H_    0.728452 0.955790 0.803147 0.235790

loop_
_geom_bond_atom_site_label_1
_geom_bond_atom_site_label_2
_ccdc_geom_bond_type
O18   V4    S    
V4    O20   S    
C21   C22   D    
C45   C46   A    
C1    O6    A    
C47   C48   A    
C28   C39   A    
C6    C16   A    
C23   C24   D    
C50   H29   S    
C19   C20   D    
O12   C41   A    
C7    C8    A    
C14   C15   A    
C10   C12   A    
O16   V4    S    
O5    C3    A    
C24   C42   S    
V3    O20   S    
C30   H19   S    
C38   H17   S    
N3    H30   S    
V2    O10   S    
C48   C49   A    
C32   C34   A    
O11   V4    S    
O8    V2    S    
O18   C43   A    
C17   N1    S    
C9    C10   A    
C22   C44   S    
N1    H22   S    
O7    V1    S    
C47   H26   S    
C27   H16   S    
C11   C18   A    
C23   H11   S    
C49   H28   S    
C31   C32   A    
O9    C4    A    
C3    C20   S    
C21   H9    S    
C22   H10   S    
C2    C28   S    
O12   V3    S    
O17   V3    S    
O14   C42   A    
C11   C15   A    
C18   C43   S    
C7    C18   A    
C24   H12   S    
C34   C38   A    
O19   V4    S    
C5    C13   A    
C4    C6    S    
H1    C14   S    
C10   C11   A    
O4    C2    A    
C45   C50   A    
C7    H4    S    
C25   H13   S    
C30   C31   A    
O19   C44   A    
C1    C26   S    
C32   C33   A    
O2    C1    A    
C34   C35   A    
C33   C37   A    
O15   V3    S    
O13   C44   A    
C49   C50   A    
C23   C25   S    
C46   C47   A    
N2    H24   S    
C12   C13   A    
C27   C39   A    
O17   V4    S    
O3    C4    A    
O1    V2    S    
C26   N2    S    
C12   C16   A    
O6    V2    S    
C9    H5    S    
O9    V2    S    
C5    C17   A    
C15   N3    S    
C29   C40   A    
O2    V1    S    
C16   H3    S    
O1    C2    A    
C41   O16   A    
O11   C42   A    
C27   C35   A    
O5    V1    S    
O8    C3    A    
O13   V3    S    
C40   C41   S    
C37   H20   S    
C8    H6    S    
C36   C37   A    
O7    V2    S    
O4    V1    S    
C19   H7    S    
O3    V1    S    
V1    O10   S    
C20   H8    S    
C33   C40   A    
C29   C30   A    
N3    H31   S    
O14   V3    S    
C28   C38   A    
N2    H23   S    
C5    H2    S    
C19   C21   S    
H14   C39   S    
C31   H18   S    
C35   C36   A    
O15   C43   A    
H15   C36   S    
C25   C26   D    
C29   C45   S    
C13   C14   A    
C8    C9    A    
N1    H21   S    
C46   H25   S    
C48   H27   S    
C6    C17   A    
