data_str_m2_o5_o28_f0_pcu.sym.54
_audit_creation_date              2013-03-05T16:35:52-0500
_audit_creation_method            fapswitch 2.2
_symmetry_space_group_name_H-M    P1
_symmetry_Int_Tables_number       1
_space_group_crystal_system       triclinic
_cell_length_a                    23.549835
_cell_length_b                    9.088445
_cell_length_c                    7.779334
_cell_angle_alpha                 90.003341
_cell_angle_beta                  90.020353
_cell_angle_gamma                 90.118326
_cell_volume                      1665.01793414

loop_
_atom_site_label
_atom_site_type_symbol
_atom_site_description
_atom_site_fract_x
_atom_site_fract_y
_atom_site_fract_z
_atom_type_partial_charge
O1    O     O_R   0.500000 0.288390 0.642760 -0.574571
O2    O     O_R   0.500000 0.711610 0.357240 -0.574506
O3    O     O_R   0.500000 0.711610 0.642760 -0.574772
O4    O     O_R   0.500000 0.288390 0.357240 -0.574871
C1    C     C_R   0.499993 0.220003 0.499997 0.852832
C2    C     C_R   0.500008 0.779997 0.500003 0.853041
O5    O     O_R   0.417880 0.500000 0.642820 -0.584775
O6    O     O_R   0.582120 0.500000 0.357180 -0.585509
O7    O     O_R   0.582120 0.500000 0.642820 -0.584679
O8    O     O_R   0.417880 0.500000 0.357180 -0.585587
C3    C     C_R   0.208967 0.494036 0.494484 0.336847
C4    C     C_R   0.791035 0.499417 0.495578 0.332441
C5    C     C_R   0.390610 0.499674 0.499879 0.797029
C6    C     C_R   0.609389 0.500137 0.499949 0.797310
Cu1   Cu    Cu3+1 0.500000 0.500000 0.669080 1.009276
Cu2   Cu    Cu3+1 0.500000 0.500000 0.330920 1.008855
H1    H     H_    0.217009 0.500456 0.218240 0.136743
H2    H     H_    0.783079 0.486016 0.219557 0.143975
H3    H     H_    0.214862 0.488371 0.771385 0.140079
H4    H     H_    0.785063 0.512806 0.772170 0.147880
C7    C     C_R   0.298482 0.500683 0.341861 -0.199124
C8    C     C_R   0.701558 0.492971 0.342487 -0.199731
C9    C     C_R   0.297400 0.493692 0.653709 -0.203275
C10   C     C_R   0.702557 0.507320 0.654098 -0.206558
H5    H     H_    0.320952 0.504114 0.220480 0.160941
H6    H     H_    0.679112 0.487180 0.221092 0.161859
H7    H     H_    0.319114 0.491685 0.776425 0.160007
H8    H     H_    0.680810 0.513243 0.776578 0.160887
C11   C     C_R   0.328086 0.498240 0.498772 -0.040070
C12   C     C_R   0.671912 0.500189 0.499100 -0.040540
C13   C     C_R   0.880396 0.617357 0.430854 0.607992
C14   C     C_R   0.119705 0.367843 0.537951 0.605075
C15   C     C_R   0.879809 0.374741 0.547515 0.573730
C16   C     C_R   0.120040 0.615665 0.437470 0.567590
N1    N     N_R   0.851960 0.497585 0.492654 -0.485444
N2    N     N_R   0.148038 0.492700 0.491150 -0.487665
C17   C     C_R   0.939484 0.365067 0.533606 -0.119634
C18   C     C_R   0.060412 0.614743 0.420085 -0.126508
C19   C     C_R   0.940288 0.617741 0.422247 -0.094337
C20   C     C_R   0.059733 0.363143 0.534424 -0.098033
C21   C     C_R   0.969944 0.490441 0.476762 -0.139508
C22   C     C_R   0.030000 0.489194 0.476479 -0.139516
C23   C     C_R   0.969431 0.235001 0.577651 0.296252
C24   C     C_R   0.030501 0.736676 0.351494 0.312982
C25   C     C_R   0.970719 0.740681 0.358512 0.422172
C26   C     C_R   0.029296 0.235548 0.584199 0.426814
C27   C     C_1   0.499997 0.065376 0.499995 -0.165083
C28   C     C_1   0.500003 0.934624 0.500004 -0.165123
C29   C     C_R   0.239346 0.498690 0.339940 -0.096905
C30   C     C_R   0.760701 0.492439 0.340958 -0.099899
C31   C     C_R   0.238144 0.491503 0.651417 -0.086668
C32   C     C_R   0.761814 0.507074 0.652183 -0.078495
N3    N     N_1   0.500000 0.500000 0.076820 -0.049105
N4    N     N_1   0.500000 0.500000 0.923180 -0.048983
O9    O     O_2   0.850383 0.736056 0.380288 -0.449620
O10   O     O_2   0.149884 0.249071 0.587285 -0.438269
O11   O     O_2   0.849518 0.263942 0.617915 -0.489975
O12   O     O_2   0.150093 0.739436 0.406534 -0.474154
O13   O     O_3   0.941467 0.104730 0.611037 -0.680581
H9    H     H_    0.914493 0.088318 0.515064 0.385836
O14   O     O_3   0.058389 0.851323 0.271610 -0.673086
H10   H     H_    0.085082 0.807211 0.187686 0.357814
O15   O     O_3   0.941055 0.861356 0.297508 -0.660450
H11   H     H_    0.967292 0.942942 0.269015 0.369790
O16   O     O_3   0.059025 0.111227 0.634118 -0.626100
H12   H     H_    0.032796 0.032797 0.672815 0.375654

loop_
_geom_bond_atom_site_label_1
_geom_bond_atom_site_label_2
_geom_bond_distance
_ccdc_geom_bond_type
C10   C32   1.395596 A    
C4    C30   1.400133 A    
O7    C6    1.283827 A    
C9    C11   1.406130 A    
C18   C24   1.418448 A    
O1    Cu1   1.934064 S    
C9    H7    1.082985 S    
C24   O14   1.378673 S    
C19   C21   1.417521 A    
O2    Cu2   1.934063 S    
C21   C22   1.414375 A    
C9    C31   1.395694 A    
C27   C28   1.188332 T    
C23   O13   1.378353 S    
C19   C25   1.415936 A    
O3    C2    1.272679 A    
C13   O9    1.349481 S    
O5    Cu1   1.944602 S    
O7    Cu1   1.944744 S    
O13   H9    0.991191 S    
O6    Cu2   1.944600 S    
O8    Cu2   1.944747 S    
N3    N4    1.195218 T    
C4    N1    1.435105 S    
C20   C26   1.416085 A    
C1    C27   1.405318 S    
C14   O10   1.349312 S    
O2    C2    1.272656 A    
C2    C28   1.405320 S    
C6    C12   1.472413 S    
O1    C1    1.272657 A    
O4    C1    1.272678 A    
C14   N2    1.364743 A    
C7    C29   1.392779 A    
O4    Cu2   1.934087 S    
C4    C32   1.401199 A    
C13   C19   1.412040 A    
C18   C22   1.415732 A    
C16   N2    1.364168 A    
C14   C20   1.413136 A    
C17   C21   1.416107 A    
O14   H10   0.991685 S    
C23   C26   1.410702 A    
C13   N1    1.364471 A    
C17   C23   1.419666 A    
C10   C12   1.406457 A    
C3    C31   1.400910 A    
C5    C11   1.472473 S    
C3    C29   1.399839 A    
Cu1   Cu2   2.630660 S    
Cu1   N4    1.976728 S    
H3    C31   1.082915 S    
C8    C30   1.392879 A    
O5    C5    1.283917 A    
O3    Cu1   1.934086 S    
C24   C25   1.409479 A    
H2    C30   1.083297 S    
C26   O16   1.385903 S    
H4    C32   1.083175 S    
O16   H12   0.989247 S    
C8    H6    1.083299 S    
H1    C29   1.083044 S    
C16   O12   1.349467 S    
C7    H5    1.083014 S    
Cu2   N3    1.976728 S    
C3    N2    1.435126 S    
O6    C6    1.282739 A    
C8    C12   1.406018 A    
C15   N1    1.364406 A    
C16   C18   1.410682 A    
C7    C11   1.405715 A    
C25   O15   1.385307 S    
C15   O11   1.349152 S    
C15   C17   1.412473 A    
O15   H11   0.989405 S    
C10   H8    1.083278 S    
C20   C22   1.417416 A    
O8    C5    1.282679 A    
