data_str_m3_o13_o15_f0_pcu.sym.104
_audit_creation_date              2012-12-10T17:28:30-0500
_audit_creation_method            fapswitch 2.2
_symmetry_space_group_name_H-M    P1
_symmetry_Int_Tables_number       1
_space_group_crystal_system       triclinic
_cell_length_a                    10.760184
_cell_length_b                    12.198727
_cell_length_c                    12.913073
_cell_angle_alpha                 93.267488
_cell_angle_beta                  95.687772
_cell_angle_gamma                 83.842337
_cell_volume                      1675.0585382

loop_
_atom_site_label
_atom_site_type_symbol
_atom_type_description
_atom_site_fract_x
_atom_site_fract_y
_atom_site_fract_z
_atom_type_partial_charge
C1    C     C_R   0.494436 0.521988 0.699652 0.912086
C2    C     C_R   0.478308 0.555922 0.131428 -0.328657
C3    C     C_R   0.541887 0.455478 0.977348 0.073260
C4    C     C_R   0.485614 0.552950 0.025339 0.078638
C5    C     C_R   0.395701 0.955421 0.387981 -0.273537
C6    C     C_R   0.601963 0.043945 0.613129 -0.411219
C7    C     C_R   0.399865 0.841462 0.401517 0.099516
C8    C     C_R   0.593495 0.158400 0.602606 0.132742
C9    C     C_R   0.547729 0.857332 0.549688 0.279682
C10   C     C_R   0.455458 0.141518 0.448717 0.216632
C11   C     C_R   0.538738 0.974656 0.540650 0.076725
C12   C     C_R   0.509807 0.478437 0.300864 0.891177
C13   C     C_R   0.463610 0.024177 0.458007 0.011776
C14   C     C_R   0.740053 0.496156 0.496634 0.875812
C15   C     C_R   0.259943 0.501479 0.491225 0.898142
C16   C     C_R   0.939032 0.318554 0.589457 0.081458
C17   C     C_R   0.086580 0.566414 0.298947 -0.011973
C18   C     C_R   0.011220 0.287568 0.683698 0.178033
C19   C     C_R   0.001478 0.622977 0.224204 0.215873
C20   C     C_R   0.111529 0.347529 0.721246 -0.154045
C21   C     C_R   0.875075 0.642111 0.241036 -0.135441
C22   C     C_R   0.149276 0.425769 0.660101 -0.189208
C23   C     C_R   0.527221 0.466971 0.190837 -0.093944
C24   C     C_R   0.831303 0.597924 0.325113 -0.218173
C25   C     C_R   0.077850 0.453886 0.565927 0.023624
C26   C     C_R   0.914841 0.544238 0.402166 0.066066
C27   C     C_R   0.959248 0.419349 0.546314 0.016571
C28   C     C_R   0.045171 0.539618 0.395524 0.028821
C29   C     C_R   0.125587 0.504443 0.485335 -0.142282
C30   C     C_R   0.871997 0.484399 0.479774 -0.142428
C31   C     C_2   0.879309 0.232616 0.520743 0.504141
C32   C     C_2   0.204160 0.512915 0.262225 0.350923
C33   C     C_3   0.992400 0.188846 0.743443 -0.922335
C34   C     C_R   0.487163 0.536502 0.810727 -0.131566
C35   C     C_3   0.040413 0.652876 0.121033 -0.916403
C36   C     C_3   0.675972 0.291965 0.213674 -0.761703
C37   C     C_3   0.335076 0.711037 0.790876 -0.861664
C38   C     C_3   0.390046 0.754204 0.018625 -0.876058
C39   C     C_3   0.639855 0.255164 0.983176 -0.946702
C40   C     C_3   0.366728 0.191755 0.363233 -0.752669
C41   C     C_3   0.637214 0.806642 0.635572 -0.836012
C42   C     C_2   0.659653 0.219768 0.688908 0.335162
C43   C     C_2   0.316929 0.777440 0.329751 0.373157
C44   C     C_R   0.432823 0.643976 0.965991 0.181440
C45   C     C_R   0.593186 0.363821 0.036597 0.227783
C46   C     C_R   0.422252 0.630653 0.856735 0.168854
C47   C     C_R   0.594407 0.373717 0.145777 0.133676
C48   C     C_R   0.547589 0.452352 0.870874 -0.303194
H1    H     H_    0.807644 0.682212 0.183590 0.151064
H2    H     H_    0.259385 0.558095 0.217815 0.071987
H3    H     H_    0.075672 0.126957 0.740317 0.241273
H4    H     H_    0.982025 0.215308 0.826145 0.254182
H5    H     H_    0.908206 0.148159 0.714526 0.226964
H6    H     H_    0.961239 0.696247 0.072466 0.243194
H7    H     H_    0.115834 0.708257 0.134141 0.276391
H8    H     H_    0.074685 0.577112 0.076236 0.243302
H9    H     H_    0.760583 0.256707 0.175955 0.245254
H10   H     H_    0.713943 0.334143 0.286354 0.270480
H11   H     H_    0.621168 0.224769 0.232355 0.246297
H12   H     H_    0.168228 0.325955 0.792701 0.159962
H13   H     H_    0.255381 0.748582 0.833683 0.237975
H14   H     H_    0.387847 0.777055 0.766523 0.252173
H15   H     H_    0.290144 0.668170 0.721159 0.240555
H16   H     H_    0.378692 0.823164 0.965059 0.247247
H17   H     H_    0.299630 0.749035 0.051467 0.267573
H18   H     H_    0.462073 0.777200 0.081444 0.246448
H19   H     H_    0.655601 0.185298 0.035663 0.255660
H20   H     H_    0.567401 0.230791 0.921373 0.232265
H21   H     H_    0.728736 0.263765 0.948862 0.247559
H22   H     H_    0.357457 0.280555 0.370788 0.327987
H23   H     H_    0.336270 0.989809 0.322909 0.213704
H24   H     H_    0.399978 0.165571 0.286060 0.216758
H25   H     H_    0.270749 0.167842 0.367702 0.224925
H26   H     H_    0.648313 0.716906 0.631979 0.295611
H27   H     H_    0.732685 0.831509 0.630630 0.213363
H28   H     H_    0.604421 0.834407 0.712554 0.210163
H29   H     H_    0.673176 0.186204 0.765613 0.042651
H30   H     H_    0.301013 0.695710 0.346414 0.115893
H31   H     H_    0.658571 0.010190 0.680105 0.157398
H32   H     H_    0.235909 0.461247 0.684923 0.142059
H33   H     H_    0.730880 0.602252 0.324826 0.181839
H34   H     H_    0.430985 0.627680 0.168889 0.195952
H35   H     H_    0.598975 0.383362 0.833303 0.216330
H36   H     H_    0.854734 0.157864 0.551011 0.052952
N1    N     N_R   0.523130 0.207800 0.519340 -0.102530
N2    N     N_R   0.476870 0.792200 0.480660 -0.153285
O1    O     O_R   0.506170 0.421700 0.658830 -0.581871
O2    O     O_2   0.232023 0.414332 0.270890 -0.591309
O3    O     O_2   0.708328 0.302511 0.675883 -0.571366
O4    O     O_2   0.262607 0.817008 0.250878 -0.637912
O5    O     O_R   0.493830 0.578300 0.341170 -0.678297
O6    O     O_R   0.491330 0.609310 0.646410 -0.625466
O7    O     O_R   0.508670 0.390690 0.353590 -0.606853
O8    O     O_R   0.690650 0.406190 0.506220 -0.547658
O9    O     O_R   0.309350 0.593810 0.493780 -0.665354
O10   O     O_R   0.675800 0.593810 0.493800 -0.642272
O11   O     O_R   0.324200 0.406190 0.506200 -0.607526
O12   O     O_2   0.862889 0.241702 0.426641 -0.595750
Zn1   Zn    Zn3+2 0.509910 0.374730 0.508290 1.004514
Zn2   Zn    Zn3+2 0.490090 0.625270 0.491710 0.914987

loop_
_geom_bond_atom_site_label_1
_geom_bond_atom_site_label_2
_ccdc_geom_bond_type
C1    O1    A    
C10   N1    A    
C39   H20   S    
C12   O5    A    
C36   H11   S    
C21   H1    S    
C37   H14   S    
C16   C31   S    
C12   C23   S    
C40   H22   S    
C28   C29   A    
C19   C21   A    
C24   C26   A    
C36   H10   S    
C15   O9    A    
C7    N2    A    
C32   O2    D    
C3    C48   A    
C40   H25   S    
C36   C47   S    
C10   C40   S    
C8    N1    A    
C31   O12   D    
C37   H15   S    
C41   H26   S    
C38   H18   S    
C22   C25   A    
C34   C46   A    
C7    C43   S    
O5    Zn2   S    
C20   H12   S    
N2    Zn2   S    
O7    Zn1   S    
C5    C13   A    
C39   C45   S    
C16   C27   A    
C27   C30   A    
C25   C29   A    
C14   C30   S    
C14   O10   A    
O11   Zn1   S    
C44   C46   A    
C1    C34   S    
C15   C29   S    
C38   H16   S    
C45   C47   A    
C33   H5    S    
C43   O4    D    
C23   C47   A    
C35   H7    S    
C36   H9    S    
C6    C11   A    
C5    C7    A    
O9    Zn2   S    
C6    C8    A    
C4    C44   A    
C3    C45   A    
C31   H36   S    
C33   H4    S    
C2    C4    A    
C24   H33   S    
C38   C44   S    
N1    Zn1   S    
C9    N2    A    
C41   H27   S    
C43   H30   S    
C38   H17   S    
C39   H21   S    
C33   H3    S    
C9    C11   A    
C32   H2    S    
C20   C22   A    
C26   C30   A    
C1    O6    A    
C12   O7    A    
C2    H34   S    
C34   C48   A    
C3    C4    A    
O6    Zn2   S    
C40   H24   S    
C35   H8    S    
C17   C28   A    
C39   H19   S    
C8    C42   S    
C10   C13   A    
C37   H13   S    
C9    C41   S    
C25   C27   A    
C15   O11   A    
C26   C28   A    
C48   H35   S    
C42   O3    D    
C22   H32   S    
C5    H23   S    
C19   C35   S    
C41   H28   S    
C11   C13   A    
C6    H31   S    
O8    Zn1   S    
O10   Zn2   S    
C17   C19   A    
C18   C20   A    
C18   C33   S    
O1    Zn1   S    
C42   H29   S    
C16   C18   A    
C21   C24   A    
C2    C23   A    
C17   C32   S    
C37   C46   S    
C14   O8    A    
C35   H6    S    
