data_str_m9_o11_o17_f0_sra.sym.144
_audit_creation_date              2012-12-11T14:19:18-0500
_audit_creation_method            fapswitch 2.2
_symmetry_space_group_name_H-M    P1
_symmetry_Int_Tables_number       1
_space_group_crystal_system       triclinic
_cell_length_a                    19.388664
_cell_length_b                    7.260145
_cell_length_c                    17.874228
_cell_angle_alpha                 90.000624
_cell_angle_beta                  107.357866
_cell_angle_gamma                 90.000344
_cell_volume                      2401.4756917

loop_
_atom_site_label
_atom_site_type_symbol
_atom_type_description
_atom_site_fract_x
_atom_site_fract_y
_atom_site_fract_z
_atom_type_partial_charge
O1    O     O_R   0.414820 0.494320 0.416790 -0.533869
O2    O     O_R   0.585180 0.994320 0.583210 -0.533868
O3    O     O_R   0.560270 0.819500 0.430140 -0.553196
O4    O     O_R   0.439730 0.319500 0.569860 -0.553206
C1    C     C_R   0.581281 0.655537 0.415380 0.764197
C2    C     C_R   0.418721 0.155538 0.584622 0.764205
O5    O     O_R   0.413840 0.823740 0.407440 -0.550918
O6    O     O_R   0.586160 0.323740 0.592560 -0.550895
O7    O     O_R   0.437710 0.998590 0.560350 -0.533216
O8    O     O_R   0.562290 0.498590 0.439650 -0.533222
C3    C     C_R   0.387923 0.654728 0.385757 0.751727
C4    C     C_R   0.612078 0.154730 0.614242 0.751710
O9    O     O_3   0.508000 0.662290 0.550200 -0.386850
O10   O     O_3   0.492000 0.162290 0.449800 -0.386846
V1    V     V_3+5 0.498520 0.935380 0.490690 1.412973
V2    V     V_3+5 0.501480 0.435380 0.509310 1.412966
C5    C     C_2   0.782350 0.267034 0.786614 -0.065280
C6    C     C_2   0.217661 0.767028 0.213374 -0.065232
C7    C     C_2   0.826447 0.116611 0.810081 -0.224681
C8    C     C_2   0.173554 0.616617 0.189917 -0.224588
C9    C     C_2   0.722103 0.277099 0.711599 -0.184291
C10   C     C_2   0.277906 0.777103 0.288390 -0.184321
C11   C     C_2   0.675813 0.137921 0.683971 -0.322099
C12   C     C_2   0.324188 0.637914 0.316027 -0.322089
H1    H     H_    0.711712 0.409815 0.682187 0.161462
H2    H     H_    0.288304 0.909833 0.317793 0.161464
H3    H     H_    0.682477 0.007824 0.715144 0.151718
H4    H     H_    0.317518 0.507806 0.284859 0.151708
C13   C     C_R   0.295154 0.138120 0.598411 -0.300142
C14   C     C_R   0.704848 0.638108 0.401590 -0.300156
C15   C     C_R   0.369877 0.148342 0.634002 -0.132732
C16   C     C_R   0.630125 0.648335 0.366001 -0.132731
C17   C     C_R   0.397650 0.160705 0.715926 0.379353
C18   C     C_R   0.602353 0.660701 0.284078 0.379304
C19   C     C_R   0.349453 0.154177 0.762333 -0.015093
C20   C     C_R   0.650547 0.654184 0.237670 -0.015069
C21   C     C_R   0.274066 0.145304 0.726188 -0.017066
C22   C     C_R   0.725934 0.645313 0.273811 -0.017075
C23   C     C_R   0.246702 0.140920 0.643548 0.015333
C24   C     C_R   0.753299 0.640923 0.356452 0.015333
C25   C     C_R   0.375399 0.151053 0.844053 -0.310475
C26   C     C_R   0.624600 0.651077 0.155950 -0.310468
C27   C     C_R   0.329135 0.157071 0.891557 0.428038
C28   C     C_R   0.670860 0.657095 0.108443 0.427916
C29   C     C_R   0.253424 0.154204 0.855411 -0.045382
C30   C     C_R   0.746572 0.654217 0.144585 -0.045311
C31   C     C_R   0.226088 0.139243 0.772734 -0.058356
C32   C     C_R   0.773910 0.639260 0.227263 -0.058335
C33   C     C_R   0.150879 0.118458 0.736397 0.016983
C34   C     C_R   0.849119 0.618483 0.263599 0.016983
C35   C     C_R   0.124637 0.119321 0.653782 -0.240995
C36   C     C_R   0.875362 0.619348 0.346214 -0.240989
C37   C     C_R   0.171169 0.140539 0.607662 0.416266
C38   C     C_R   0.828831 0.640554 0.392336 0.416266
C39   C     C_R   0.204171 0.167628 0.899941 0.382500
C40   C     C_R   0.795825 0.667625 0.100053 0.382509
C41   C     C_R   0.130344 0.123957 0.865460 -0.242945
C42   C     C_R   0.869652 0.623964 0.134536 -0.243002
C43   C     C_R   0.103792 0.099227 0.783449 -0.114377
C44   C     C_R   0.896205 0.599254 0.216547 -0.114371
H5    H     H_    0.275054 0.129583 0.535064 0.157216
H6    H     H_    0.724948 0.629563 0.464936 0.157206
H7    H     H_    0.432286 0.138953 0.871106 0.150976
H8    H     H_    0.567713 0.638977 0.128901 0.150984
H9    H     H_    0.067322 0.110307 0.624051 0.150219
H10   H     H_    0.932676 0.610340 0.375944 0.150230
O11   O     O_R   0.937810 0.773680 0.060480 -0.547157
O12   O     O_R   0.062190 0.273680 0.939520 -0.547158
O13   O     O_R   0.086190 0.439740 0.092580 -0.532528
O14   O     O_R   0.913810 0.939740 0.907420 -0.532523
C45   C     C_R   0.111464 0.609054 0.116042 0.656547
C46   C     C_R   0.888536 0.109052 0.883957 0.656578
O15   O     O_R   0.939760 0.444210 0.069890 -0.539755
O16   O     O_R   0.060240 0.944210 0.930110 -0.539763
O17   O     O_R   0.914790 0.269640 0.916760 -0.533969
O18   O     O_R   0.085210 0.769640 0.083240 -0.533992
C47   C     C_R   0.918926 0.612950 0.084540 0.762068
C48   C     C_R   0.081072 0.112949 0.915457 0.762063
O19   O     O_3   0.992050 0.601530 0.949880 -0.376838
O20   O     O_3   0.007950 0.101530 0.050120 -0.376839
V3    V     V_3+5 0.001480 0.328340 0.009300 1.484009
V4    V     V_3+5 0.998520 0.828340 0.990700 1.483988
C49   C     C_1   0.792169 0.434099 0.832820 0.351973
N1    N     N_1   0.799689 0.568022 0.869514 -0.320365
C50   C     C_1   0.207859 0.934065 0.167151 0.351949
N2    N     N_1   0.200354 0.067965 0.130443 -0.320356
C51   C     C_1   0.027793 0.059837 0.747939 0.298786
N3    N     N_1   0.967149 0.027957 0.719592 -0.373574
C52   C     C_1   0.972204 0.559877 0.252056 0.298788
N4    N     N_1   0.032848 0.528009 0.280402 -0.373573
O21   O     O_3   0.141395 0.154369 0.527056 -0.572724
C53   C     C_3   0.148326 0.337719 0.502562 0.074670
H11   H     H_    0.152922 0.331753 0.442125 0.176478
H12   H     H_    0.198032 0.409215 0.538774 0.110747
C54   C     C_3   0.081617 0.452462 0.500932 -0.335493
H13   H     H_    0.033924 0.396906 0.455233 0.210796
H14   H     H_    0.071064 0.444304 0.558603 0.197360
C55   C     C_3   0.092393 0.654372 0.483193 -0.747143
H15   H     H_    0.136974 0.715498 0.531044 0.236857
H16   H     H_    0.042227 0.732653 0.478523 0.228477
H17   H     H_    0.105431 0.667445 0.427029 0.252950
O22   O     O_3   0.858608 0.654374 0.472942 -0.572728
C56   C     C_3   0.851664 0.837708 0.497449 0.074661
H18   H     H_    0.847071 0.831705 0.557886 0.176476
H19   H     H_    0.801951 0.909190 0.461245 0.110748
C57   C     C_3   0.918363 0.952495 0.499081 -0.335488
H20   H     H_    0.966061 0.896950 0.544779 0.210787
H21   H     H_    0.928918 0.944369 0.441410 0.197360
C58   C     C_3   0.907570 0.154392 0.516830 -0.747106
H22   H     H_    0.862990 0.215515 0.468977 0.236850
H23   H     H_    0.957733 0.232700 0.521514 0.228477
H24   H     H_    0.894522 0.167429 0.572990 0.252940
C59   C     C_1   0.818725 0.957225 0.759201 0.404881
N5    N     N_1   0.812830 0.829998 0.718727 -0.364887
C60   C     C_1   0.181268 0.457244 0.240802 0.404849
N6    N     N_1   0.187157 0.330026 0.281278 -0.364884
O23   O     O_3   0.472217 0.160949 0.749105 -0.586060
C61   C     C_3   0.496971 0.330285 0.787247 0.011471
H25   H     H_    0.523508 0.298472 0.849826 0.136619
H26   H     H_    0.453709 0.434884 0.782898 0.126657
C62   C     C_3   0.554335 0.412404 0.754546 -0.296947
H27   H     H_    0.595853 0.306059 0.757693 0.209889
H28   H     H_    0.529008 0.453694 0.692825 0.228397
C63   C     C_3   0.591364 0.580150 0.800566 -0.796052
H29   H     H_    0.551509 0.691526 0.797457 0.236168
H30   H     H_    0.633077 0.632296 0.774735 0.235011
H31   H     H_    0.618367 0.542473 0.862606 0.261537
O24   O     O_3   0.527786 0.660988 0.250900 -0.586074
C64   C     C_3   0.503051 0.830365 0.212789 0.011648
H32   H     H_    0.476584 0.798649 0.150184 0.136554
H33   H     H_    0.546317 0.935034 0.217241 0.126622
C65   C     C_3   0.445612 0.912320 0.245425 -0.296983
H34   H     H_    0.404086 0.805919 0.242179 0.209862
H35   H     H_    0.470874 0.953501 0.307175 0.228434
C66   C     C_3   0.408616 0.080134 0.199435 -0.796067
H36   H     H_    0.448479 0.191550 0.202639 0.236159
H37   H     H_    0.366854 0.132172 0.225220 0.235023
H38   H     H_    0.381675 0.042570 0.137366 0.261504
O25   O     O_3   0.356245 0.137032 0.972712 -0.556737
C67   C     C_3   0.416852 0.251281 0.006899 0.075677
H39   H     H_    0.407773 0.318423 0.058783 0.157641
H40   H     H_    0.423267 0.363131 0.967494 0.096902
C68   C     C_3   0.485894 0.136137 0.034883 -0.366559
H41   H     H_    0.473501 0.008134 0.061516 0.208595
H42   H     H_    0.504991 0.098792 0.984594 0.180254
C69   C     C_3   0.547940 0.235375 0.094101 -0.840073
H43   H     H_    0.572651 0.336111 0.063412 0.258409
H44   H     H_    0.590465 0.134430 0.123310 0.223290
H45   H     H_    0.529555 0.306211 0.139698 0.247131
O26   O     O_3   0.643748 0.637072 0.027287 -0.556753
C70   C     C_3   0.583131 0.751287 0.993105 0.075703
H46   H     H_    0.592196 0.818428 0.941217 0.157618
H47   H     H_    0.576714 0.863135 0.032509 0.096921
C71   C     C_3   0.514097 0.636109 0.965123 -0.366581
H48   H     H_    0.495016 0.598718 0.015418 0.180293
H49   H     H_    0.526491 0.508130 0.938471 0.208605
C72   C     C_3   0.452036 0.735350 0.905929 -0.840111
H50   H     H_    0.427342 0.836086 0.936633 0.258464
H51   H     H_    0.409504 0.634411 0.876734 0.223298
H52   H     H_    0.470400 0.806189 0.860320 0.247119
O27   O     O_3   0.227966 0.228754 0.976832 -0.542170
C73   C     C_3   0.210351 0.418199 0.979600 0.156970
H53   H     H_    0.186586 0.435779 0.028163 0.143353
H54   H     H_    0.169594 0.470878 0.925445 0.096407
C74   C     C_3   0.277930 0.538462 0.997331 -0.392007
H55   H     H_    0.313531 0.506255 0.057093 0.202896
H56   H     H_    0.307000 0.511468 0.953607 0.201101
C75   C     C_3   0.258717 0.742353 0.993707 -0.750800
H57   H     H_    0.228711 0.781648 0.932647 0.228674
H58   H     H_    0.308989 0.825075 0.013351 0.266847
H59   H     H_    0.224866 0.772760 0.032370 0.228330
O28   O     O_3   0.772026 0.728664 0.023150 -0.542180
C76   C     C_3   0.789633 0.918100 0.020342 0.157056
H60   H     H_    0.813283 0.935677 0.971688 0.143321
H61   H     H_    0.830480 0.970746 0.074435 0.096467
C77   C     C_3   0.722075 0.038394 0.002778 -0.392043
H62   H     H_    0.686375 0.006238 0.943057 0.202867
H63   H     H_    0.693106 0.011397 0.046596 0.201077
C78   C     C_3   0.741305 0.242272 0.006367 -0.750765
H64   H     H_    0.771581 0.281472 0.067373 0.228609
H65   H     H_    0.691013 0.325013 0.987008 0.266902
H66   H     H_    0.774910 0.272732 0.967432 0.228333

loop_
_geom_bond_atom_site_label_1
_geom_bond_atom_site_label_2
_ccdc_geom_bond_type
C68   C69   S    
C22   C24   A    
C51   N3    T    
C17   O23   S    
C74   H55   S    
C66   H38   S    
C20   C26   A    
C54   H13   S    
O11   C47   A    
C67   C68   S    
O2    C4    A    
O24   C64   S    
C2    O7    A    
O27   C73   S    
C54   C55   S    
O3    V1    S    
C66   H36   S    
C31   C33   A    
C44   C52   S    
O5    C3    A    
C4    C11   S    
C72   H50   S    
O12   V3    S    
C19   C21   A    
C67   H40   S    
C69   H43   S    
C58   H23   S    
C50   N2    T    
C45   O18   A    
C75   H58   S    
C41   C43   A    
C57   H20   S    
C7    C59   S    
C42   C44   A    
C68   H41   S    
C69   H45   S    
C3    C12   S    
C68   H42   S    
C35   H9    S    
C29   C31   A    
O13   C45   A    
C61   H25   S    
C62   C63   S    
C42   C47   S    
C5    C7    D    
C59   N5    T    
C77   C78   S    
C36   C38   A    
C65   H34   S    
C33   C35   A    
O1    C3    A    
C37   O21   S    
C34   C36   A    
C70   H46   S    
C15   C17   A    
C8    C45   S    
C27   O25   S    
C11   H3    S    
C21   C31   A    
C69   H44   S    
C64   C65   S    
C32   C34   A    
C2    C15   S    
C71   H49   S    
C74   H56   S    
C40   O28   S    
C13   C15   A    
C25   C27   A    
C7    C46   S    
C26   C28   A    
O16   V4    S    
C46   O17   A    
C19   C25   A    
O15   V3    S    
C28   C30   A    
C73   H54   S    
C76   H61   S    
C9    C11   D    
O12   C48   A    
C13   H5    S    
C6    C50   S    
C67   H39   S    
C39   O27   S    
C71   C72   S    
O4    C2    A    
C58   H24   S    
O18   V4    S    
O21   C53   S    
O17   V3    S    
C76   H60   S    
C53   C54   S    
C28   O26   S    
C5    C49   S    
C61   C62   S    
C16   C18   A    
O4    V2    S    
O19   V4    S    
C73   C74   S    
C49   N1    T    
O10   V1    S    
O6    C4    A    
C13   C23   A    
C53   H12   S    
C71   H48   S    
C14   C24   A    
C56   H19   S    
O1    V2    S    
C64   H33   S    
O2    V1    S    
C27   C29   A    
C62   H27   S    
C78   H66   S    
C70   C71   S    
C63   H31   S    
C61   H26   S    
C18   O24   S    
C75   H57   S    
C72   H52   S    
C55   H16   S    
C14   H6    S    
C10   H2    S    
C10   C12   D    
C25   H7    S    
C20   C22   A    
C26   H8    S    
C36   H10   S    
O28   C76   S    
C63   H30   S    
C73   H53   S    
C76   C77   S    
C66   H37   S    
C9    H1    S    
C77   H62   S    
C6    C10   S    
C22   C32   A    
C41   C48   S    
C38   O22   S    
C12   H4    S    
C77   H63   S    
O20   V3    S    
O3    C1    A    
C8    C60   S    
C72   H51   S    
O25   C67   S    
C54   H14   S    
C74   C75   S    
C55   H17   S    
C24   C38   A    
C33   C43   A    
C34   C44   A    
C1    C16   S    
C39   C41   A    
C64   H32   S    
C1    O8    A    
C21   C23   A    
O8    V2    S    
O23   C61   S    
C14   C16   A    
C23   C37   A    
C57   H21   S    
C65   C66   S    
C65   H35   S    
O5    V1    S    
C53   H11   S    
C17   C19   A    
C18   C20   A    
C40   C42   A    
C56   C57   S    
C6    C8    D    
C70   H47   S    
O7    V1    S    
O22   C56   S    
O14   V4    S    
C43   C51   S    
C62   H28   S    
O13   V3    S    
C78   H64   S    
C30   C32   A    
C29   C39   A    
O11   V4    S    
O6    V2    S    
C55   H15   S    
O16   C48   A    
O9    V2    S    
C30   C40   A    
C56   H18   S    
O15   C47   A    
O26   C70   S    
O14   C46   A    
C75   H59   S    
C35   C37   A    
C52   N4    T    
C58   H22   S    
C60   N6    T    
C63   H29   S    
C78   H65   S    
C57   C58   S    
C5    C9    S    
