data_str_m2_o16_o16_f0_pcu.sym.228
_audit_creation_date              2013-03-05T15:54:33-0500
_audit_creation_method            fapswitch 2.2
_symmetry_space_group_name_H-M    P1
_symmetry_Int_Tables_number       1
_space_group_crystal_system       triclinic
_cell_length_a                    19.248608
_cell_length_b                    18.980049
_cell_length_c                    12.328648
_cell_angle_alpha                 89.31894
_cell_angle_beta                  129.661163
_cell_angle_gamma                 90.706548
_cell_volume                      3467.12371532

loop_
_atom_site_label
_atom_site_type_symbol
_atom_site_description
_atom_site_fract_x
_atom_site_fract_y
_atom_site_fract_z
_atom_type_partial_charge
O1    O     O_R   0.608610 0.924520 0.551740 -0.572437
O2    O     O_R   0.608610 0.075480 0.551740 -0.590735
O3    O     O_R   0.108610 0.424520 0.551740 -0.572429
O4    O     O_R   0.108610 0.575480 0.551740 -0.590730
O5    O     O_R   0.564110 0.924510 0.685150 -0.611302
O6    O     O_R   0.564110 0.075490 0.685150 -0.595949
O7    O     O_R   0.064110 0.424510 0.685150 -0.611283
O8    O     O_R   0.064110 0.575490 0.685150 -0.595941
C1    C     C_R   0.605992 0.895380 0.646360 0.807117
C2    C     C_R   0.609419 0.103110 0.649652 0.796317
C3    C     C_R   0.105993 0.395378 0.646361 0.807090
C4    C     C_R   0.109428 0.603107 0.649660 0.796289
Cu1   Cu    Cu3+1 0.526340 0.000000 0.421010 0.953090
Cu2   Cu    Cu3+1 0.026340 0.500000 0.421010 0.953108
Cu3   Cu    Cu3+1 0.473640 0.000000 0.578990 1.002405
Cu4   Cu    Cu3+1 0.973640 0.500000 0.578990 1.002434
O9    O     O_R   0.435880 0.075470 0.314850 -0.591953
O10   O     O_R   0.435880 0.924530 0.314850 -0.603415
O11   O     O_R   0.935880 0.575470 0.314850 -0.591938
O12   O     O_R   0.935880 0.424530 0.314850 -0.603413
O13   O     O_R   0.391380 0.075460 0.448260 -0.542506
O14   O     O_R   0.391380 0.924540 0.448260 -0.553383
O15   O     O_R   0.891380 0.575460 0.448260 -0.542552
O16   O     O_R   0.891380 0.424540 0.448260 -0.553327
C5    C     C_R   0.385876 0.099282 0.343187 0.817763
C6    C     C_R   0.386104 0.900055 0.344013 0.814574
C7    C     C_R   0.885881 0.599288 0.343193 0.817744
C8    C     C_R   0.886105 0.400053 0.344016 0.814585
C9    C     C_R   0.684392 0.279983 0.161715 -0.136971
C10   C     C_R   0.698600 0.729355 0.185603 -0.159948
C11   C     C_R   0.184381 0.780002 0.161664 -0.136897
C12   C     C_R   0.198582 0.229318 0.185585 -0.160058
H1    H     H_    0.268610 0.830276 0.361499 0.225881
H2    H     H_    0.282169 0.172980 0.379454 0.231035
H3    H     H_    0.768627 0.330267 0.361542 0.225812
H4    H     H_    0.782200 0.673025 0.379487 0.231017
H5    H     H_    0.638123 0.263280 0.178741 0.164281
H6    H     H_    0.660620 0.750891 0.214387 0.168312
H7    H     H_    0.138102 0.763303 0.178673 0.164319
H8    H     H_    0.160588 0.250835 0.214359 0.168337
C13   C     C_R   0.317753 0.846771 0.247641 -0.072208
C14   C     C_R   0.317997 0.152433 0.248586 -0.068255
C15   C     C_R   0.817753 0.346764 0.247658 -0.072166
C16   C     C_R   0.818011 0.652454 0.248604 -0.068281
C17   C     C_R   0.728800 0.185689 0.708907 -0.227067
C18   C     C_R   0.702032 0.799372 0.676362 -0.239288
C19   C     C_R   0.228893 0.685622 0.709029 -0.226574
C20   C     C_R   0.202009 0.299346 0.676333 -0.239307
C21   C     C_R   0.286741 0.742431 0.781570 0.407110
C22   C     C_R   0.251865 0.238191 0.740334 0.403212
C23   C     C_R   0.786615 0.242523 0.781407 0.406796
C24   C     C_R   0.751905 0.738230 0.740380 0.403238
C25   C     C_R   0.289667 0.776054 0.884921 -0.266171
C26   C     C_R   0.262905 0.209989 0.856140 -0.255853
C27   C     C_R   0.789586 0.276094 0.884849 -0.265810
C28   C     C_R   0.762943 0.710023 0.856182 -0.255841
C29   C     C_R   0.730597 0.255319 0.911501 0.040079
C30   C     C_R   0.716632 0.738655 0.899864 0.038802
C31   C     C_R   0.230630 0.755320 0.911505 0.040272
C32   C     C_R   0.216617 0.238636 0.899848 0.038781
C33   C     C_R   0.661583 0.205728 0.819124 0.036350
C34   C     C_R   0.651819 0.791492 0.814103 0.028931
C35   C     C_R   0.161606 0.705736 0.819114 0.036288
C36   C     C_R   0.151820 0.291486 0.814109 0.029069
C37   C     C_R   0.237299 0.781754 0.026004 0.070117
C38   C     C_R   0.231700 0.216802 0.024720 0.068923
C39   C     C_R   0.737286 0.281741 0.026024 0.070117
C40   C     C_R   0.731712 0.716824 0.024734 0.068922
C41   C     C_R   0.671261 0.262027 0.039129 0.122122
C42   C     C_R   0.678460 0.745719 0.056489 0.131918
C43   C     C_R   0.171261 0.762046 0.039087 0.122081
C44   C     C_R   0.178461 0.245702 0.056493 0.132030
C45   C     C_R   0.593500 0.225136 0.929180 0.099335
C46   C     C_R   0.605521 0.789680 0.957939 0.136460
C47   C     C_R   0.093504 0.725157 0.929132 0.099326
C48   C     C_R   0.105559 0.289697 0.957991 0.135879
C49   C     C_R   0.588690 0.199165 0.819202 -0.157503
C50   C     C_R   0.588298 0.806062 0.832347 -0.146192
C51   C     C_R   0.088699 0.699189 0.819158 -0.157486
C52   C     C_R   0.088321 0.306075 0.832388 -0.146399
C53   C     C_R   0.309031 0.825433 0.130661 -0.223786
C54   C     C_R   0.301110 0.170008 0.122927 -0.225594
C55   C     C_R   0.809023 0.325421 0.130674 -0.223837
C56   C     C_R   0.801127 0.670033 0.122950 -0.225527
C57   C     C_R   0.258528 0.819828 0.266561 -0.076347
C58   C     C_R   0.268116 0.183884 0.280824 -0.105162
C59   C     C_R   0.758539 0.319817 0.266599 -0.076287
C60   C     C_R   0.768138 0.683920 0.280848 -0.105099
C61   C     C_R   0.666173 0.166117 0.726290 -0.162947
C62   C     C_R   0.653089 0.827804 0.713326 -0.156069
C63   C     C_R   0.166207 0.666101 0.726318 -0.163067
C64   C     C_R   0.153085 0.327795 0.713321 -0.156071
H9    H     H_    0.359452 0.843221 0.123938 0.149083
H10   H     H_    0.343784 0.147111 0.104951 0.152242
H11   H     H_    0.859444 0.343205 0.123948 0.149067
H12   H     H_    0.843805 0.647136 0.104980 0.152228
H13   H     H_    0.730919 0.158296 0.634483 0.206017
H14   H     H_    0.698986 0.823463 0.593367 0.202907
H15   H     H_    0.231061 0.658200 0.634681 0.205906
H16   H     H_    0.198960 0.323433 0.593332 0.202897
H17   H     H_    0.337663 0.818588 0.940591 0.143336
H18   H     H_    0.306344 0.165077 0.907539 0.160181
H19   H     H_    0.837552 0.318646 0.940501 0.143718
H20   H     H_    0.806402 0.665123 0.907599 0.160160
H21   H     H_    0.525821 0.175406 0.731723 0.191858
H22   H     H_    0.525882 0.832566 0.751938 0.210034
H23   H     H_    0.025831 0.675434 0.731669 0.191833
H24   H     H_    0.025909 0.332589 0.752000 0.210119
C65   C     C_R   0.668153 0.057063 0.280703 0.236603
C66   C     C_R   0.168131 0.557102 0.280698 0.236638
H25   H     H_    0.691954 0.042993 0.474121 0.166840
H26   H     H_    0.191942 0.543010 0.474117 0.166833
H27   H     H_    0.690935 0.092062 0.095446 0.209340
H28   H     H_    0.190943 0.592065 0.095460 0.209353
N1    N     N_R   0.566260 0.000000 0.302220 -0.216843
N2    N     N_R   0.066260 0.500000 0.302220 -0.216870
C67   C     C_R   0.344035 0.989196 0.626986 0.546585
C68   C     C_R   0.844023 0.489266 0.626963 0.546552
C69   C     C_R   0.310379 0.984649 0.698324 -0.109212
C70   C     C_R   0.810348 0.484783 0.698277 -0.108508
C71   C     C_R   0.365308 0.994646 0.842575 0.143536
C72   C     C_R   0.865287 0.494732 0.842547 0.144197
C73   C     C_R   0.459675 0.004261 0.920562 -0.031427
C74   C     C_R   0.959663 0.504298 0.920550 -0.031405
C75   C     C_R   0.493463 0.008654 0.844355 0.131606
C76   C     C_R   0.993459 0.508667 0.844353 0.131516
C77   C     C_R   0.522609 0.011662 0.071062 -0.040508
C78   C     C_R   0.022600 0.511686 0.071055 -0.040556
C79   C     C_R   0.605970 0.046208 0.133873 -0.027019
C80   C     C_R   0.105961 0.546233 0.133871 -0.027050
C81   C     C_R   0.627663 0.065366 0.049558 -0.215224
C82   C     C_R   0.127665 0.565376 0.049565 -0.215238
C83   C     C_R   0.586504 0.029058 0.924594 0.202542
C84   C     C_R   0.086505 0.529064 0.924602 0.202504
C85   C     C_R   0.507298 0.985564 0.162241 -0.005758
C86   C     C_R   0.007289 0.485580 0.162232 -0.005674
C87   C     C_R   0.645805 0.033441 0.362047 0.022428
C88   C     C_R   0.145795 0.533455 0.362044 0.022469
N3    N     N_R   0.434410 0.000000 0.697680 -0.272678
N4    N     N_R   0.934410 0.500000 0.697680 -0.272667
H29   H     H_    0.449214 0.953915 0.124283 0.150265
H30   H     H_    0.949199 0.453937 0.124261 0.150279
H31   H     H_    0.238136 0.978234 0.637397 0.182364
H32   H     H_    0.738096 0.478420 0.637330 0.182173
N5    N     N_R   0.754093 0.090671 0.349145 0.105760
O17   O     O_R   0.812544 0.062712 0.342218 -0.348780
O18   O     O_R   0.780483 0.140318 0.440239 -0.327784
N6    N     N_R   0.254037 0.590771 0.349136 0.105776
O19   O     O_R   0.312543 0.562849 0.342300 -0.348723
O20   O     O_R   0.280341 0.640446 0.440139 -0.328009
N7    N     N_R   0.279052 0.988693 0.476742 0.136987
O21   O     O_R   0.227524 0.933395 0.417001 -0.381288
O22   O     O_R   0.245460 0.048728 0.412389 -0.341751
N8    N     N_R   0.779058 0.488795 0.476722 0.136959
O23   O     O_R   0.727592 0.433474 0.416915 -0.381389
O24   O     O_R   0.745404 0.548834 0.412441 -0.341785
C89   C     C_3   0.316173 0.007347 0.899212 -0.809933
H33   H     H_    0.303942 0.956625 0.930474 0.219179
H34   H     H_    0.352824 0.045269 0.987486 0.223185
H35   H     H_    0.249280 0.031809 0.817545 0.252420
C90   C     C_3   0.816168 0.507421 0.899214 -0.810058
H36   H     H_    0.803933 0.456694 0.930454 0.219262
H37   H     H_    0.852837 0.545328 0.987514 0.223139
H38   H     H_    0.749278 0.531894 0.817574 0.252371
C91   C     C_3   0.655990 0.984734 0.937019 -0.715531
H39   H     H_    0.722902 0.985254 0.044939 0.213969
H40   H     H_    0.636126 0.929264 0.923670 0.232587
H41   H     H_    0.671526 0.002746 0.869310 0.244598
C92   C     C_3   0.155989 0.484747 0.937011 -0.715491
H42   H     H_    0.222905 0.485274 0.044924 0.213917
H43   H     H_    0.136137 0.429276 0.923678 0.232606
H44   H     H_    0.171518 0.502757 0.869293 0.244605
C93   C     C_3   0.514562 0.212915 0.925846 -0.780860
H45   H     H_    0.462780 0.179544 0.835466 0.285561
H46   H     H_    0.535628 0.184656 0.021707 0.217198
H47   H     H_    0.483963 0.264085 0.917107 0.248644
C94   C     C_3   0.548951 0.823567 0.988166 -0.798405
H48   H     H_    0.499435 0.860600 0.903426 0.262306
H49   H     H_    0.512604 0.782662 0.000257 0.256235
H50   H     H_    0.592747 0.855171 0.086076 0.211717
C95   C     C_3   0.014563 0.712929 0.925789 -0.780785
H51   H     H_    0.962797 0.679546 0.835420 0.285570
H52   H     H_    0.035629 0.684675 0.021654 0.217187
H53   H     H_    0.983951 0.764095 0.917027 0.248664
C96   C     C_3   0.049064 0.323640 0.988302 -0.798287
H54   H     H_    0.999751 0.360830 0.903766 0.262455
H55   H     H_    0.012522 0.282780 0.000075 0.256241
H56   H     H_    0.092929 0.355111 0.086383 0.211757
N9    N     N_R   0.341225 0.766879 0.747281 0.106699
O25   O     O_R   0.377437 0.722169 0.717287 -0.318414
O26   O     O_R   0.339478 0.833140 0.718347 -0.414071
N10   N     N_R   0.290491 0.204481 0.686408 0.108505
O27   O     O_R   0.301481 0.238775 0.606186 -0.396843
O28   O     O_R   0.305010 0.137131 0.703469 -0.404577
N11   N     N_R   0.840966 0.267093 0.746932 0.106985
O29   O     O_R   0.876455 0.222533 0.715401 -0.318074
O30   O     O_R   0.839949 0.333525 0.719704 -0.415029
N12   N     N_R   0.790548 0.704536 0.686469 0.108488
O31   O     O_R   0.801541 0.738841 0.606260 -0.396834
O32   O     O_R   0.805055 0.637186 0.703495 -0.404713

loop_
_geom_bond_atom_site_label_1
_geom_bond_atom_site_label_2
_geom_bond_distance
_ccdc_geom_bond_type
C30   C34   1.414883 A    
C39   C55   1.407731 A    
C89   H33   1.110042 S    
C11   C57   1.386141 A    
C18   C24   1.389164 A    
C69   H31   1.085094 S    
C92   H42   1.114323 S    
Cu4   O16   1.974192 S    
C4    C63   1.481001 S    
C14   C54   1.401621 A    
O3    C3    1.314644 A    
C44   C48   1.403798 A    
C90   H36   1.110036 S    
C25   C31   1.419504 A    
C12   C44   1.408563 A    
C26   C32   1.418326 A    
C95   H51   1.104406 S    
H4    C60   1.081711 S    
C10   C60   1.382826 A    
O7    C3    1.301456 A    
C15   C59   1.392048 A    
C76   N4    1.402751 A    
C91   H39   1.114335 S    
C72   C90   1.514188 S    
Cu1   O10   1.967414 S    
C54   H10   1.075263 S    
C70   H32   1.085091 S    
C77   C85   1.414896 A    
C83   C91   1.511044 S    
C78   C86   1.414909 A    
C56   H12   1.075274 S    
C66   N6    1.435387 S    
C96   H55   1.109711 S    
C21   N9    1.429376 S    
C17   C23   1.387295 A    
C27   H19   1.077796 S    
C15   C55   1.405442 A    
C19   H15   1.083288 S    
C10   H6    1.081412 S    
C65   C87   1.388172 A    
H2    C58   1.081717 S    
N9    O26   1.298108 A    
O2    Cu1   1.974518 S    
H1    C57   1.077768 S    
C86   H30   1.073352 S    
C10   C42   1.408570 A    
O6    Cu3   1.967774 S    
C36   C52   1.408128 A    
H3    C59   1.077777 S    
C7    C16   1.464483 S    
Cu2   N2    2.042488 S    
Cu3   O14   1.974192 S    
C38   C44   1.426840 A    
N1    C87   1.355291 A    
C2    C61   1.480980 S    
C25   H17   1.077807 S    
C94   H49   1.109702 S    
C84   C92   1.511044 S    
O10   C6    1.299159 A    
C42   C46   1.403872 A    
C20   C64   1.397467 A    
N7    O21   1.299225 A    
C41   C45   1.405302 A    
N12   O31   1.301899 A    
C14   C58   1.393949 A    
O15   C7    1.306082 A    
O4    C4    1.312698 A    
C22   N10   1.434212 S    
C66   C80   1.410317 A    
N8    O24   1.299105 A    
C74   C78   1.436262 A    
C95   H52   1.107893 S    
C18   H14   1.082791 S    
C55   H11   1.075515 S    
C89   H34   1.107337 S    
Cu3   N3    2.030244 S    
C71   C89   1.514204 S    
C45   C93   1.508656 S    
C92   H43   1.093399 S    
C91   H40   1.093426 S    
C67   N3    1.374021 A    
C19   C63   1.397864 A    
C29   C39   1.429959 A    
C68   N4    1.373979 A    
C3    C64   1.482176 S    
C90   H37   1.107330 S    
C33   C61   1.426225 A    
C32   C36   1.414894 A    
N5    O17   1.301230 A    
C9    C41   1.409476 A    
C93   H46   1.107894 S    
C20   H16   1.082789 S    
C9    C59   1.386161 A    
N5    O18   1.300925 A    
C40   C56   1.406657 A    
Cu2   O12   1.967414 S    
C66   C88   1.388162 A    
O1    C1    1.314628 A    
N6    O19   1.301212 A    
C28   H20   1.075033 S    
C19   C21   1.387238 A    
C33   C49   1.407685 A    
C96   H56   1.110565 S    
C35   C51   1.407661 A    
O12   C8    1.299191 A    
C16   C56   1.401615 A    
C93   H45   1.104420 S    
C75   N3    1.402734 A    
C39   C41   1.424856 A    
N10   O28   1.297624 A    
C1    C62   1.482090 S    
C80   C82   1.388683 A    
C77   C79   1.415719 A    
O5    C1    1.301434 A    
H26   C88   1.079967 S    
C38   C54   1.406629 A    
C53   H9    1.075516 S    
C73   C77   1.436239 A    
Cu3   O13   1.974724 S    
C13   C53   1.405465 A    
O8    C4    1.302907 A    
C94   H50   1.110568 S    
C12   C58   1.382764 A    
C51   H23   1.078451 S    
C67   N7    1.427684 S    
C27   C29   1.419444 A    
C22   C26   1.402665 A    
O3    Cu2   1.975057 S    
N8    O23   1.299193 A    
Cu1   N1    2.042488 S    
C69   C71   1.385463 A    
C18   C62   1.397430 A    
O5    Cu3   1.976373 S    
C82   C84   1.389225 A    
O7    Cu4   1.976373 S    
Cu4   O15   1.974724 S    
C12   H8    1.081398 S    
Cu1   Cu3   2.710068 S    
C46   C50   1.392803 A    
C9    H5    1.080674 S    
C92   H44   1.101108 S    
Cu2   Cu4   2.710068 S    
C24   N12   1.434182 S    
C36   C64   1.427353 A    
C72   C74   1.422628 A    
C47   C95   1.508638 S    
N2    C88   1.355283 A    
Cu4   N4    2.030244 S    
C90   H38   1.111747 S    
O11   C7    1.302495 A    
C70   C72   1.385514 A    
O16   C8    1.313198 A    
C74   C76   1.445474 A    
C95   H53   1.110117 S    
C75   C83   1.437526 A    
O13   C5    1.306067 A    
C17   C61   1.397857 A    
H27   C81   1.082666 S    
H28   C82   1.082664 S    
Cu2   O11   1.976006 S    
C34   C50   1.408151 A    
C65   N5    1.435397 S    
C48   C52   1.392784 A    
N6    O20   1.300890 A    
C81   C83   1.389196 A    
C78   C80   1.415720 A    
C5    C14   1.464393 S    
O6    C2    1.302867 A    
N12   O32   1.297591 A    
C29   C33   1.418137 A    
N2    C86   1.358254 A    
C89   H35   1.111752 S    
C91   H41   1.101134 S    
C13   C57   1.392024 A    
C52   H24   1.077933 S    
C8    C15   1.471685 S    
C31   C35   1.418175 A    
C49   H21   1.078450 S    
Cu1   O9    1.976006 S    
C50   H22   1.077940 S    
C26   H18   1.075040 S    
N10   O27   1.301904 A    
C67   C69   1.387357 A    
O9    C5    1.302467 A    
C37   C43   1.424869 A    
C31   C37   1.429974 A    
C43   C47   1.405285 A    
C30   C40   1.429441 A    
C96   H54   1.105302 S    
C46   C94   1.509706 S    
N1    C85   1.358229 A    
H25   C87   1.079972 S    
C21   C25   1.400290 A    
C34   C62   1.427338 A    
C20   C22   1.389222 A    
C93   H47   1.110118 S    
C28   C30   1.418346 A    
C68   N8    1.427637 S    
C23   C27   1.400357 A    
N7    O22   1.299147 A    
O4    Cu2   1.974518 S    
N9    O25   1.301461 A    
C68   C70   1.387356 A    
C71   C73   1.422614 A    
C73   C75   1.445476 A    
C32   C38   1.429451 A    
N11   O29   1.301557 A    
C85   H29   1.073345 S    
O1    Cu1   1.975057 S    
C76   C84   1.437552 A    
O8    Cu4   1.967774 S    
C94   H48   1.105416 S    
O14   C6    1.313215 A    
C35   C63   1.426202 A    
C11   H7    1.080675 S    
C40   C42   1.426865 A    
C45   C49   1.394454 A    
C37   C53   1.407707 A    
C17   H13   1.083275 S    
C79   C81   1.388679 A    
C16   C60   1.393988 A    
C65   C79   1.410305 A    
C47   C51   1.394432 A    
C23   N11   1.429507 S    
C48   C96   1.509630 S    
C24   C28   1.402671 A    
C6    C13   1.471655 S    
C11   C43   1.409479 A    
N11   O30   1.298092 A    
O2    C2    1.312728 A    
