data_str_m2_o1_o18_f0_pcu.sym.89
_audit_creation_date              2012-12-10T17:58:21-0500
_audit_creation_method            fapswitch 2.2
_symmetry_space_group_name_H-M    P1
_symmetry_Int_Tables_number       1
_space_group_crystal_system       triclinic
_cell_length_a                    9.621557
_cell_length_b                    10.802262
_cell_length_c                    15.669423
_cell_angle_alpha                 88.859724
_cell_angle_beta                  73.31952
_cell_angle_gamma                 90.965358
_cell_volume                      1559.32244415

loop_
_atom_site_label
_atom_site_type_symbol
_atom_type_description
_atom_site_fract_x
_atom_site_fract_y
_atom_site_fract_z
_atom_type_partial_charge
C1    C     C_R   0.999226 0.262421 0.500085 0.751939
C2    C     C_R   0.107529 0.065124 0.525370 -0.184393
C3    C     C_R   0.001355 0.871622 0.499297 -0.013438
C4    C     C_R   0.999016 0.128437 0.500066 -0.008688
C5    C     C_R   0.547159 0.411825 0.548329 0.259973
C6    C     C_R   0.453002 0.588079 0.451456 0.266747
C7    C     C_R   0.400053 0.413099 0.547370 -0.035522
C8    C     C_R   0.600552 0.586399 0.451837 -0.044293
C9    C     C_R   0.917142 0.494856 0.671431 0.810959
C10   C     C_R   0.082294 0.496128 0.328477 0.800857
C11   C     C_R   0.868845 0.476121 0.768444 -0.158113
C12   C     C_R   0.000876 0.737592 0.499706 0.787113
C13   C     C_R   0.127388 0.487233 0.230870 -0.169210
C14   C     C_R   0.904656 0.400256 0.906605 -0.307904
C15   C     C_R   0.073135 0.486942 0.089500 -0.272556
C16   C     C_R   0.954847 0.414255 0.814290 0.466344
C17   C     C_R   0.026596 0.466934 0.181816 0.463239
C18   C     C_R   0.727436 0.509031 0.814534 -0.326228
C19   C     C_R   0.275247 0.497970 0.185531 -0.325603
C20   C     C_R   0.669346 0.481029 0.905850 0.097910
C21   C     C_R   0.324526 0.492462 0.092410 0.092408
C22   C     C_R   0.763649 0.433797 0.952538 0.088194
C23   C     C_R   0.573452 0.441126 0.090997 -0.203086
C24   C     C_R   0.221257 0.498957 0.044301 0.080909
C25   C     C_R   0.519998 0.495170 0.951753 0.074349
C26   C     C_R   0.473155 0.479929 0.046176 0.076821
C27   C     C_3   0.869148 0.314512 0.263433 0.103767
C28   C     C_3   0.825108 0.217094 0.205977 -0.403067
C29   C     C_3   0.814739 0.087788 0.248801 -0.907927
C30   C     C_3   0.063835 0.245676 0.739827 0.081602
C31   C     C_3   0.058604 0.145206 0.811282 -0.379959
C32   C     C_3   0.059239 0.015921 0.773527 -0.895723
C33   C     C_3   0.586862 0.306532 0.600616 -0.801253
C34   C     C_R   0.414416 0.513799 0.906067 -0.210715
C35   C     C_3   0.413066 0.693623 0.399514 -0.797249
C36   C     C_R   0.714676 0.415402 0.044268 -0.208698
C37   C     C_R   0.267243 0.512416 0.951687 -0.194710
C38   C     C_R   0.892268 0.062996 0.473784 -0.201217
C39   C     C_R   0.108072 0.937109 0.525599 -0.192794
C40   C     C_R   0.893415 0.934937 0.473328 -0.174881
Cu1   Cu    Cu3+1 0.140660 0.500020 0.500000 0.948927
Cu2   Cu    Cu3+1 0.859340 0.499980 0.500000 0.937320
H1    H     H_    0.785639 0.378833 0.079997 0.166168
H2    H     H_    0.190475 0.889698 0.547501 0.143228
H3    H     H_    0.810661 0.885705 0.452006 0.145374
H4    H     H_    0.191302 0.114240 0.545668 0.134003
H5    H     H_    0.323933 0.343093 0.583851 0.135168
H6    H     H_    0.677697 0.655633 0.414078 0.142261
H7    H     H_    0.782428 0.317240 0.327899 0.181566
H8    H     H_    0.969070 0.283876 0.279604 0.115018
H9    H     H_    0.717289 0.239510 0.197901 0.223045
H10   H     H_    0.906667 0.217104 0.139347 0.216729
H11   H     H_    0.920632 0.062159 0.258488 0.260949
H12   H     H_    0.189056 0.519845 0.914074 0.169390
H13   H     H_    0.784843 0.019210 0.204842 0.262448
H14   H     H_    0.730031 0.084284 0.314190 0.246560
H15   H     H_    0.156967 0.226970 0.681525 0.152584
H16   H     H_    0.965145 0.238715 0.716084 0.109173
H17   H     H_    0.154116 0.156888 0.837099 0.231723
H18   H     H_    0.958388 0.153676 0.867496 0.214290
H19   H     H_    0.964814 0.002394 0.746983 0.262303
H20   H     H_    0.052370 0.945125 0.827024 0.260227
H21   H     H_    0.161005 0.002640 0.719249 0.249939
H22   H     H_    0.488856 0.262870 0.648227 0.183778
H23   H     H_    0.351142 0.513128 0.223550 0.176500
H24   H     H_    0.638586 0.233103 0.554806 0.223687
H25   H     H_    0.656012 0.336447 0.641666 0.264053
H26   H     H_    0.510841 0.737141 0.351628 0.181228
H27   H     H_    0.343097 0.664091 0.358895 0.261130
H28   H     H_    0.361974 0.767038 0.445537 0.227179
H29   H     H_    0.664401 0.556909 0.777872 0.173677
H30   H     H_    0.973484 0.356162 0.941557 0.142225
H31   H     H_    0.994382 0.488785 0.052701 0.150561
H32   H     H_    0.542797 0.420069 0.161647 0.152747
H33   H     H_    0.441437 0.520266 0.834378 0.155394
H34   H     H_    0.809589 0.110583 0.452327 0.137162
N1    N     N_R   0.352080 0.500030 0.499980 -0.177423
N2    N     N_R   0.647920 0.499970 0.500020 -0.182202
O1    O     O_R   0.118740 0.319660 0.500000 -0.594116
O2    O     O_3   0.087103 0.365148 0.769912 -0.612456
O3    O     O_R   0.881260 0.680340 0.500000 -0.588203
O4    O     O_R   0.881170 0.319630 0.500010 -0.596043
O5    O     O_R   0.118830 0.680370 0.499990 -0.582821
O6    O     O_R   0.055570 0.500030 0.629830 -0.538205
O7    O     O_R   0.944430 0.499970 0.370170 -0.555166
O8    O     O_R   0.818000 0.500000 0.629840 -0.592481
O9    O     O_R   0.182000 0.500000 0.370160 -0.590463
O10   O     O_3   0.881859 0.434452 0.222038 -0.614039

loop_
_geom_bond_atom_site_label_1
_geom_bond_atom_site_label_2
_ccdc_geom_bond_type
C21   C26   A    
C10   O7    A    
C34   C37   A    
Cu1   Cu2   S    
Cu2   O4    S    
C11   C18   A    
C38   H34   S    
C2    H4    S    
C28   C29   S    
C19   C21   A    
C32   H19   S    
Cu1   N1    S    
C30   C31   S    
C28   H9    S    
C20   C25   A    
C17   O10   S    
C30   H15   S    
C6    C35   S    
C23   C26   A    
C31   H17   S    
C3    C12   S    
C2    C39   A    
C35   H28   S    
C5    C33   S    
Cu2   O8    S    
C27   H8    S    
C34   H33   S    
C7    N1    A    
C30   O2    S    
C3    C39   A    
C8    N2    A    
Cu2   O3    S    
C33   H24   S    
C40   H3    S    
Cu1   O9    S    
C10   O9    A    
C13   C19   A    
C5    C7    A    
C6    N1    A    
C6    C8    A    
C29   H13   S    
C25   C26   A    
Cu1   O6    S    
C12   O5    A    
C16   O2    S    
C7    H5    S    
C31   H18   S    
C2    C4    A    
C8    H6    S    
C9    O8    A    
C11   C16   A    
C31   C32   S    
C24   C37   A    
Cu2   O7    S    
C9    C11   S    
C37   H12   S    
C15   C24   A    
C15   H31   S    
C20   C22   A    
C3    C40   A    
Cu2   N2    S    
C1    O1    A    
C14   C16   A    
C23   H32   S    
C33   H25   S    
C18   H29   S    
C15   C17   A    
C14   H30   S    
C32   H21   S    
C4    C38   A    
C10   C13   S    
Cu1   O1    S    
C39   H2    S    
C29   H14   S    
C22   C36   A    
C25   C34   A    
C13   C17   A    
C1    C4    S    
C14   C22   A    
C1    O4    A    
C32   H20   S    
C38   C40   A    
C28   H10   S    
C29   H11   S    
C35   H26   S    
C33   H22   S    
C30   H16   S    
C12   O3    A    
C19   H23   S    
C18   C20   A    
C27   O10   S    
C9    O6    A    
C35   H27   S    
C23   C36   A    
C21   C24   A    
C27   C28   S    
C36   H1    S    
C5    N2    A    
C27   H7    S    
Cu1   O5    S    
