data_str_m4_o4_o9_f0_acs.sym.101
_audit_creation_date              2012-12-11T15:55:38-0500
_audit_creation_method            fapswitch 2.2
_symmetry_space_group_name_H-M    P1
_symmetry_Int_Tables_number       1
_space_group_crystal_system       triclinic
_cell_length_a                    11.090375
_cell_length_b                    11.173602
_cell_length_c                    18.738971
_cell_angle_alpha                 90.339693
_cell_angle_beta                  91.185926
_cell_angle_gamma                 59.092202
_cell_volume                      1991.9129958

loop_
_atom_site_label
_atom_site_type_symbol
_atom_type_description
_atom_site_fract_x
_atom_site_fract_y
_atom_site_fract_z
_atom_type_partial_charge
C1    C     C_R   0.386640 0.707316 0.389916 0.538599
C2    C     C_R   0.633857 0.115303 0.173413 0.036731
C3    C     C_R   0.367762 0.326261 0.160621 0.001912
C4    C     C_R   0.482440 0.241607 0.274688 -0.166949
C5    C     C_R   0.491747 0.230583 0.200738 -0.035169
C6    C     C_R   0.088281 0.665217 0.331379 -0.057553
C7    C     C_R   0.959025 0.778695 0.350233 -0.111502
C8    C     C_R   0.655256 0.996336 0.134879 -0.079751
C9    C     C_R   0.789724 0.884007 0.121226 -0.146804
C10   C     C_R   0.252813 0.435328 0.195246 -0.160690
C11   C     C_R   0.240996 0.439516 0.268858 -0.047842
C12   C     C_R   0.383927 0.354919 0.387407 0.530457
C13   C     C_R   0.836939 0.780599 0.330406 -0.106591
C14   C     C_R   0.845862 0.671380 0.289444 -0.096228
C15   C     C_R   0.977101 0.562273 0.269042 -0.092353
C16   C     C_R   0.101542 0.550144 0.295979 0.018430
C17   C     C_R   0.361155 0.342397 0.310332 -0.011401
C18   C     C_R   0.869232 0.335885 0.184158 0.019590
C19   C     C_R   0.974233 0.286002 0.236581 -0.005301
C20   C     C_R   0.948055 0.300897 0.307704 0.001286
C21   C     C_R   0.702232 0.423524 0.279121 -0.151216
C22   C     C_R   0.729835 0.416411 0.205758 -0.179149
C23   C     C_R   0.776947 0.378630 0.403841 0.537309
C24   C     C_3   0.114236 0.162321 0.245413 -0.257862
C25   C     C_3   0.084857 0.172597 0.325337 -0.280114
C26   C     C_R   0.812274 0.357557 0.330087 0.031626
C27   C     C_R   0.370697 0.819796 0.170451 0.013242
C28   C     C_R   0.379734 0.897103 0.226440 -0.004849
C29   C     C_R   0.374540 0.867026 0.297039 0.037373
C30   C     C_R   0.363339 0.668206 0.259958 -0.197705
C31   C     C_R   0.355849 0.706523 0.188243 -0.153349
C32   C     C_3   0.482209 0.940167 0.243690 -0.299681
C33   C     C_3   0.469912 0.915156 0.321522 -0.264142
C34   C     C_R   0.346946 0.762400 0.605935 0.555758
C35   C     C_R   0.376155 0.747035 0.315249 0.009462
C36   C     C_R   0.311731 0.328071 0.815136 0.017712
C37   C     C_R   0.445472 0.262132 0.785709 0.028360
C38   C     C_R   0.458996 0.262629 0.713265 0.052359
C39   C     C_R   0.208877 0.411985 0.696687 -0.169410
C40   C     C_R   0.193643 0.404061 0.769936 -0.174048
C41   C     C_3   0.562227 0.112309 0.790687 -0.270844
C42   C     C_3   0.571621 0.112658 0.710767 -0.267712
C43   C     C_R   0.342317 0.333333 0.667787 0.026358
C44   C     C_R   0.799073 0.340970 0.838906 0.016884
C45   C     C_R   0.371082 0.350107 0.595484 0.549772
C46   C     C_R   0.744388 0.470407 0.804299 0.028932
C47   C     C_R   0.738367 0.477676 0.730934 0.049686
C48   C     C_R   0.812078 0.235608 0.722865 -0.160700
C49   C     C_R   0.815476 0.228344 0.797742 -0.159907
C50   C     C_3   0.780097 0.583148 0.808789 -0.275429
C51   C     C_3   0.779341 0.585318 0.728239 -0.267165
C52   C     C_R   0.782172 0.359485 0.688787 0.020132
C53   C     C_R   0.318189 0.825125 0.829745 0.008507
C54   C     C_R   0.241923 0.774489 0.794794 0.009258
C55   C     C_R   0.250466 0.754788 0.721781 0.031246
C56   C     C_R   0.757709 0.380199 0.612028 0.543303
C57   C     C_R   0.416100 0.833210 0.716230 -0.163545
C58   C     C_R   0.414936 0.842325 0.790131 -0.151855
C59   C     C_3   0.087932 0.830720 0.795187 -0.129680
C60   C     C_3   0.097170 0.802040 0.715364 -0.249150
C61   C     C_R   0.328943 0.795401 0.681027 0.020199
C62   C     C_R   0.910033 0.316618 0.110848 0.545671
C63   C     C_R   0.332223 0.293801 0.090809 0.545234
C64   C     C_R   0.312289 0.892815 0.103007 0.532138
C65   C     C_R   0.877631 0.312530 0.906455 0.546222
C66   C     C_R   0.294939 0.288465 0.885673 0.553686
C67   C     C_R   0.907652 0.883004 0.148324 -0.078878
C68   C     C_R   0.276939 0.892903 0.898781 0.541949
C69   C     C_R   0.890540 0.993142 0.190376 -0.072915
C70   C     C_R   0.756296 0.107115 0.202550 -0.107024
Cr1   Cr    Cr6+3 0.601740 0.606840 0.505840 1.008899
Cr2   Cr    Cr6+3 0.291500 0.601560 0.495070 1.004456
Cr3   Cr    Cr6+3 0.606780 0.291630 0.499130 0.999810
Cr4   Cr    Cr6+3 0.062440 0.063060 0.008240 1.010463
Cr5   Cr    Cr6+3 0.062950 0.375000 0.998920 0.980795
Cr6   Cr    Cr6+3 0.374550 0.061770 0.992470 0.988213
H1    H     H_    0.574282 0.165882 0.305009 0.151001
H2    H     H_    0.737355 0.871011 0.343291 0.108891
H3    H     H_    0.752867 0.672499 0.270511 0.121202
H4    H     H_    0.981823 0.495127 0.227084 0.138424
H5    H     H_    0.596684 0.472431 0.297065 0.118004
H6    H     H_    0.644202 0.463998 0.166920 0.123578
H7    H     H_    0.195818 0.186758 0.231105 0.145793
H8    H     H_    0.118663 0.071966 0.218787 0.155890
H9    H     H_    0.072004 0.086626 0.345803 0.145910
H10   H     H_    0.155363 0.195800 0.357787 0.144016
H11   H     H_    0.366783 0.573172 0.272006 0.111528
H12   H     H_    0.801874 0.793813 0.092977 0.103267
H13   H     H_    0.338565 0.648260 0.147015 0.118277
H14   H     H_    0.435035 0.050350 0.230067 0.153161
H15   H     H_    0.586595 0.866495 0.222285 0.134128
H16   H     H_    0.566864 0.829259 0.346453 0.160207
H17   H     H_    0.415063 0.012525 0.353270 0.143148
H18   H     H_    0.117346 0.472805 0.662524 0.116346
H19   H     H_    0.090020 0.447356 0.790221 0.117377
H20   H     H_    0.529671 0.039627 0.808697 0.153497
H21   H     H_    0.655630 0.101081 0.819424 0.127786
H22   H     H_    0.672831 0.095333 0.691890 0.144667
H23   H     H_    0.953583 0.867255 0.377212 0.118430
H24   H     H_    0.535609 0.047426 0.683613 0.127542
H25   H     H_    0.840147 0.143478 0.691872 0.110380
H26   H     H_    0.844589 0.131503 0.823420 0.107333
H27   H     H_    0.884462 0.551072 0.831488 0.158684
H28   H     H_    0.694845 0.680067 0.832558 0.129846
H29   H     H_    0.697671 0.685157 0.704471 0.145793
H30   H     H_    0.885263 0.543996 0.705723 0.126266
H31   H     H_    0.481012 0.860500 0.686366 0.110435
H32   H     H_    0.479531 0.877097 0.815249 0.124831
H33   H     H_    0.033227 0.942972 0.806897 0.155077
H34   H     H_    0.011599 0.793868 0.139879 0.113541
H35   H     H_    0.080619 0.715664 0.699197 0.141265
H36   H     H_    0.036861 0.898202 0.682427 0.121192
H37   H     H_    0.980972 0.986728 0.216552 0.115157
H38   H     H_    0.747730 0.183453 0.240178 0.124830
H39   H     H_    0.178054 0.671141 0.336722 0.166788
H40   H     H_    0.571486 0.978996 0.120639 0.170729
H41   H     H_    0.163603 0.513454 0.164019 0.133141
O1    O     O_R   0.748670 0.497520 0.427970 -0.513596
O2    O     O_R   0.300170 0.471020 0.567120 -0.501190
O3    O     O_R   0.491630 0.259030 0.574940 -0.518686
O4    O     O_R   0.718640 0.304340 0.577850 -0.503802
O5    O     O_3   0.500010 0.500010 0.500020 -0.276353
O6    O     O_R   0.186620 0.923750 0.087000 -0.522320
O7    O     O_R   0.957350 0.194160 0.084660 -0.491364
O8    O     O_R   0.935120 0.407280 0.085350 -0.528170
O9    O     O_R   0.203800 0.365060 0.067090 -0.510520
O10   O     O_R   0.417470 0.174910 0.067830 -0.534035
O11   O     O_R   0.375160 0.946380 0.070880 -0.519182
O12   O     O_R   0.476470 0.723930 0.429450 -0.499499
O13   O     O_R   0.160500 0.919670 0.926690 -0.524821
O14   O     O_R   0.933140 0.190380 0.936050 -0.506691
O15   O     O_R   0.909010 0.403210 0.925030 -0.536699
O16   O     O_R   0.179590 0.361290 0.918480 -0.516316
O17   O     O_R   0.391360 0.170840 0.907510 -0.526967
O18   O     O_R   0.350950 0.942600 0.922260 -0.515319
O19   O     O_3   0.166650 0.166610 0.999880 -0.244042
O20   O     O_R   0.264730 0.744140 0.416740 -0.543811
O21   O     O_R   0.309440 0.472410 0.418220 -0.519443
O22   O     O_R   0.501630 0.260530 0.414310 -0.530894
O23   O     O_R   0.727920 0.305730 0.428950 -0.512851
O24   O     O_R   0.738670 0.496020 0.588600 -0.518588
O25   O     O_R   0.467190 0.722540 0.578350 -0.501795
O26   O     O_R   0.254720 0.742640 0.577370 -0.515904
C71   C     C_3   0.049023 0.745159 0.843648 -0.235121
C72   C     C_3   0.901795 0.834924 0.874385 -0.311586
C73   C     C_3   0.882780 0.766722 0.940115 -0.436216
H42   H     H_    0.911452 0.657863 0.929096 0.169363
H43   H     H_    0.950680 0.765794 0.984782 0.147980
H44   H     H_    0.771395 0.827026 0.956560 0.134269
H45   H     H_    0.883780 0.938301 0.890996 0.175028
H46   H     H_    0.822007 0.850631 0.832812 0.146516
H47   H     H_    0.051726 0.659001 0.813680 0.140515
H48   H     H_    0.127274 0.699029 0.888457 0.177195

loop_
_geom_bond_atom_site_label_1
_geom_bond_atom_site_label_2
_ccdc_geom_bond_type
C44   C49   A    
Cr2   O26   S    
Cr4   O7    S    
C21   C26   A    
C50   H28   S    
C41   C42   S    
C54   C55   A    
Cr1   O5    S    
C19   C20   A    
C23   O1    A    
C62   O7    A    
C72   C73   S    
Cr6   O19   S    
C53   C54   A    
C70   H38   S    
C69   H37   S    
C7    H23   S    
C30   C35   A    
C22   H6    S    
C21   C22   A    
C36   C37   A    
C24   H7    S    
C38   C42   S    
C1    O12   A    
C42   H22   S    
C9    H12   S    
C30   C31   A    
C36   C66   S    
C32   H15   S    
C20   C25   S    
C15   C16   A    
C66   O16   A    
C29   C33   S    
C18   C19   A    
C23   C26   S    
C71   H48   S    
C4    H1    S    
C53   C68   S    
C36   C40   A    
C7    C13   A    
C66   O17   A    
C32   H14   S    
C8    C9    A    
C64   O11   A    
Cr4   O19   S    
C12   C17   S    
C58   H32   S    
C72   H45   S    
Cr1   O24   S    
C45   O2    A    
Cr2   O21   S    
Cr4   O6    S    
C59   C60   S    
Cr3   O3    S    
C13   C14   A    
C44   C65   S    
C65   O14   A    
Cr6   O18   S    
C44   C46   A    
C73   H43   S    
C54   C59   S    
Cr4   O14   S    
C34   O26   A    
C27   C31   A    
C23   O23   A    
C28   C32   S    
C24   C25   S    
C10   C11   A    
C33   H16   S    
C49   H26   S    
Cr6   O17   S    
Cr5   O19   S    
C18   C62   S    
C39   C43   A    
Cr3   O22   S    
C31   H13   S    
C34   C61   S    
C33   H17   S    
C67   C69   A    
C47   C52   A    
C9    C67   A    
C39   H18   S    
C37   C38   A    
C60   H36   S    
C42   H24   S    
Cr1   O12   S    
C73   H44   S    
C34   O25   A    
C11   C16   S    
C67   H34   S    
C15   H4    S    
C48   C52   A    
C51   H29   S    
C25   H9    S    
C50   C51   S    
C12   O22   A    
C14   H3    S    
C68   O13   A    
C43   C45   S    
C72   H46   S    
Cr1   O25   S    
C56   O24   A    
C45   O3    A    
Cr2   O20   S    
C57   H31   S    
C21   H5    S    
C59   C71   S    
Cr3   O4    S    
Cr4   O13   S    
Cr6   O11   S    
C12   O21   A    
C2    C5    S    
C4    C17   A    
C40   H19   S    
C39   C40   A    
C65   O15   A    
C1    O20   A    
Cr5   O15   S    
C1    C35   S    
C73   H42   S    
C46   C50   S    
C46   C47   A    
C28   C29   A    
Cr1   O1    S    
Cr2   O5    S    
C18   C22   A    
C68   O18   A    
C2    C8    A    
C4    C5    A    
C3    C5    A    
C11   C17   A    
C62   O8    A    
C47   C51   S    
C53   C58   A    
Cr5   O16   S    
C57   C61   A    
C6    C7    A    
Cr3   O23   S    
C3    C63   S    
C64   O6    A    
C29   C35   A    
C8    H40   S    
C10   H41   S    
C71   C72   S    
Cr5   O9    S    
C32   C33   S    
C19   C24   S    
C24   H8    S    
C38   C43   A    
C71   H47   S    
C60   H35   S    
C2    C70   A    
C56   O4    A    
C57   C58   A    
C20   C26   A    
C51   H30   S    
C48   C49   A    
C48   H25   S    
C55   C61   A    
Cr2   O2    S    
C25   H10   S    
C59   H33   S    
C41   H21   S    
C37   C41   S    
C69   C70   A    
C6    H39   S    
C63   O9    A    
C27   C64   S    
C13   H2    S    
C6    C16   A    
C41   H20   S    
C50   H27   S    
Cr3   O5    S    
C27   C28   A    
C3    C10   A    
Cr6   O10   S    
C14   C15   A    
Cr5   O8    S    
C30   H11   S    
C55   C60   S    
C63   O10   A    
C52   C56   S    
