data_str_m3_o10_o14_f0_pcu.sym.60
_audit_creation_date              2012-12-10T16:50:10-0500
_audit_creation_method            fapswitch 2.2
_symmetry_space_group_name_H-M    P1
_symmetry_Int_Tables_number       1
_space_group_crystal_system       triclinic
_cell_length_a                    7.786714
_cell_length_b                    8.565417
_cell_length_c                    10.60494
_cell_angle_alpha                 91.152134
_cell_angle_beta                  85.60577
_cell_angle_gamma                 93.727036
_cell_volume                      703.659849047

loop_
_atom_site_label
_atom_site_type_symbol
_atom_type_description
_atom_site_fract_x
_atom_site_fract_y
_atom_site_fract_z
_atom_type_partial_charge
C1    C     C_R   0.545765 0.794680 0.496670 0.934051
C2    C     C_R   0.454218 0.205308 0.503135 0.963298
C3    C     C_R   0.499044 0.503310 0.260663 0.859797
C4    C     C_R   0.403166 0.784597 0.878950 -0.237276
C5    C     C_R   0.349779 0.914164 0.949749 -0.140080
C6    C     C_R   0.343606 0.912628 0.081839 0.261795
C7    C     C_R   0.392276 0.780348 0.142195 -0.194386
C8    C     C_R   0.445334 0.647691 0.071473 0.048655
C9    C     C_3   0.286635 0.051119 0.159466 -0.933211
C10   C     C_R   0.450607 0.649760 0.939256 0.095536
C11   C     C_R   0.508002 0.517167 0.871332 -0.078801
C12   C     C_R   0.566705 0.389354 0.929876 -0.210962
C13   C     C_R   0.562782 0.387837 0.058689 -0.209610
C14   C     C_R   0.498800 0.513447 0.128465 -0.076280
C15   C     C_2   0.569749 0.958237 0.494582 -0.381808
C16   C     C_2   0.430148 0.041706 0.504752 -0.400895
C17   C     C_R   0.502623 0.505621 0.739229 0.860026
H1    H     H_    0.611510 0.289115 0.875716 0.154838
H2    H     H_    0.253495 0.147396 0.098866 0.246385
H3    H     H_    0.171039 0.015560 0.222714 0.247194
H4    H     H_    0.391693 0.095783 0.218274 0.234133
H5    H     H_    0.986711 0.618175 0.594709 0.194314
H6    H     H_    0.409417 0.792235 0.777027 0.156725
H7    H     H_    0.314475 0.016053 0.901172 0.142211
H8    H     H_    0.390164 0.783737 0.244252 0.162388
H9    H     H_    0.607122 0.287346 0.104416 0.158275
H10   H     H_    0.701553 0.009414 0.484887 0.184207
H11   H     H_    0.298333 0.990516 0.514235 0.184397
H12   H     H_    0.013314 0.381853 0.405271 0.195319
N1    N     N_2   0.950330 0.457950 0.466250 -0.171675
N2    N     N_2   0.049670 0.542050 0.533750 -0.171586
O1    O     O_R   0.389250 0.738570 0.508280 -0.624447
O2    O     O_R   0.678390 0.711630 0.486650 -0.625628
O3    O     O_R   0.355400 0.513470 0.694050 -0.614460
O4    O     O_R   0.644540 0.486530 0.672420 -0.621333
O5    O     O_R   0.321610 0.288370 0.513350 -0.624316
O6    O     O_R   0.610750 0.261430 0.491720 -0.612859
O7    O     O_R   0.355460 0.513470 0.327580 -0.627247
O8    O     O_R   0.644600 0.486530 0.305950 -0.609987
Zn1   Zn    Zn3+2 0.306930 0.517990 0.514440 0.938687
Zn2   Zn    Zn3+2 0.693070 0.482010 0.485560 0.944618

loop_
_geom_bond_atom_site_label_1
_geom_bond_atom_site_label_2
_ccdc_geom_bond_type
C16   H11   S    
C11   C12   A    
N1    Zn2   S    
H12   N1    S    
C1    C15   S    
C2    C16   S    
C9    H3    S    
C15   H10   S    
C7    H8    S    
O2    Zn2   S    
C6    C9    S    
C3    O8    A    
C7    C8    A    
O8    Zn2   S    
C13   C14   A    
N2    Zn1   S    
O7    Zn1   S    
C3    C14   S    
C2    O6    A    
C9    H4    S    
C17   O3    A    
C6    C7    A    
C5    H7    S    
O3    Zn1   S    
C5    C6    A    
O1    Zn1   S    
O6    Zn2   S    
N1    N2    D    
O4    Zn2   S    
C13   H9    S    
H5    N2    S    
C1    O2    A    
C15   C16   D    
O5    Zn1   S    
C2    O5    A    
C12   C13   A    
C8    C10   A    
C10   C11   A    
C12   H1    S    
C4    H6    S    
C11   C17   S    
C8    C14   A    
C17   O4    A    
C4    C10   A    
C9    H2    S    
C1    O1    A    
C3    O7    A    
C4    C5    A    
