data_str_m2_o10_o28_f0_pcu.sym.230
_audit_creation_date              2012-12-10T16:50:15-0500
_audit_creation_method            fapswitch 2.2
_symmetry_space_group_name_H-M    P1
_symmetry_Int_Tables_number       1
_space_group_crystal_system       triclinic
_cell_length_a                    23.418121
_cell_length_b                    8.712801
_cell_length_c                    7.488697
_cell_angle_alpha                 103.123046
_cell_angle_beta                  94.259807
_cell_angle_gamma                 93.583717
_cell_volume                      1478.99613672

loop_
_atom_site_label
_atom_site_type_symbol
_atom_type_description
_atom_site_fract_x
_atom_site_fract_y
_atom_site_fract_z
_atom_type_partial_charge
C1    C     C_R   0.497681 0.200242 0.454084 0.830125
C2    C     C_R   0.502319 0.799758 0.545916 0.830130
C3    C     C_R   0.245921 0.637805 0.610699 0.462247
C4    C     C_R   0.754078 0.362182 0.389308 0.462250
C5    C     C_R   0.305220 0.640623 0.595602 0.012114
C6    C     C_R   0.694778 0.359368 0.404414 0.012112
C7    C     C_R   0.329320 0.501595 0.510488 -0.272135
C8    C     C_R   0.670679 0.498403 0.489511 -0.272135
C9    C     C_R   0.295139 0.357861 0.463888 0.309911
C10   C     C_R   0.704861 0.642135 0.536088 0.309916
C11   C     C_R   0.235910 0.357062 0.481170 0.364069
C12   C     C_R   0.764089 0.642929 0.518801 0.364069
C13   C     C_R   0.209389 0.502314 0.516609 -0.031459
C14   C     C_R   0.790610 0.497677 0.483378 -0.031462
C15   C     C_2   0.489257 0.033538 0.433065 0.133483
C16   C     C_2   0.510744 0.966462 0.566935 0.133481
C17   C     C_R   0.391425 0.501378 0.502629 0.865954
C18   C     C_R   0.608575 0.498623 0.497371 0.865954
C19   C     C_R   0.886716 0.620209 0.627009 0.703053
C20   C     C_R   0.113283 0.379788 0.372968 0.703053
C21   C     C_R   0.878318 0.351345 0.494387 0.698562
C22   C     C_R   0.121682 0.648650 0.505598 0.698564
C23   C     C_R   0.936691 0.351035 0.460329 -0.151611
C24   C     C_R   0.063309 0.648961 0.539650 -0.151610
C25   C     C_R   0.970549 0.496828 0.513322 -0.105306
C26   C     C_R   0.029451 0.503169 0.486656 -0.105306
C27   C     C_R   0.945754 0.634557 0.602007 -0.149022
C28   C     C_R   0.054246 0.365440 0.397970 -0.149021
C29   C     C_R   0.961609 0.212503 0.373566 0.378355
C30   C     C_R   0.038391 0.787494 0.626412 0.378356
C31   C     C_R   0.020003 0.219830 0.341260 0.378438
C32   C     C_R   0.979997 0.780167 0.658716 0.378439
Cu1   Cu    Cu3+1 0.506340 0.517380 0.684380 1.183376
Cu2   Cu    Cu3+1 0.493660 0.482620 0.315620 1.183380
N1    N     N_R   0.852607 0.490794 0.527943 -0.452169
N2    N     N_R   0.147392 0.509199 0.472040 -0.452169
N3    N     N_2   0.484110 0.456420 0.038520 0.117901
N4    N     N_2   0.515890 0.543580 0.961480 0.117900
O1    O     O_R   0.504120 0.286130 0.619770 -0.546022
O2    O     O_R   0.495880 0.713870 0.380230 -0.546021
O3    O     O_R   0.493410 0.256770 0.308360 -0.527811
O4    O     O_R   0.506590 0.743230 0.691640 -0.527814
O5    O     O_R   0.423230 0.514630 0.655730 -0.569717
O6    O     O_R   0.576770 0.485370 0.344270 -0.569712
O7    O     O_R   0.412530 0.485280 0.344320 -0.529716
O8    O     O_R   0.587470 0.514720 0.655680 -0.529719
O9    O     O_2   0.864841 0.725305 0.760083 -0.376997
O10   O     O_2   0.135158 0.274695 0.239889 -0.376996
O11   O     O_2   0.849611 0.218212 0.513908 -0.354450
O12   O     O_2   0.150392 0.781784 0.486087 -0.354452
Cl1   Cl    Cl    0.919789 0.029959 0.288081 -0.308615
Cl2   Cl    Cl    0.080210 0.970038 0.711896 -0.308616
Cl3   Cl    Cl    0.049609 0.040923 0.241838 -0.336330
Cl4   Cl    Cl    0.950390 0.959075 0.758135 -0.336329
Cl5   Cl    Cl    0.223024 0.782556 0.792427 -0.337986
Cl6   Cl    Cl    0.776970 0.217420 0.207585 -0.337980
N5    N     N_3   0.340543 0.784604 0.672915 -0.421907
H1    H     H_    0.363658 0.814261 0.569627 0.243001
H2    H     H_    0.369645 0.765540 0.776875 0.270969
N6    N     N_3   0.659455 0.215386 0.327126 -0.421903
H3    H     H_    0.636337 0.185750 0.430422 0.242999
H4    H     H_    0.630354 0.234436 0.223152 0.270964
Cl7   Cl    Cl    0.327092 0.177206 0.397870 -0.389949
Cl8   Cl    Cl    0.672909 0.822792 0.602086 -0.389952
Cl9   Cl    Cl    0.200689 0.180594 0.513842 -0.287412
Cl10  Cl    Cl    0.799312 0.819389 0.486112 -0.287413
Cl11  Cl    Cl    0.442369 0.932663 0.238059 -0.459668
Cl12  Cl    Cl    0.557631 0.067336 0.761940 -0.459672
Cl13  Cl    Cl    0.431134 0.321695 0.908932 -0.343285
Cl14  Cl    Cl    0.568865 0.678305 0.091068 -0.343280

loop_
_geom_bond_atom_site_label_1
_geom_bond_atom_site_label_2
_ccdc_geom_bond_type
C17   O5    A    
C12   Cl10  S    
N3    N4    D    
C21   N1    A    
N3    Cl13  S    
C25   C27   A    
Cu2   N3    S    
C2    C16   S    
C26   C28   A    
Cu1   N4    S    
C3    C13   A    
C5    N5    S    
C22   O12   S    
C28   C31   A    
C15   Cl11  S    
C7    C9    A    
C3    C5    A    
C21   O11   S    
Cu1   Cu2   S    
C27   C32   A    
C18   O8    A    
Cu2   O6    S    
C29   C31   A    
Cu2   O7    S    
C19   N1    A    
C4    Cl6   S    
C30   C32   A    
Cu1   O8    S    
C9    C11   A    
C6    N6    S    
N5    H1    S    
C20   O10   S    
Cu2   O3    S    
C10   C12   A    
C2    O4    A    
C1    C15   S    
Cu1   O4    S    
C23   C29   A    
C1    O3    A    
N4    Cl14  S    
C12   C14   A    
C8    C18   S    
C18   O6    A    
C21   C23   A    
C4    C14   A    
C16   Cl12  S    
C24   C26   A    
C22   C24   A    
C31   Cl3   S    
C4    C6    A    
N5    H2    S    
C1    O1    A    
C24   C30   A    
C15   C16   D    
C20   N2    A    
C2    O2    A    
C11   C13   A    
C23   C25   A    
C22   N2    A    
C13   N2    S    
N6    H4    S    
C29   Cl1   S    
C19   O9    S    
C32   Cl4   S    
C14   N1    S    
C5    C7    A    
C30   Cl2   S    
Cu2   O2    S    
C6    C8    A    
C20   C28   A    
C19   C27   A    
C25   C26   A    
C9    Cl7   S    
C3    Cl5   S    
Cu1   O1    S    
C8    C10   A    
C10   Cl8   S    
C11   Cl9   S    
C17   O7    A    
N6    H3    S    
C7    C17   S    
Cu1   O5    S    
