data_str_m3_o10_o12_f0_pcu.sym.90
_audit_creation_date              2012-12-10T16:48:47-0500
_audit_creation_method            fapswitch 2.2
_symmetry_space_group_name_H-M    P1
_symmetry_Int_Tables_number       1
_space_group_crystal_system       triclinic
_cell_length_a                    7.948922
_cell_length_b                    8.566726
_cell_length_c                    10.822457
_cell_angle_alpha                 91.257358
_cell_angle_beta                  98.539031
_cell_angle_gamma                 92.697786
_cell_volume                      727.679207943

loop_
_atom_site_label
_atom_site_type_symbol
_atom_type_description
_atom_site_fract_x
_atom_site_fract_y
_atom_site_fract_z
_atom_type_partial_charge
C1    C     C_R   0.543470 0.793771 0.497173 0.947721
C2    C     C_2   0.433651 0.042916 0.504731 -0.315054
C3    C     C_R   0.456599 0.206228 0.503055 0.937330
C4    C     C_R   0.570836 0.492109 0.734455 0.932349
C5    C     C_R   0.428821 0.505820 0.265361 0.931222
C6    C     C_2   0.610485 0.486918 0.867844 -0.282016
C7    C     C_2   0.388081 0.502635 0.131565 -0.301953
C8    C     C_2   0.481666 0.481818 0.933187 -0.168493
C9    C     C_2   0.515774 0.493356 0.065771 -0.124264
C10   C     C_2   0.566561 0.957093 0.496031 -0.344578
H1    H     H_    0.648201 0.495489 0.109387 0.254654
H2    H     H_    0.349252 0.473666 0.889127 0.235033
H3    H     H_    0.256161 0.503768 0.087059 0.201974
H4    H     H_    0.742599 0.492259 0.912636 0.205488
H5    H     H_    0.693075 0.006214 0.488078 0.189643
H6    H     H_    0.307201 0.993763 0.512948 0.211197
H7    H     H_    0.792960 0.175071 0.311634 0.353735
H8    H     H_    0.205624 0.750660 0.823587 0.365043
N1    N     N_2   0.940600 0.458860 0.467170 0.090632
N2    N     N_2   0.059400 0.541140 0.532830 0.120570
O1    O     O_R   0.391630 0.738350 0.508060 -0.597344
O2    O     O_2   0.106639 0.275604 0.324008 -0.303719
O3    O     O_3   0.785141 0.272586 0.264084 -0.524203
O4    O     O_2   0.894392 0.724916 0.675491 -0.291172
O5    O     O_2   0.017862 0.486853 0.766439 -0.336005
O6    O     O_3   0.215640 0.726905 0.735052 -0.531043
O7    O     O_R   0.608370 0.261650 0.491940 -0.633103
O8    O     O_R   0.674540 0.711990 0.487010 -0.589379
O9    O     O_R   0.325460 0.288010 0.512990 -0.587471
O10   O     O_R   0.411370 0.508250 0.688780 -0.579400
O11   O     O_R   0.588630 0.491750 0.311220 -0.580986
O12   O     O_R   0.694270 0.481880 0.667740 -0.547859
O13   O     O_R   0.305730 0.518120 0.332260 -0.551752
O14   O     O_2   0.981863 0.512362 0.233259 -0.301229
S1    S     S_3+6 0.961923 0.381779 0.321242 0.128806
S2    S     S_3+6 0.038339 0.617862 0.678852 0.128978
Zn1   Zn    Zn3+2 0.311100 0.517600 0.514050 1.138328
Zn2   Zn    Zn3+2 0.688900 0.482400 0.485950 1.118318

loop_
_geom_bond_atom_site_label_1
_geom_bond_atom_site_label_2
_ccdc_geom_bond_type
C1    O8    A    
C5    C7    S    
C1    O1    A    
O2    S1    D    
N1    Zn2   S    
O12   Zn2   S    
C6    H4    S    
C2    H6    S    
N1    N2    D    
H8    O6    S    
O11   Zn2   S    
O8    Zn2   S    
C8    H2    S    
C3    O7    A    
C2    C3    S    
N1    S1    S    
N2    Zn1   S    
C9    H1    S    
O4    S2    D    
H7    O3    S    
O6    S2    S    
O3    S1    S    
C10   H5    S    
C4    O10   A    
O7    Zn2   S    
C4    O12   A    
N2    S2    S    
C7    C9    D    
C7    H3    S    
O1    Zn1   S    
C4    C6    S    
O14   S1    D    
O9    Zn1   S    
C3    O9    A    
C6    C8    D    
O5    S2    D    
O13   Zn1   S    
C1    C10   S    
O10   Zn1   S    
C5    O13   A    
C8    C9    S    
C5    O11   A    
C2    C10   D    
