data_str_m2_o10_o16_f0_pcu.sym.143
_audit_creation_date              2012-12-10T16:44:15-0500
_audit_creation_method            fapswitch 2.2
_symmetry_space_group_name_H-M    P1
_symmetry_Int_Tables_number       1
_space_group_crystal_system       triclinic
_cell_length_a                    7.455878
_cell_length_b                    8.755023
_cell_length_c                    13.405005
_cell_angle_alpha                 94.165053
_cell_angle_beta                  78.163645
_cell_angle_gamma                 103.089739
_cell_volume                      833.857468955

loop_
_atom_site_label
_atom_site_type_symbol
_atom_type_description
_atom_site_fract_x
_atom_site_fract_y
_atom_site_fract_z
_atom_type_partial_charge
C1    C     C_R   0.544974 0.799779 0.501727 0.867578
C2    C     C_R   0.426526 0.533906 0.975868 0.076665
C3    C     C_R   0.476384 0.565598 0.870454 0.087890
C4    C     C_R   0.564305 0.581442 0.037330 0.024470
C5    C     C_R   0.754265 0.633984 0.991209 0.145736
C6    C     C_R   0.798746 0.679680 0.890208 -0.231276
C7    C     C_R   0.658345 0.656051 0.832783 -0.205109
C8    C     C_R   0.520183 0.577968 0.143703 -0.085502
C9    C     C_R   0.845094 0.589282 0.148128 -0.208430
C10   C     C_R   0.345472 0.501358 0.806121 -0.109311
C11   C     C_2   0.565869 0.966896 0.502891 -0.411620
C12   C     C_R   0.401719 0.499875 0.694186 0.774383
C13   C     C_2   0.429995 0.033593 0.485749 -0.229770
C14   C     C_R   0.455742 0.200438 0.494497 0.839038
C15   C     C_R   0.600693 0.520968 0.306731 0.799253
C16   C     C_R   0.894556 0.641951 0.048085 -0.181378
C17   C     C_R   0.656932 0.559227 0.197801 -0.101151
C18   C     C_R   0.165824 0.416826 0.848887 -0.196234
C19   C     C_R   0.118680 0.385510 0.952128 -0.150527
C20   C     C_R   0.247460 0.441725 0.015041 -0.194672
Cu1   Cu    Cu3+1 0.321300 0.483160 0.488710 0.969664
Cu2   Cu    Cu3+1 0.678700 0.516840 0.511290 0.967205
H1    H     H_    0.952454 0.578986 0.188225 0.189184
H2    H     H_    0.010943 0.617043 0.579818 0.222921
H3    H     H_    0.988909 0.382705 0.420352 0.225997
H4    H     H_    0.041316 0.680656 0.013669 0.162567
H5    H     H_    0.064765 0.366641 0.801327 0.164226
H6    H     H_    0.207375 0.407309 0.093751 0.142271
H7    H     H_    0.982169 0.314819 0.983446 0.156930
H8    H     H_    0.695738 0.037639 0.520967 0.180860
N1    N     N_2   0.947230 0.542220 0.528320 -0.202640
N2    N     N_2   0.052770 0.457780 0.471680 -0.205899
O1    O     O_R   0.383920 0.714220 0.492660 -0.576999
O2    O     O_R   0.685730 0.742660 0.511730 -0.573316
O3    O     O_R   0.275440 0.478800 0.636790 -0.590927
O4    O     O_R   0.577250 0.507240 0.655860 -0.585210
O5    O     O_R   0.314270 0.257340 0.488270 -0.584406
O6    O     O_R   0.616080 0.285780 0.507340 -0.584831
O7    O     O_R   0.422750 0.492760 0.344140 -0.576136
O8    O     O_R   0.724560 0.521200 0.363210 -0.578786
C21   C     C_1   0.254896 0.948689 0.457245 0.326679
N3    N     N_1   0.115135 0.883091 0.434745 -0.240238
H9    H     H_    0.941505 0.734401 0.855805 0.144648
C22   C     C_1   0.366663 0.648196 0.195230 0.246233
N4    N     N_1   0.248202 0.707979 0.237457 -0.278349
H10   H     H_    0.697382 0.705815 0.758078 0.168317

loop_
_geom_bond_atom_site_label_1
_geom_bond_atom_site_label_2
_ccdc_geom_bond_type
C2    C4    A    
C6    C7    A    
Cu1   O3    S    
C12   O4    A    
Cu2   O4    S    
C21   N3    T    
C8    C17   A    
Cu1   O7    S    
C4    C8    A    
Cu2   O8    S    
H3    N2    S    
C13   C21   S    
C2    C3    A    
H2    N1    S    
C1    O1    A    
C3    C10   A    
C13   C14   S    
C14   O5    A    
C11   C13   D    
C15   O7    A    
C10   C12   S    
C10   C18   A    
C9    C17   A    
C9    C16   A    
C1    O2    A    
C3    C7    A    
C6    H9    S    
C16   H4    S    
C5    C6    A    
Cu2   O2    S    
Cu1   N2    S    
C15   O8    A    
Cu1   O1    S    
Cu2   N1    S    
C2    C20   A    
C14   O6    A    
C19   H7    S    
C7    H10   S    
C8    C22   S    
Cu1   O5    S    
C22   N4    T    
C18   C19   A    
C15   C17   S    
C9    H1    S    
C5    C16   A    
C1    C11   S    
C20   H6    S    
Cu1   Cu2   S    
N1    N2    D    
C18   H5    S    
C19   C20   A    
C11   H8    S    
C4    C5    A    
C12   O3    A    
Cu2   O6    S    
