data_str_m2_o40_o40_f0_fof.sym.5
_audit_creation_date              2012-10-26T17:12:30-0400
_audit_creation_method            fapswitch 2.2
_symmetry_space_group_name_H-M    P1
_symmetry_Int_Tables_number       1
_space_group_crystal_system       triclinic
_cell_length_a                    16.782332
_cell_length_b                    16.886903
_cell_length_c                    16.664567
_cell_angle_alpha                 67.227752
_cell_angle_beta                  67.912452
_cell_angle_gamma                 67.998189
_cell_volume                      3887.28737843

loop_
_atom_site_label
_atom_site_type_symbol
_atom_type_description
_atom_site_fract_x
_atom_site_fract_y
_atom_site_fract_z
_atom_type_partial_charge
C1    C     C_R   0.030342 0.828713 0.563822 0.580904
C2    C     C_R   0.030343 0.564480 0.827962 0.579654
C3    C     C_3   0.397227 0.732981 0.199652 -0.110880
C4    C     C_3   0.899473 0.672916 0.180271 -0.035229
C5    C     C_3   0.224531 0.398689 0.730466 -0.105806
C6    C     C_3   0.396619 0.258059 0.554983 -0.125630
C7    C     C_3   0.734911 0.905384 0.244924 -0.068483
C8    C     C_3   0.181182 0.619036 0.286695 -0.145626
C9    C     C_3   0.221503 0.316680 0.476610 -0.035789
C10   C     C_3   0.601751 0.293326 0.173963 -0.133261
C11   C     C_3   0.176867 0.640706 0.062639 -0.076706
C12   C     C_3   0.230260 0.033845 0.679604 -0.086829
C13   C     C_R   0.170326 0.981535 0.431129 0.587960
C14   C     C_3   0.786583 0.059321 0.266663 -0.066244
C15   C     C_3   0.706187 0.396751 0.831448 -0.142614
C16   C     C_3   0.399523 0.776130 0.878105 -0.087165
C17   C     C_3   0.836916 0.703054 0.397083 -0.129559
C18   C     C_3   0.983749 0.318705 0.768879 -0.125536
C19   C     C_R   0.828724 0.026686 0.565027 0.580533
C20   C     C_R   0.452255 0.093267 0.691207 0.260829
C21   C     C_R   0.545881 0.921395 0.304864 0.279182
C22   C     C_R   0.078782 0.708756 0.443593 0.284241
C23   C     C_R   0.037024 0.269600 0.521503 0.319250
C24   C     C_R   0.699167 0.450017 0.074270 0.285080
C25   C     C_R   0.291706 0.547603 0.934131 0.283820
C26   C     C_R   0.267710 0.067909 0.476247 0.315922
C27   C     C_R   0.982658 0.169826 0.432138 0.589064
C28   C     C_R   0.707948 0.071538 0.448145 0.278914
C29   C     C_R   0.549799 0.300121 0.930140 0.286396
C30   C     C_R   0.451787 0.708976 0.060427 0.303621
C31   C     C_R   0.933832 0.548442 0.300344 0.284882
C32   C     C_R   0.089731 0.452763 0.700766 0.287282
C33   C     C_R   0.543364 0.038392 0.532739 -0.099089
C34   C     C_R   0.452019 0.009491 0.440114 -0.102577
C35   C     C_R   0.043765 0.542642 0.537338 -0.103374
C36   C     C_R   0.004203 0.453289 0.450227 -0.109097
C37   C     C_R   0.537825 0.546833 0.024338 -0.106985
C38   C     C_R   0.827953 0.564188 0.028514 0.589238
C39   C     C_R   0.453086 0.462084 0.975320 -0.104216
C40   C     C_R   0.589433 0.021081 0.448066 0.024570
C41   C     C_R   0.402517 0.049411 0.512168 -0.034577
C42   C     C_R   0.048334 0.451842 0.575978 -0.027546
C43   C     C_R   0.996989 0.544581 0.413805 0.007756
C44   C     C_R   0.452458 0.593580 0.007542 -0.031699
C45   C     C_R   0.540429 0.421517 0.983628 0.000890
C46   C     C_R   0.546174 0.993129 0.408568 0.024805
C47   C     C_R   0.449745 0.061809 0.560191 -0.015705
C48   C     C_R   0.407079 0.548752 0.987502 -0.020277
C49   C     C_R   0.171632 0.435259 0.972067 0.568030
C50   C     C_R   0.577903 0.459136 0.018964 0.002172
C51   C     C_R   0.037995 0.407392 0.525884 -0.044302
C52   C     C_R   0.029147 0.585939 0.451173 0.007579
C53   C     C_R   0.409604 0.110381 0.624713 0.300764
C54   C     C_R   0.594199 0.943589 0.344178 0.312026
C55   C     C_R   0.062663 0.660695 0.399645 0.308816
C56   C     C_R   0.075125 0.317637 0.539759 0.331447
C57   C     C_R   0.648934 0.407677 0.059127 0.306962
C58   C     C_R   0.318530 0.585185 0.977848 0.309492
C59   C     C_R   0.307846 0.073490 0.533082 0.307746
C60   C     C_R   0.564719 0.027856 0.827846 0.595371
C61   C     C_R   0.669619 0.047863 0.400346 0.312243
C62   C     C_R   0.591964 0.350030 0.945812 0.308667
C63   C     C_R   0.416953 0.682173 0.014742 0.329724
C64   C     C_R   0.951434 0.593228 0.346642 0.300682
C65   C     C_R   0.068690 0.407433 0.660587 0.313719
C66   C     C_R   0.546302 0.056069 0.671448 -0.012578
C67   C     C_R   0.452322 0.954368 0.323457 -0.011879
C68   C     C_R   0.060774 0.678553 0.540241 -0.004360
C69   C     C_R   0.999323 0.311126 0.444279 -0.037137
C70   C     C_R   0.673250 0.544965 0.052761 -0.004753
C71   C     C_R   0.436611 0.968763 0.172071 0.577824
C72   C     C_R   0.323505 0.454552 0.947468 -0.037661
C73   C     C_R   0.312812 0.007238 0.425925 -0.048220
C74   C     C_R   0.679217 0.048456 0.543924 -0.021695
C75   C     C_R   0.454747 0.326065 0.949702 -0.005305
C76   C     C_R   0.544709 0.676584 0.051642 -0.046421
C77   C     C_R   0.960354 0.452700 0.325025 -0.004587
C78   C     C_R   0.066820 0.546745 0.671778 -0.038937
C79   C     C_R   0.599312 0.042718 0.728241 0.001710
C80   C     C_R   0.402309 0.953089 0.271196 -0.014694
C81   C     C_R   0.050727 0.730609 0.595682 -0.006243
C82   C     C_R   0.435426 0.172149 0.971931 0.588796
C83   C     C_R   0.980415 0.265600 0.397971 -0.021791
C84   C     C_R   0.728040 0.597136 0.045822 0.000392
C85   C     C_R   0.270897 0.401554 0.954645 -0.036631
C86   C     C_R   0.266691 0.978863 0.390482 -0.023635
C87   C     C_R   0.730958 0.040846 0.598700 -0.014880
C88   C     C_R   0.402309 0.271716 0.955731 -0.001588
C89   C     C_R   0.598050 0.728709 0.045760 -0.034130
C90   C     C_R   0.960744 0.401555 0.272643 -0.001411
C91   C     C_R   0.052308 0.599131 0.727471 -0.026817
C92   C     C_R   0.690788 0.035007 0.690260 -0.182638
C93   C     C_R   0.564843 0.828081 0.028139 0.560105
C94   C     C_R   0.312172 0.954955 0.310614 -0.187860
C95   C     C_R   0.045892 0.690098 0.687820 -0.190731
C96   C     C_R   0.964439 0.311374 0.313101 -0.192033
C97   C     C_R   0.688544 0.687637 0.042859 -0.176768
C98   C     C_R   0.311484 0.311263 0.958585 -0.189457
C99   C     C_R   0.590568 0.044401 0.584032 -0.091198
C100  C     C_R   0.406232 0.987946 0.398135 -0.092846
C101  C     C_R   0.056641 0.589602 0.583320 -0.088348
C102  C     C_R   0.987074 0.405738 0.406491 -0.098762
C103  C     C_R   0.585689 0.589639 0.042414 -0.090070
C104  C     C_R   0.972041 0.435474 0.172474 0.588555
C105  C     C_R   0.410222 0.413705 0.958295 -0.087619
C106  C     C_3   0.324125 0.125723 0.804001 -0.053966
C107  C     C_3   0.582948 0.775783 0.310404 -0.138389
C108  C     C_3   0.105434 0.829223 0.315047 -0.037480
C109  C     C_3   0.008852 0.168128 0.661106 -0.062099
C110  C     C_3   0.817503 0.323523 0.103971 -0.039358
C111  C     C_3   0.272309 0.596201 0.792251 -0.108063
C112  C     C_3   0.219267 0.187749 0.364033 -0.110763
C113  C     C_3   0.708879 0.217008 0.400071 -0.126262
C114  C     C_3   0.676319 0.181809 0.903375 -0.037648
Cu1   Cu    Cu3+1 0.995180 0.995180 0.424630 0.924213
Cu2   Cu    Cu3+1 0.004820 0.004820 0.575370 0.951575
Cu3   Cu    Cu3+1 0.995180 0.424630 0.995180 0.932830
Cu4   Cu    Cu3+1 0.004820 0.575370 0.004820 0.907605
Cu5   Cu    Cu3+1 0.424630 0.995180 0.995180 0.976696
Cu6   Cu    Cu3+1 0.575370 0.004820 0.004820 0.919712
H1    H     H_    0.731733 0.023667 0.732792 0.150895
H2    H     H_    0.512520 0.771990 0.337266 0.105182
H3    H     H_    0.613386 0.754774 0.366884 0.124620
H4    H     H_    0.620635 0.727834 0.269841 0.147668
H5    H     H_    0.033845 0.842086 0.319815 0.125140
H6    H     H_    0.150241 0.805014 0.255843 0.158457
H7    H     H_    0.116388 0.894233 0.301416 0.140272
H8    H     H_    0.940420 0.214470 0.671960 0.059649
H9    H     H_    0.048025 0.174112 0.698095 0.170331
H10   H     H_    0.001421 0.099245 0.690181 0.106014
H11   H     H_    0.881664 0.309766 0.117596 0.141185
H12   H     H_    0.275725 0.944712 0.275465 0.150602
H13   H     H_    0.832452 0.329449 0.031100 0.127053
H14   H     H_    0.791440 0.265080 0.148074 0.142778
H15   H     H_    0.274121 0.530874 0.789537 0.106300
H16   H     H_    0.340429 0.606600 0.763629 0.097846
H17   H     H_    0.230047 0.648659 0.748811 0.140998
H18   H     H_    0.221291 0.155534 0.316276 0.113864
H19   H     H_    0.284356 0.202280 0.346377 0.080038
H20   H     H_    0.168568 0.252614 0.353565 0.124850
H21   H     H_    0.683497 0.225687 0.468989 0.114369
H22   H     H_    0.652350 0.235747 0.370878 0.108142
H23   H     H_    0.033157 0.730907 0.730240 0.159631
H24   H     H_    0.750981 0.263518 0.356647 0.155254
H25   H     H_    0.670320 0.167276 0.976316 0.129632
H26   H     H_    0.735753 0.206547 0.859606 0.135076
H27   H     H_    0.688595 0.117583 0.891660 0.140494
H28   H     H_    0.460796 0.733263 0.205780 0.109942
H29   H     H_    0.387863 0.664504 0.229728 0.088988
H30   H     H_    0.342084 0.775794 0.239642 0.147885
H31   H     H_    0.972473 0.666717 0.158465 0.109058
H32   H     H_    0.861239 0.731524 0.205765 0.132045
H33   H     H_    0.878808 0.687186 0.119491 0.146107
H34   H     H_    0.958576 0.274739 0.275576 0.151533
H35   H     H_    0.236106 0.466139 0.701956 0.079394
H36   H     H_    0.254674 0.362902 0.677975 0.147799
H37   H     H_    0.258961 0.360370 0.784722 0.148147
H38   H     H_    0.438625 0.248126 0.487889 0.087243
H39   H     H_    0.438529 0.259490 0.592381 0.137649
H40   H     H_    0.348980 0.324842 0.543196 0.104523
H41   H     H_    0.708466 0.966678 0.194282 0.138881
H42   H     H_    0.739417 0.844669 0.231228 0.158764
H43   H     H_    0.804750 0.901710 0.236615 0.105630
H44   H     H_    0.177835 0.550604 0.299127 0.103729
H45   H     H_    0.729840 0.727923 0.034763 0.152755
H46   H     H_    0.223957 0.616966 0.325369 0.117413
H47   H     H_    0.214864 0.644237 0.214308 0.160961
H48   H     H_    0.229624 0.374158 0.486640 0.089037
H49   H     H_    0.202761 0.340152 0.412084 0.046252
H50   H     H_    0.286430 0.266065 0.466660 0.176655
H51   H     H_    0.532308 0.320260 0.167359 0.100599
H52   H     H_    0.607674 0.316671 0.224927 0.120688
H53   H     H_    0.615452 0.219761 0.199203 0.184344
H54   H     H_    0.134103 0.650236 0.020831 0.173343
H55   H     H_    0.140840 0.690373 0.101273 0.141376
H56   H     H_    0.270797 0.270272 0.966911 0.152766
H57   H     H_    0.184888 0.573126 0.112249 0.084480
H58   H     H_    0.290465 0.981740 0.697465 0.067539
H59   H     H_    0.189010 0.004422 0.666054 0.125008
H60   H     H_    0.189722 0.058953 0.739181 0.125719
H61   H     H_    0.827132 0.999917 0.307549 0.130240
H62   H     H_    0.805305 0.120524 0.252844 0.156004
H63   H     H_    0.803675 0.050155 0.199254 0.091219
H64   H     H_    0.779707 0.383338 0.807414 0.116119
H65   H     H_    0.678916 0.466351 0.836125 0.111971
H66   H     H_    0.683195 0.389894 0.780487 0.132351
H67   H     H_    0.324191 0.054804 0.822541 0.088058
H68   H     H_    0.423981 0.721558 0.845955 0.105797
H69   H     H_    0.455558 0.802412 0.867628 0.102850
H70   H     H_    0.351019 0.831238 0.843524 0.131759
H71   H     H_    0.842825 0.666444 0.467220 0.101605
H72   H     H_    0.783812 0.687844 0.385489 0.140836
H73   H     H_    0.816491 0.775002 0.391415 0.180311
H74   H     H_    0.931325 0.342401 0.733124 0.079717
H75   H     H_    0.966625 0.359055 0.815362 0.141042
H76   H     H_    0.984928 0.249253 0.811560 0.110959
H77   H     H_    0.274432 0.170150 0.765521 0.190751
H78   H     H_    0.301533 0.143931 0.867654 0.144137
O1    O     O_R   0.124540 0.978640 0.385460 -0.532991
O2    O     O_R   0.124540 0.385460 0.978640 -0.501168
O3    O     O_R   0.021360 0.875460 0.614540 -0.530732
O4    O     O_R   0.978640 0.124540 0.385460 -0.514039
O5    O     O_R   0.013780 0.867370 0.487190 -0.481612
O6    O     O_R   0.986220 0.132630 0.512810 -0.438823
O7    O     O_R   0.867370 0.487190 0.013780 -0.481516
O8    O     O_R   0.132630 0.512810 0.986220 -0.476841
O9    O     O_R   0.487190 0.013780 0.867370 -0.475320
O10   O     O_R   0.512810 0.986220 0.132630 -0.469976
O11   O     O_R   0.512810 0.132630 0.986220 -0.481985
O12   O     O_R   0.875460 0.021360 0.614540 -0.533867
O13   O     O_R   0.487190 0.867370 0.013780 -0.449434
O14   O     O_R   0.986220 0.512810 0.132630 -0.491499
O15   O     O_R   0.013780 0.487190 0.867370 -0.460771
O16   O     O_R   0.132630 0.986220 0.512810 -0.470872
O17   O     O_R   0.867370 0.013780 0.487190 -0.462299
O18   O     O_3   0.410042 0.139114 0.756196 -0.555745
O19   O     O_3   0.589060 0.861820 0.253789 -0.569719
O20   O     O_3   0.129724 0.770146 0.394969 -0.566282
O21   O     O_3   0.056275 0.180540 0.568846 -0.444010
O22   O     O_3   0.758590 0.401626 0.127726 -0.562035
O23   O     O_R   0.978640 0.385460 0.124540 -0.529377
O24   O     O_3   0.234028 0.603955 0.881014 -0.535579
O25   O     O_3   0.194375 0.135293 0.454929 -0.477703
O26   O     O_3   0.761808 0.129263 0.401248 -0.561574
O27   O     O_3   0.598732 0.241724 0.877129 -0.555013
O28   O     O_3   0.393264 0.768586 0.108979 -0.516159
O29   O     O_3   0.876508 0.594875 0.244563 -0.558585
O30   O     O_3   0.133026 0.403052 0.767997 -0.521475
O31   O     O_3   0.348736 0.192530 0.604625 -0.500815
O32   O     O_3   0.685370 0.904567 0.335011 -0.577645
O33   O     O_3   0.094317 0.676433 0.306802 -0.561111
O34   O     O_R   0.021360 0.614540 0.875460 -0.508716
O35   O     O_3   0.159342 0.278040 0.553544 -0.423490
O36   O     O_3   0.664468 0.315858 0.089963 -0.556385
O37   O     O_3   0.259779 0.657898 0.007610 -0.506563
O38   O     O_3   0.253523 0.105894 0.605562 -0.445191
O39   O     O_3   0.693645 0.071089 0.306040 -0.573934
O40   O     O_3   0.683856 0.334558 0.916354 -0.555571
O41   O     O_3   0.355748 0.747777 0.970741 -0.480432
O42   O     O_3   0.918479 0.684625 0.331127 -0.567119
O43   O     O_3   0.068059 0.319578 0.705883 -0.510931
O44   O     O_R   0.385460 0.124540 0.978640 -0.524843
O45   O     O_R   0.614540 0.875460 0.021360 -0.514105
O46   O     O_R   0.614540 0.021360 0.875460 -0.535375
O47   O     O_R   0.385460 0.978640 0.124540 -0.512375
O48   O     O_R   0.875460 0.614540 0.021360 -0.534444

loop_
_geom_bond_atom_site_label_1
_geom_bond_atom_site_label_2
_ccdc_geom_bond_type
C66   C99   A    
C73   C100  A    
C12   H58   S    
C60   C79   S    
C95   H23   S    
C110  H13   S    
C38   O7    A    
C31   O29   S    
C18   H74   S    
C19   O12   A    
C30   O28   S    
Cu3   O23   S    
C59   O38   S    
C29   O27   S    
C87   C92   A    
C28   C74   A    
C33   C47   A    
C72   C85   A    
C9    H50   S    
C22   C55   A    
C24   C70   A    
C23   C56   A    
C69   C102  A    
C17   H71   S    
C40   C46   A    
C66   C79   A    
C15   H65   S    
C15   O40   S    
C111  H17   S    
C60   O46   A    
C69   C83   A    
C84   C97   A    
C20   O18   S    
C20   C66   A    
Cu4   O8    S    
C114  H27   S    
C19   C87   S    
C63   O41   S    
C21   C54   A    
C81   C95   A    
C8    O33   S    
C97   H45   S    
C111  H16   S    
C83   C96   A    
C10   H52   S    
Cu1   Cu2   S    
C27   O4    A    
Cu1   O4    S    
C45   C62   A    
C26   C73   A    
C98   H56   S    
C113  H22   S    
C82   O44   A    
C104  O14   A    
C36   C102  A    
C51   C56   A    
Cu6   O46   S    
C4    O29   S    
C35   C42   A    
C112  H20   S    
Cu2   O12   S    
C85   C98   A    
C86   C94   A    
C6    H38   S    
C107  O19   S    
C9    H49   S    
C96   H34   S    
C108  H7    S    
C32   O30   S    
C16   O41   S    
Cu4   O34   S    
C24   C57   A    
C11   H54   S    
Cu1   O5    S    
C13   C86   S    
C93   O13   A    
C42   C65   A    
C34   C100  A    
C31   C77   A    
C11   H57   S    
C107  H3    S    
C108  H5    S    
C111  O24   S    
C110  O22   S    
C26   C59   A    
C52   C55   A    
C2    O34   A    
C76   C89   A    
C39   C45   A    
C82   O11   A    
C108  O20   S    
C28   C61   A    
C76   C103  A    
C4    H33   S    
C22   O20   S    
C1    O3    A    
C3    H28   S    
C44   C63   A    
C21   O19   S    
C30   C63   A    
C21   C67   A    
C78   C101  A    
C16   H68   S    
C112  H19   S    
C77   C102  A    
C34   C41   A    
C107  H4    S    
C71   C80   S    
Cu2   O6    S    
C43   C64   A    
C14   H63   S    
C17   H72   S    
C11   O37   S    
C4    H32   S    
C15   H66   S    
C23   O21   S    
C77   C90   A    
C10   O36   S    
C33   C40   A    
C3    H29   S    
C9    O35   S    
C27   O6    A    
Cu6   O10   S    
C112  H18   S    
C110  H11   S    
C68   C101  A    
C114  H26   S    
Cu2   O16   S    
C58   O37   S    
C93   O45   A    
C17   H73   S    
C37   C103  A    
C70   C103  A    
C10   H51   S    
C5    H35   S    
C7    H43   S    
C23   C69   A    
C94   H12   S    
C40   C61   A    
C7    O32   S    
C89   C97   A    
C33   C99   A    
Cu6   O45   S    
C13   O16   A    
C48   C58   A    
C113  O26   S    
C109  O21   S    
C8    H47   S    
C49   C85   S    
C30   C76   A    
C109  H8    S    
C65   O43   S    
C28   O26   S    
Cu4   O14   S    
C90   C104  S    
C15   H64   S    
C46   C54   A    
C41   C47   A    
Cu1   O17   S    
C25   O24   S    
C25   C72   A    
Cu2   O3    S    
C49   O8    A    
Cu3   O15   S    
C11   H55   S    
Cu3   O2    S    
C3    O28   S    
C22   C68   A    
C79   C92   A    
C14   H62   S    
C36   C51   A    
C16   H70   S    
C67   C100  A    
C2    O15   A    
C106  H77   S    
C34   C46   A    
C24   O22   S    
C18   O43   S    
C71   O10   A    
C12   H60   S    
C75   C105  A    
C5    H37   S    
C8    H44   S    
C74   C87   A    
C112  O25   S    
C56   O35   S    
C110  H14   S    
Cu5   O9    S    
C25   C58   A    
C68   C81   A    
C80   C94   A    
C1    O5    A    
C104  O23   A    
C35   C52   A    
C14   H61   S    
C70   C84   A    
C7    H41   S    
Cu6   O11   S    
C12   O38   S    
C4    H31   S    
C29   C62   A    
C3    H30   S    
C13   O1    A    
C38   C84   S    
C18   H75   S    
C50   C57   A    
Cu5   O13   S    
C31   C64   A    
C9    H48   S    
C67   C80   A    
C39   C105  A    
C114  H25   S    
C20   C53   A    
C35   C101  A    
C106  H67   S    
C14   O39   S    
C6    H40   S    
Cu5   Cu6   S    
Cu4   O48   S    
C60   O9    A    
C90   C96   A    
C74   C99   A    
C29   C75   A    
C78   C91   A    
C5    H36   S    
C106  O18   S    
C42   C51   A    
Cu3   O7    S    
C62   O40   S    
C5    O30   S    
C106  H78   S    
C61   O39   S    
C113  H24   S    
C37   C44   A    
C27   C83   S    
Cu5   O47   S    
C92   H1    S    
C114  O27   S    
C109  H9    S    
C37   C50   A    
C111  H15   S    
Cu1   O1    S    
C45   C50   A    
C10   H53   S    
C82   C88   S    
C47   C53   A    
C8    H46   S    
C113  H21   S    
C6    O31   S    
C19   O17   A    
C18   H76   S    
C89   C93   S    
C2    C91   S    
C43   C52   A    
Cu5   O44   S    
C73   C86   A    
C64   O42   S    
C71   O47   A    
C16   H69   S    
C32   C78   A    
C17   O42   S    
C75   C88   A    
C12   H59   S    
C72   C105  A    
C91   C95   A    
C109  H10   S    
C55   O33   S    
C26   O25   S    
C57   O36   S    
C7    H42   S    
C32   C65   A    
C36   C43   A    
C107  H2    S    
C108  H6    S    
Cu3   Cu4   S    
C6    H39   S    
C1    C81   S    
C54   O32   S    
C88   C98   A    
C44   C48   A    
C41   C59   A    
C53   O31   S    
C39   C48   A    
C49   O2    A    
C38   O48   A    
