data_str_m9_o5_o16_f0_sra.sym.37
_audit_creation_date              2012-12-11T17:14:04-0500
_audit_creation_method            fapswitch 2.2
_symmetry_space_group_name_H-M    P1
_symmetry_Int_Tables_number       1
_space_group_crystal_system       triclinic
_cell_length_a                    18.25283
_cell_length_b                    7.085953
_cell_length_c                    13.183777
_cell_angle_alpha                 89.998794
_cell_angle_beta                  71.136248
_cell_angle_gamma                 90.000425
_cell_volume                      1613.58786411

loop_
_atom_site_label
_atom_site_type_symbol
_atom_type_description
_atom_site_fract_x
_atom_site_fract_y
_atom_site_fract_z
_atom_type_partial_charge
O1    O     O_R   0.453880 0.506200 0.150010 -0.537168
O2    O     O_R   0.546120 0.006200 0.849990 -0.537158
O3    O     O_R   0.604080 0.177770 0.007280 -0.540615
O4    O     O_R   0.395920 0.677770 0.992720 -0.540616
C1    C     C_R   0.636050 0.344565 0.001610 0.732175
C2    C     C_R   0.363950 0.844565 0.998389 0.732173
O5    O     O_R   0.458010 0.176640 0.159130 -0.540871
O6    O     O_R   0.541990 0.676640 0.840870 -0.540870
O7    O     O_R   0.399010 0.004010 0.002930 -0.537295
O8    O     O_R   0.600990 0.504010 0.997070 -0.537298
C3    C     C_R   0.444412 0.345341 0.201668 0.685228
C4    C     C_R   0.555586 0.845347 0.798331 0.685229
O9    O     O_3   0.480810 0.338440 0.948570 -0.375418
O10   O     O_3   0.519190 0.838440 0.051430 -0.375423
V1    V     V_3+5 0.503560 0.064490 0.009540 1.433559
V2    V     V_3+5 0.496440 0.564490 0.990460 1.433556
C5    C     C_R   0.583039 0.796291 0.505240 -0.162353
C6    C     C_R   0.416930 0.295971 0.494745 -0.162346
H1    H     H_    0.485466 0.781417 0.649250 0.111525
H2    H     H_    0.514503 0.281062 0.350740 0.111538
H3    H     H_    0.664338 0.752711 0.300928 0.123087
H4    H     H_    0.335621 0.252303 0.699038 0.123080
H5    H     H_    0.548506 0.758170 0.455151 0.123399
H6    H     H_    0.451448 0.257696 0.544828 0.123398
C7    C     C_R   0.590576 0.852331 0.681803 -0.057192
C8    C     C_R   0.409420 0.352298 0.318195 -0.057227
C9    C     C_R   0.952944 0.929875 0.376764 -0.258434
C10   C     C_R   0.047049 0.430001 0.623247 -0.258435
C11   C     C_R   0.920259 0.991485 0.480963 -0.195662
C12   C     C_R   0.079739 0.491629 0.519052 -0.195608
C13   C     C_R   0.839722 0.982023 0.533217 0.437020
C14   C     C_R   0.160271 0.482087 0.466785 0.437019
C15   C     C_R   0.790704 0.904552 0.477752 -0.013432
C16   C     C_R   0.209287 0.404550 0.522240 -0.013460
C17   C     C_R   0.825258 0.856918 0.366980 0.015773
C18   C     C_R   0.174726 0.356863 0.633007 0.015783
C19   C     C_R   0.708605 0.876326 0.526105 0.090736
C20   C     C_R   0.291385 0.376283 0.473885 0.090726
C21   C     C_R   0.663315 0.824268 0.460452 0.134205
C22   C     C_R   0.336661 0.324052 0.539531 0.134234
C23   C     C_R   0.698478 0.793137 0.351162 -0.203746
C24   C     C_R   0.301491 0.292852 0.648812 -0.203754
C25   C     C_R   0.778104 0.804612 0.305655 -0.171301
C26   C     C_R   0.221870 0.304424 0.694322 -0.171317
C27   C     C_R   0.669912 0.885829 0.637881 -0.175309
C28   C     C_R   0.330093 0.385919 0.362115 -0.175434
C29   C     C_R   0.546952 0.809377 0.615459 -0.173124
C30   C     C_R   0.453025 0.309129 0.384532 -0.173071
C31   C     C_R   0.906420 0.869567 0.317902 -0.073305
C32   C     C_R   0.093568 0.369589 0.682095 -0.073329
H7    H     H_    0.699520 0.904952 0.694977 0.155429
H8    H     H_    0.300508 0.405242 0.305011 0.155523
H9    H     H_    0.014870 0.944365 0.338856 0.130615
H10   H     H_    0.985128 0.444547 0.661162 0.130608
H11   H     H_    0.958606 0.055453 0.518622 0.132217
H12   H     H_    0.041402 0.555678 0.481402 0.132219
H13   H     H_    0.802422 0.772059 0.221163 0.125580
H14   H     H_    0.197548 0.271824 0.778808 0.125611
C33   C     C_1   0.216325 0.858583 0.000283 -0.200814
C34   C     C_1   0.783675 0.358583 0.999715 -0.200792
C35   C     C_1   0.283544 0.852636 0.999265 -0.185998
C36   C     C_1   0.716456 0.352637 0.000734 -0.186019
O11   O     O_R   0.899030 0.205490 0.002790 -0.534018
O12   O     O_R   0.100970 0.705490 0.997210 -0.534006
O13   O     O_R   0.042000 0.536370 0.840840 -0.538295
O14   O     O_R   0.958000 0.036370 0.159160 -0.538297
C37   C     C_R   0.058023 0.368970 0.798691 0.702654
C38   C     C_R   0.941972 0.868966 0.201308 0.702671
O15   O     O_R   0.895930 0.535070 0.992690 -0.543348
O16   O     O_R   0.104070 0.035070 0.007310 -0.543339
O17   O     O_R   0.953870 0.707520 0.150040 -0.542221
O18   O     O_R   0.046130 0.207520 0.849960 -0.542232
C39   C     C_R   0.864044 0.366648 0.998955 0.726090
C40   C     C_R   0.135956 0.866648 0.001044 0.726105
O19   O     O_3   0.019200 0.374340 0.051340 -0.377779
O20   O     O_3   0.980800 0.874340 0.948660 -0.377800
V3    V     V_3+5 0.996440 0.648350 0.990470 1.386235
V4    V     V_3+5 0.003560 0.148350 0.009530 1.386231
O21   O     O_3   0.808036 0.069493 0.632137 -0.582607
C41   C     C_3   0.843515 0.011398 0.708368 0.050951
H15   H     H_    0.809929 0.075722 0.786424 0.147458
H16   H     H_    0.902780 0.070252 0.689511 0.117991
C42   C     C_3   0.842699 0.795518 0.724227 -0.424020
H17   H     H_    0.782269 0.743619 0.757402 0.193866
H18   H     H_    0.871155 0.721315 0.647356 0.198817
C43   C     C_3   0.885631 0.741962 0.800877 -0.678420
H19   H     H_    0.946844 0.789262 0.768949 0.231543
H20   H     H_    0.884618 0.586230 0.808891 0.202966
H21   H     H_    0.857057 0.806825 0.880607 0.233624
O22   O     O_3   0.191950 0.569526 0.367855 -0.582628
C44   C     C_3   0.156480 0.511324 0.291632 0.050852
H22   H     H_    0.190052 0.575651 0.213567 0.147474
H23   H     H_    0.097201 0.570085 0.310484 0.118011
C45   C     C_3   0.157338 0.295436 0.275803 -0.423857
H24   H     H_    0.217781 0.243602 0.242671 0.193877
H25   H     H_    0.128874 0.221258 0.352682 0.198810
C46   C     C_3   0.114446 0.241761 0.199122 -0.678547
H26   H     H_    0.053222 0.288984 0.231013 0.231573
H27   H     H_    0.115493 0.086025 0.191123 0.202947
H28   H     H_    0.143025 0.306619 0.119390 0.233614

loop_
_geom_bond_atom_site_label_1
_geom_bond_atom_site_label_2
_ccdc_geom_bond_type
O14   C38   A    
C31   C38   S    
C9    C11   A    
O12   V3    S    
O15   V3    S    
O1    C3    A    
O2    C4    A    
C2    O7    A    
C46   H26   S    
C18   C32   A    
C21   C23   A    
O5    C3    A    
C5    H5    S    
C6    H6    S    
C2    C35   S    
C20   C22   A    
O20   V4    S    
C43   H20   S    
O16   V4    S    
C27   H7    S    
C28   H8    S    
C34   C39   S    
C34   C36   T    
C37   O18   A    
C5    C21   A    
C6    C22   A    
O18   V4    S    
C10   C32   A    
C14   O22   S    
C26   H14   S    
O13   C37   A    
C17   C31   A    
C13   C15   A    
O15   C39   A    
C17   C25   A    
C32   C37   S    
C7    C29   A    
C16   C18   A    
C8    C30   A    
C22   C24   A    
O6    V2    S    
C23   C25   A    
C24   C26   A    
C41   C42   S    
C46   H27   S    
O14   V4    S    
C33   C35   T    
O13   V3    S    
O20   V3    S    
C41   H16   S    
C44   H22   S    
C10   H10   S    
C43   H19   S    
C11   H11   S    
C45   C46   S    
C12   H12   S    
C15   C19   A    
C14   C16   A    
O4    V2    S    
O16   C40   A    
C44   H23   S    
C42   H17   S    
O6    C4    A    
C25   H13   S    
O1    V2    S    
C45   H25   S    
O2    V1    S    
O19   V3    S    
C33   C40   S    
H2    C30   S    
H3    C23   S    
O4    C2    A    
C42   H18   S    
C18   C26   A    
C19   C27   A    
C7    C27   A    
O17   V3    S    
C46   H28   S    
O3    V1    S    
C16   C20   A    
C5    C29   A    
C41   H15   S    
O3    C1    A    
C43   H21   S    
C6    C30   A    
C9    H9    S    
C13   O21   S    
O11   C39   A    
C3    C8    S    
C4    C7    S    
C10   C12   A    
O7    V1    S    
C1    O8    A    
C11   C13   A    
O8    V2    S    
C44   C45   S    
C12   C14   A    
O22   C44   S    
H4    C24   S    
C38   O17   A    
O5    V1    S    
C15   C17   A    
C1    C36   S    
H1    C29   S    
C45   H24   S    
O19   V4    S    
C20   C28   A    
C8    C28   A    
O21   C41   S    
C42   C43   S    
C19   C21   A    
O9    V2    S    
O12   C40   A    
O10   V1    S    
C9    C31   A    
O11   V4    S    
