data_str_m9_o4_o16_f0_sra.sym.38
_audit_creation_date              2012-12-11T17:00:19-0500
_audit_creation_method            fapswitch 2.2
_symmetry_space_group_name_H-M    P1
_symmetry_Int_Tables_number       1
_space_group_crystal_system       triclinic
_cell_length_a                    6.960367
_cell_length_b                    13.501827
_cell_length_c                    20.291015
_cell_angle_alpha                 103.07437
_cell_angle_beta                  90.12149
_cell_angle_gamma                 90.474741
_cell_volume                      1857.39081306

loop_
_atom_site_label
_atom_site_type_symbol
_atom_type_description
_atom_site_fract_x
_atom_site_fract_y
_atom_site_fract_z
_atom_type_partial_charge
O1    O     O_R   0.506770 0.599700 0.449550 -0.538000
O2    O     O_R   0.179980 0.595740 0.587960 -0.545498
O3    O     O_R   0.004580 0.400300 0.550450 -0.537764
C1    C     C_R   0.348425 0.617719 0.615072 0.693112
O4    O     O_R   0.177380 0.611700 0.452380 -0.540074
O5    O     O_R   0.001970 0.416370 0.413900 -0.540742
C2    C     C_R   0.346294 0.638681 0.435843 0.696615
O6    O     O_R   0.509390 0.583630 0.586100 -0.537607
O7    O     O_3   0.337530 0.435890 0.487530 -0.370821
V1    V     V_3+5 0.064660 0.511890 0.502310 1.408618
O8    O     O_R   0.671950 0.404260 0.412040 -0.541453
C3    C     C_R   0.840258 0.382774 0.384767 0.693218
O9    O     O_R   0.674540 0.388300 0.547620 -0.540148
C4    C     C_R   0.842940 0.361641 0.564359 0.696596
V2    V     V_3+5 0.564030 0.488110 0.497690 1.412143
O10   O     O_3   0.841030 0.564110 0.512470 -0.371163
C5    C     C_R   0.856402 0.108144 0.610765 -0.159071
H1    H     H_    0.849958 0.157889 0.517578 0.103061
H2    H     H_    0.864131 0.982188 0.693726 0.118056
H3    H     H_    0.858064 0.028538 0.584981 0.112217
C6    C     C_R   0.850164 0.284336 0.604290 -0.031544
C7    C     C_R   0.860264 0.318631 0.930747 -0.187177
C8    C     C_R   0.855391 0.395294 0.895312 -0.111576
C9    C     C_R   0.853278 0.371531 0.824835 -0.161975
C10   C     C_R   0.856311 0.269106 0.787655 0.074349
C11   C     C_R   0.860481 0.190794 0.824467 0.074768
C12   C     C_R   0.855503 0.241762 0.715338 0.070843
C13   C     C_R   0.858058 0.137130 0.681736 0.144070
C14   C     C_R   0.862002 0.062040 0.719018 -0.208948
C15   C     C_R   0.863293 0.088262 0.789179 -0.197634
C16   C     C_R   0.852140 0.314476 0.674916 -0.213636
C17   C     C_R   0.851996 0.181397 0.572292 -0.177887
C18   C     C_R   0.862439 0.216711 0.896127 -0.080569
H4    H     H_    0.850183 0.395101 0.696410 0.090296
H5    H     H_    0.862340 0.338871 0.985572 0.101241
H6    H     H_    0.849350 0.435310 0.801223 0.104665
H7    H     H_    0.853448 0.474028 0.922721 0.111054
H8    H     H_    0.866454 0.027074 0.815606 0.109762
C19   C     C_R   0.716042 0.255812 0.202294 0.090211
C20   C     C_R   0.867866 0.188164 0.182705 -0.108200
C21   C     C_R   0.020474 0.192386 0.229083 -0.167305
H9    H     H_    0.141213 0.142008 0.216194 0.127246
C22   C     C_R   0.012158 0.256241 0.294447 -0.181392
H10   H     H_    0.127418 0.253775 0.329827 0.125893
C23   C     C_R   0.850502 0.317310 0.315497 -0.107965
C24   C     C_R   0.707418 0.318575 0.267015 0.103298
C25   C     C_3   0.495844 0.303655 0.271075 -0.409977
C26   C     C_3   0.505228 0.235717 0.200358 -0.397552
H11   H     H_    0.415555 0.375147 0.273199 0.165887
H12   H     H_    0.457308 0.261785 0.310502 0.169506
H13   H     H_    0.431171 0.268183 0.161550 0.169019
H14   H     H_    0.471360 0.154644 0.198688 0.167459
C27   C     C_R   0.499445 0.678465 0.730156 0.101326
C28   C     C_R   0.351876 0.683732 0.684227 -0.110059
C29   C     C_R   0.196502 0.748485 0.708067 -0.175998
H15   H     H_    0.078016 0.754380 0.674693 0.128358
C30   C     C_R   0.197884 0.811236 0.773783 -0.171948
H16   H     H_    0.081548 0.863941 0.788878 0.126075
C31   C     C_R   0.354893 0.811308 0.817572 -0.110304
C32   C     C_R   0.501427 0.741102 0.795007 0.097260
C33   C     C_3   0.713010 0.758032 0.792873 -0.398302
C34   C     C_3   0.710639 0.689620 0.722267 -0.405742
H17   H     H_    0.791543 0.724870 0.830399 0.169604
H18   H     H_    0.749603 0.838480 0.793465 0.166544
H19   H     H_    0.787372 0.616782 0.718996 0.165192
H20   H     H_    0.745954 0.730270 0.681887 0.168163
C35   C     C_R   0.354627 0.892181 0.389053 -0.159895
H21   H     H_    0.350436 0.842738 0.482382 0.103114
H22   H     H_    0.355032 0.017819 0.305796 0.117642
H23   H     H_    0.353683 0.971849 0.414714 0.112671
C36   C     C_R   0.354717 0.716047 0.395867 -0.033497
C37   C     C_R   0.358750 0.680432 0.068999 -0.178361
C38   C     C_R   0.356949 0.602425 0.104459 0.148676
C39   C     C_R   0.355549 0.628307 0.175334 -0.209288
C40   C     C_R   0.355934 0.730757 0.212230 0.058078
C41   C     C_R   0.356289 0.808741 0.175292 0.068598
C42   C     C_R   0.356370 0.758296 0.284616 0.082535
C43   C     C_R   0.355757 0.862982 0.318078 0.143268
C44   C     C_R   0.355591 0.937897 0.280635 -0.209491
C45   C     C_R   0.356056 0.911400 0.210467 -0.186836
C46   C     C_R   0.356853 0.685763 0.325269 -0.212675
C47   C     C_R   0.353252 0.819064 0.427687 -0.178270
C48   C     C_R   0.358106 0.782587 0.103686 -0.109330
H24   H     H_    0.357055 0.605064 0.304126 0.091412
H25   H     H_    0.361225 0.663015 0.014277 0.093504
H26   H     H_    0.354456 0.565693 0.200081 0.105909
H27   H     H_    0.355964 0.972502 0.183956 0.108020
O11   O     O_R   0.203450 0.916320 0.913910 -0.540839
O12   O     O_R   0.535520 0.888300 0.047620 -0.538639
O13   O     O_R   0.710860 0.083650 0.086100 -0.538028
C49   C     C_R   0.366584 0.860955 0.063945 0.697666
O14   O     O_R   0.532860 0.904250 0.912040 -0.541945
O15   O     O_R   0.708190 0.099710 0.949550 -0.537834
C50   C     C_R   0.364202 0.882595 0.884818 0.698141
O16   O     O_R   0.206120 0.900260 0.050460 -0.537353
O17   O     O_3   0.375280 0.064080 0.012470 -0.371085
V3    V     V_3+5 0.648180 0.988110 0.997690 1.408070
O18   O     O_R   0.038220 0.111740 0.952370 -0.541723
C51   C     C_R   0.869773 0.138705 0.935896 0.683354
O19   O     O_R   0.040880 0.095790 0.087940 -0.545231
C52   C     C_R   0.872868 0.117281 0.115218 0.696029
V4    V     V_3+5 0.148800 0.011950 0.002300 1.399533
O20   O     O_3   0.871820 0.935920 0.987530 -0.369089
C53   C     C_3   0.357444 0.489953 0.070293 -0.372368
C54   C     C_3   0.360897 0.464180 0.992611 -0.336699
C55   C     C_3   0.362146 0.349154 0.964822 -0.690145
H28   H     H_    0.490508 0.315292 0.983287 0.222095
H29   H     H_    0.232226 0.313623 0.981493 0.224664
H30   H     H_    0.364632 0.331915 0.908660 0.224962
H31   H     H_    0.231572 0.495711 0.972784 0.196604
H32   H     H_    0.491935 0.497398 0.974598 0.195726
H33   H     H_    0.485303 0.455197 0.088784 0.170597
H34   H     H_    0.227304 0.454145 0.087026 0.170060

loop_
_geom_bond_atom_site_label_1
_geom_bond_atom_site_label_2
_ccdc_geom_bond_type
C54   H31   S    
O17   V4    S    
C21   H9    S    
C1    O6    A    
C37   H25   S    
C25   H11   S    
C42   C43   A    
C7    H5    S    
C6    C16   A    
C9    H6    S    
C4    C6    S    
C13   C14   A    
C45   H27   S    
O5    C3    A    
C30   C31   A    
C55   H28   S    
V2    O10   S    
C5    H3    S    
C15   H8    S    
C38   C39   A    
C33   H17   S    
C20   C52   S    
C28   C29   A    
O8    V2    S    
C26   H13   S    
C8    C9    A    
O1    V2    S    
C31   C50   S    
O12   C49   A    
O7    V1    S    
O15   C51   A    
O13   V3    S    
O16   V4    S    
C36   C47   A    
C54   H32   S    
C31   C32   A    
O9    C4    A    
C21   C22   A    
V4    O20   S    
C35   C43   A    
C41   C48   A    
O19   V4    S    
C53   C54   S    
C27   C32   A    
O14   V3    S    
C25   H12   S    
C38   C53   S    
C6    C17   A    
O11   C50   A    
C39   C40   A    
C34   H20   S    
C12   C16   A    
C9    C10   A    
C19   C20   A    
C53   H33   S    
C43   C44   A    
C3    C23   S    
C10   C11   A    
O18   V4    S    
C44   C45   A    
O12   V3    S    
C32   C33   S    
C18   C51   S    
C33   H18   S    
O2    C1    A    
C40   C41   A    
O13   C52   A    
C14   C15   A    
C8    H7    S    
C22   C23   A    
C27   C34   S    
C11   C18   A    
C25   C26   S    
C42   C46   A    
O17   V3    S    
C29   H15   S    
O14   C50   A    
C16   H4    S    
C39   H26   S    
C40   C42   A    
V3    O20   S    
O3    C4    A    
C19   C24   A    
C20   C21   A    
C11   C15   A    
O6    V2    S    
O9    V2    S    
C22   H10   S    
H22   C44   S    
H1    C17   S    
O2    V1    S    
O15   V3    S    
C46   H24   S    
O4    C2    A    
C7    C18   A    
C24   C25   S    
C34   H19   S    
C1    C28   S    
O1    C2    A    
C5    C13   A    
C41   C45   A    
C37   C38   A    
O5    V1    S    
O11   V4    S    
O8    C3    A    
C27   C28   A    
C10   C12   A    
C48   C49   S    
C54   C55   S    
C35   H23   S    
H21   C47   S    
C29   C30   A    
O7    V2    S    
O4    V1    S    
O3    V1    S    
V1    O10   S    
C2    C36   S    
C30   H16   S    
C55   H29   S    
O19   C52   A    
C33   C34   S    
C37   C48   A    
C49   O16   A    
C53   H34   S    
C23   C24   A    
C26   H14   S    
C35   C47   A    
O18   C51   A    
C12   C13   A    
C5    C17   A    
C7    C8    A    
C19   C26   S    
C36   C46   A    
C55   H30   S    
H2    C14   S    
