data_str_m3_o10_o18_f0_pcu.sym.77
_audit_creation_date              2012-12-10T16:52:40-0500
_audit_creation_method            fapswitch 2.2
_symmetry_space_group_name_H-M    P1
_symmetry_Int_Tables_number       1
_space_group_crystal_system       triclinic
_cell_length_a                    7.839474
_cell_length_b                    8.567152
_cell_length_c                    13.747577
_cell_angle_alpha                 93.446568
_cell_angle_beta                  92.594723
_cell_angle_gamma                 94.334152
_cell_volume                      917.856956018

loop_
_atom_site_label
_atom_site_type_symbol
_atom_type_description
_atom_site_fract_x
_atom_site_fract_y
_atom_site_fract_z
_atom_type_partial_charge
C1    C     C_R   0.045270 0.794735 0.497563 0.957844
C2    C     C_R   0.936593 0.482326 0.317817 0.864405
C3    C     C_R   0.096204 0.544621 0.787303 -0.185792
C4    C     C_R   0.903796 0.455379 0.212697 -0.185791
C5    C     C_R   0.059162 0.673387 0.945628 -0.189974
C6    C     C_R   0.940838 0.326613 0.054372 -0.189974
C7    C     C_R   0.005601 0.646426 0.847589 0.442160
C8    C     C_R   0.994398 0.353574 0.152411 0.442160
C9    C     C_R   0.236994 0.476028 0.825877 -0.313794
C10   C     C_R   0.763005 0.523972 0.174123 -0.313794
C11   C     C_R   0.306916 0.521862 0.919006 0.095421
C12   C     C_R   0.954730 0.205265 0.502437 0.957843
C13   C     C_R   0.693084 0.478138 0.080994 0.095421
C14   C     C_R   0.211115 0.615837 0.980945 0.063713
C15   C     C_R   0.788885 0.384163 0.019055 0.063713
C16   C     C_R   0.470039 0.478404 0.951277 0.091898
C17   C     C_R   0.529961 0.521596 0.048723 0.091898
C18   C     C_R   0.422638 0.602500 0.111508 -0.165005
C19   C     C_R   0.577362 0.397500 0.888491 -0.165005
C20   C     C_R   0.268182 0.651894 0.077255 -0.179574
C21   C     C_R   0.731818 0.348106 0.922745 -0.179574
C22   C     C_2   0.068760 0.958537 0.496165 -0.380989
C23   C     C_2   0.931240 0.041463 0.503835 -0.380989
C24   C     C_R   0.063407 0.517674 0.682183 0.864406
H1    H     H_    0.192457 0.717926 0.126731 0.149445
H2    H     H_    0.801780 0.989713 0.511140 0.181462
H3    H     H_    0.487279 0.374077 0.427449 0.195810
H4    H     H_    0.512721 0.625923 0.572551 0.195810
H5    H     H_    0.113472 0.250689 0.253856 0.338700
H6    H     H_    0.886527 0.749311 0.746144 0.338700
H7    H     H_    0.807543 0.282074 0.873269 0.149444
H8    H     H_    0.707404 0.610760 0.220081 0.169895
H9    H     H_    0.292595 0.389240 0.779919 0.169895
H10   H     H_    0.987295 0.747256 0.992806 0.165991
H11   H     H_    0.012704 0.252744 0.007194 0.165991
H12   H     H_    0.452797 0.629131 0.188153 0.148591
H13   H     H_    0.547203 0.370869 0.811847 0.148591
H14   H     H_    0.198220 0.010287 0.488860 0.181462
N1    N     N_2   0.440860 0.456490 0.474790 -0.170652
N2    N     N_2   0.559140 0.543510 0.525210 -0.170652
O1    O     O_R   0.891570 0.738930 0.506190 -0.615530
O2    O     O_3   0.868903 0.724190 0.814388 -0.763790
O3    O     O_R   0.108430 0.261070 0.493810 -0.615529
O4    O     O_R   0.174650 0.711050 0.490030 -0.622955
O5    O     O_R   0.825350 0.288950 0.509970 -0.622955
O6    O     O_R   0.909850 0.521900 0.644940 -0.607730
O7    O     O_R   0.090150 0.478100 0.355060 -0.607730
O8    O     O_R   0.192930 0.494020 0.628780 -0.612581
O9    O     O_R   0.807070 0.505980 0.371220 -0.612581
O10   O     O_3   0.131097 0.275810 0.185612 -0.763790
Zn1   Zn    Zn3+2 0.810990 0.518620 0.510790 0.943030
Zn2   Zn    Zn3+2 0.189010 0.481380 0.489210 0.943030

loop_
_geom_bond_atom_site_label_1
_geom_bond_atom_site_label_2
_ccdc_geom_bond_type
C2    C4    S    
O7    Zn2   S    
C3    C9    A    
C2    O9    A    
C8    O10   S    
C2    O7    A    
N2    Zn1   S    
C9    C11   A    
C11   C16   A    
C1    O4    A    
C18   C20   A    
C13   C17   A    
C4    C8    A    
C24   O6    A    
C5    H10   S    
O4    Zn2   S    
N1    Zn2   S    
C5    C14   A    
C1    C22   S    
C9    H9    S    
C21   H7    S    
C12   C23   S    
C3    C24   S    
C16   C17   A    
C16   C19   A    
C1    O1    A    
C19   C21   A    
C17   C18   A    
C12   O3    A    
C3    C7    A    
H5    O10   S    
C13   C15   A    
C11   C14   A    
O3    Zn2   S    
C7    O2    S    
C20   H1    S    
H4    N2    S    
C4    C10   A    
C22   H14   S    
C10   H8    S    
C15   C21   A    
C6    H11   S    
C14   C20   A    
C23   H2    S    
N1    N2    D    
C5    C7    A    
O5    Zn1   S    
C22   C23   D    
H6    O2    S    
C6    C8    A    
C19   H13   S    
C6    C15   A    
O8    Zn2   S    
C18   H12   S    
O6    Zn1   S    
O1    Zn1   S    
H3    N1    S    
C12   O5    A    
O9    Zn1   S    
C10   C13   A    
C24   O8    A    
