data_str_m9_o4_o18_f0_sra.sym.98
_audit_creation_date              2012-12-11T17:02:23-0500
_audit_creation_method            fapswitch 2.2
_symmetry_space_group_name_H-M    P1
_symmetry_Int_Tables_number       1
_space_group_crystal_system       triclinic
_cell_length_a                    21.649775
_cell_length_b                    7.093298
_cell_length_c                    14.879228
_cell_angle_alpha                 90.000334
_cell_angle_beta                  106.115674
_cell_angle_gamma                 90.0009
_cell_volume                      2195.185643

loop_
_atom_site_label
_atom_site_type_symbol
_atom_type_description
_atom_site_fract_x
_atom_site_fract_y
_atom_site_fract_z
_atom_type_partial_charge
O1    O     O_R   0.585850 0.505770 0.002130 -0.530416
O2    O     O_R   0.414150 0.005770 0.997870 -0.530449
O3    O     O_R   0.467530 0.173560 0.861970 -0.545893
O4    O     O_R   0.532470 0.673560 0.138030 -0.545923
C1    C     C_R   0.455572 0.344391 0.825265 0.767792
C2    C     C_R   0.544430 0.844393 0.174734 0.767827
O5    O     O_R   0.588690 0.175900 0.993250 -0.540708
O6    O     O_R   0.411310 0.675900 0.006750 -0.540784
O7    O     O_R   0.536170 0.007950 0.130090 -0.523143
O8    O     O_R   0.463830 0.507950 0.869910 -0.523145
C3    C     C_R   0.614653 0.344695 0.995657 0.699864
C4    C     C_R   0.385346 0.844693 0.004338 0.699845
O9    O     O_3   0.482630 0.339970 0.044740 -0.358213
O10   O     O_3   0.517370 0.839970 0.955260 -0.358060
V1    V     V_3+5 0.503220 0.064200 0.991700 1.576892
V2    V     V_3+5 0.496780 0.564200 0.008300 1.576756
C5    C     C_R   0.293105 0.009209 0.046056 0.072341
C6    C     C_R   0.706898 0.509218 0.953942 0.071968
C7    C     C_R   0.317934 0.852100 0.010509 -0.092652
C8    C     C_R   0.682064 0.352103 0.989481 -0.092568
C9    C     C_R   0.275720 0.699373 0.980209 -0.173037
C10   C     C_R   0.724272 0.199363 0.019767 -0.172922
H1    H     H_    0.292434 0.573336 0.954415 0.197702
H2    H     H_    0.707555 0.073323 0.045554 0.197687
C11   C     C_R   0.210306 0.711641 0.977577 -0.168554
C12   C     C_R   0.789688 0.211625 0.022403 -0.168614
H3    H     H_    0.178790 0.595166 0.950792 0.194720
H4    H     H_    0.821200 0.095141 0.049181 0.194698
C13   C     C_R   0.184372 0.878007 0.002919 -0.037503
C14   C     C_R   0.815628 0.377999 0.997078 -0.037464
C15   C     C_R   0.227507 0.024299 0.038385 0.029096
C16   C     C_R   0.772498 0.524300 0.961622 0.029075
C17   C     C_3   0.225969 0.225477 0.008892 0.151207
C18   C     C_3   0.774045 0.725472 0.991126 0.151224
C19   C     C_3   0.298770 0.212977 0.025832 -0.236993
C20   C     C_3   0.701242 0.712987 0.974174 -0.236903
H5    H     H_    0.209140 0.321470 0.056287 0.065487
H6    H     H_    0.790886 0.821457 0.943740 0.065453
H7    H     H_    0.316023 0.237974 0.963343 0.213893
H8    H     H_    0.683983 0.737979 0.036657 0.213956
C21   C     C_R   0.926958 0.885096 0.724395 -0.042860
C22   C     C_R   0.073044 0.385104 0.275604 -0.042862
C23   C     C_R   0.575044 0.851744 0.276110 -0.056933
C24   C     C_R   0.424962 0.351737 0.723888 -0.056934
C25   C     C_R   0.939449 0.854930 0.569180 -0.159825
C26   C     C_R   0.060556 0.355011 0.430824 -0.159831
C27   C     C_R   0.966613 0.867922 0.665315 -0.157517
C28   C     C_R   0.033390 0.367991 0.334688 -0.157525
C29   C     C_R   0.860237 0.897049 0.687331 -0.125158
C30   C     C_R   0.139767 0.397013 0.312663 -0.125168
C31   C     C_R   0.831769 0.901795 0.589679 0.109867
C32   C     C_R   0.168238 0.401780 0.410314 0.109855
C33   C     C_R   0.872511 0.866441 0.531290 0.112378
C34   C     C_R   0.127495 0.366480 0.468708 0.112388
C35   C     C_R   0.763877 0.923845 0.548417 0.070517
C36   C     C_R   0.236132 0.423807 0.451572 0.070489
C37   C     C_R   0.737864 0.882989 0.451310 0.018652
C38   C     C_R   0.262144 0.382975 0.548681 0.018662
C39   C     C_R   0.779943 0.825886 0.398960 -0.175751
C40   C     C_R   0.220063 0.325904 0.601035 -0.175748
C41   C     C_R   0.846001 0.829384 0.436688 -0.173454
C42   C     C_R   0.154004 0.329433 0.563311 -0.173472
C43   C     C_R   0.720091 0.980317 0.599373 -0.041277
C44   C     C_R   0.279921 0.480236 0.400610 -0.041246
C45   C     C_R   0.654757 0.937032 0.563793 -0.200615
C46   C     C_R   0.345254 0.436956 0.436197 -0.200556
C47   C     C_R   0.629343 0.878271 0.470718 0.113035
C48   C     C_R   0.370667 0.378231 0.529277 0.113004
C49   C     C_R   0.669826 0.886415 0.410484 -0.020532
C50   C     C_R   0.330182 0.386395 0.589509 -0.020520
C51   C     C_R   0.563490 0.829095 0.433862 0.031054
C52   C     C_R   0.436520 0.329072 0.566139 0.031043
C53   C     C_R   0.537990 0.810651 0.336908 -0.229547
C54   C     C_R   0.462018 0.310640 0.663094 -0.229561
C55   C     C_R   0.640657 0.898856 0.312390 -0.068270
C56   C     C_R   0.359351 0.398850 0.687604 -0.068255
H9    H     H_    0.876422 0.790797 0.392716 0.155907
H10   H     H_    0.123582 0.290878 0.607287 0.155906
H11   H     H_    0.487972 0.771086 0.308078 0.119677
H12   H     H_    0.512035 0.271083 0.691928 0.119668
H13   H     H_    0.622834 0.969878 0.606159 0.160937
H14   H     H_    0.377177 0.469777 0.393826 0.160964
H15   H     H_    0.970671 0.831765 0.524505 0.126933
H16   H     H_    0.029333 0.331890 0.475503 0.126933
H17   H     H_    0.018327 0.858773 0.693852 0.129140
H18   H     H_    0.981674 0.358880 0.306156 0.129146
H19   H     H_    0.831522 0.895331 0.736145 0.101564
H20   H     H_    0.168480 0.395245 0.263845 0.101572
H21   H     H_    0.762522 0.770912 0.328813 0.179996
H22   H     H_    0.237481 0.270935 0.671183 0.180011
O11   O     O_R   0.036080 0.231270 0.130120 -0.544137
O12   O     O_R   0.963920 0.731270 0.869880 -0.544137
O13   O     O_R   0.911300 0.558970 0.006750 -0.522955
O14   O     O_R   0.088700 0.058970 0.993250 -0.522950
C57   C     C_R   0.884861 0.390147 0.001461 0.716015
C58   C     C_R   0.115139 0.890150 0.998540 0.716024
O15   O     O_R   0.032450 0.561140 0.138040 -0.530296
O16   O     O_R   0.967550 0.061140 0.861960 -0.530296
O17   O     O_R   0.085870 0.728910 0.002130 -0.550242
O18   O     O_R   0.914130 0.228910 0.997870 -0.550247
C59   C     C_R   0.045120 0.392640 0.174645 0.693029
C60   C     C_R   0.954880 0.892639 0.825355 0.693014
O19   O     O_3   0.017320 0.394650 0.955270 -0.368491
O20   O     O_3   0.982680 0.894650 0.044730 -0.368493
V3    V     V_3+5 0.996780 0.670490 0.008300 1.516205
V4    V     V_3+5 0.003220 0.170490 0.991700 1.516207
C61   C     C_2   0.737393 0.106404 0.682181 0.337110
H23   H     H_    0.708957 0.105145 0.731841 0.044921
O21   O     O_2   0.780907 0.221054 0.692629 -0.524925
C62   C     C_2   0.262623 0.606267 0.317781 0.337149
H24   H     H_    0.291049 0.604923 0.268109 0.044927
O22   O     O_2   0.219122 0.720960 0.307327 -0.524924
C63   C     C_2   0.519761 0.787356 0.492684 0.355338
H25   H     H_    0.468081 0.795908 0.462260 0.076806
O23   O     O_2   0.540202 0.733663 0.573457 -0.531527
C64   C     C_2   0.480256 0.287358 0.507324 0.355332
H26   H     H_    0.531936 0.295982 0.537747 0.076789
O24   O     O_2   0.459821 0.233619 0.426558 -0.531476
Cl1   Cl    Cl    0.185181 0.249722 0.886657 -0.672694
Cl2   Cl    Cl    0.814827 0.749700 0.113364 -0.672684
C65   C     C_2   0.336263 0.318076 0.111629 0.372620
H27   H     H_    0.316940 0.445862 0.133313 0.027710
O25   O     O_2   0.389492 0.263721 0.156028 -0.500594
C66   C     C_2   0.663761 0.818086 0.888374 0.372629
H28   H     H_    0.683172 0.945559 0.866535 0.027630
O26   O     O_2   0.610447 0.764078 0.844139 -0.500543
C67   C     C_2   0.675875 0.987560 0.250657 0.331657
H29   H     H_    0.710598 0.098452 0.277810 0.083690
O27   O     O_2   0.668597 0.932738 0.170834 -0.548966
C68   C     C_2   0.324133 0.487564 0.749335 0.331647
H30   H     H_    0.289425 0.598492 0.722187 0.083677
O28   O     O_2   0.331394 0.432703 0.829150 -0.548968

loop_
_geom_bond_atom_site_label_1
_geom_bond_atom_site_label_2
_ccdc_geom_bond_type
C23   C53   A    
C46   C48   A    
C43   C45   A    
C29   H19   S    
C19   H7    S    
O1    C3    A    
O2    C4    A    
C2    O7    A    
O20   V4    S    
C21   C60   S    
O5    C3    A    
C27   H17   S    
C10   H2    S    
C20   C66   S    
C17   C19   S    
C37   C39   A    
C38   C40   A    
C58   O17   A    
C64   H26   S    
C51   C63   S    
C40   C42   A    
C39   H21   S    
C24   C56   A    
C62   H24   S    
O13   V3    S    
C33   C41   A    
C41   H9    S    
C45   C47   A    
C35   C43   A    
C30   C32   A    
C61   H23   S    
C36   C44   A    
C36   C38   A    
C6    C8    A    
O12   C60   A    
O15   V3    S    
O5    V1    S    
C25   C33   A    
O6    V2    S    
C54   H12   S    
C18   Cl2   S    
C61   O21   D    
O11   V4    S    
C25   H15   S    
C56   C68   S    
O11   C59   A    
C21   C29   A    
O20   V3    S    
C32   C34   A    
C25   C27   A    
C11   C13   A    
O17   V3    S    
C26   C28   A    
C3    C8    S    
C39   C41   A    
C19   C65   S    
C52   C54   A    
C51   C53   A    
C57   O18   A    
C38   C50   A    
C34   C42   A    
C31   C35   A    
C29   C31   A    
O16   C60   A    
C17   H5    S    
C48   C52   A    
C31   C33   A    
C44   C46   A    
O4    V2    S    
C68   O28   D    
C67   O27   D    
C14   C57   S    
C46   H14   S    
C44   C62   S    
O10   V1    S    
C20   H8    S    
O6    C4    A    
C26   C34   A    
C15   C17   S    
C21   C27   A    
O19   V3    S    
O1    V2    S    
C22   C28   A    
O14   C58   A    
O2    V1    S    
C65   H27   S    
C22   C30   A    
C26   H16   S    
O4    C2    A    
C1    C24   S    
C8    C10   A    
C12   C14   A    
C2    C23   S    
C35   C37   A    
C50   C56   A    
C5    C15   A    
C28   H18   S    
C6    C16   A    
C43   C61   S    
C67   H29   S    
C22   C59   S    
O3    C1    A    
O3    V1    S    
C23   C55   A    
C66   O26   D    
C63   H25   S    
C9    C11   A    
O14   V4    S    
C7    C9    A    
C18   H6    S    
O18   V4    S    
C42   H10   S    
C24   C54   A    
C53   H11   S    
C13   C58   S    
C17   Cl1   S    
C40   H22   S    
C11   H3    S    
C52   C64   S    
C12   H4    S    
O16   V4    S    
C37   C49   A    
C9    H1    S    
C68   H30   S    
O7    V1    S    
C1    O8    A    
C13   C15   A    
O8    V2    S    
C14   C16   A    
C4    C7    S    
C5    C7    A    
C18   C20   S    
C64   O24   D    
C49   C55   A    
O19   V4    S    
C47   C51   A    
C62   O22   D    
C65   O25   D    
O12   V3    S    
O13   C57   A    
C10   C12   A    
O9    V2    S    
C48   C50   A    
C45   H13   S    
C30   H20   S    
C5    C19   S    
C47   C49   A    
C6    C20   S    
O15   C59   A    
C32   C36   A    
C16   C18   S    
C66   H28   S    
C63   O23   D    
C55   C67   S    
