data_str_m4_o22_o24_f0_acs.sym.80
_audit_creation_date              2012-12-11T15:08:57-0500
_audit_creation_method            fapswitch 2.2
_symmetry_space_group_name_H-M    P1
_symmetry_Int_Tables_number       1
_space_group_crystal_system       monoclinic
_cell_length_a                    19.458415
_cell_length_b                    11.257432
_cell_length_c                    18.695573
_cell_angle_alpha                 90.0
_cell_angle_beta                  91.209954
_cell_angle_gamma                 90.0
_cell_volume                      4094.38548427

loop_
_atom_site_label
_atom_site_type_symbol
_atom_type_description
_atom_site_fract_x
_atom_site_fract_y
_atom_site_fract_z
_atom_type_partial_charge
C1    C     C_R   0.272655 0.044488 0.853936 0.529437
C2    C     C_R   0.727345 0.044488 0.146064 0.529437
C3    C     C_R   0.772655 0.544488 0.853936 0.529437
C4    C     C_R   0.227345 0.544488 0.146064 0.529437
C5    C     C_3   0.519414 0.718911 0.964685 -0.110743
C6    C     C_3   0.480587 0.718910 0.035315 -0.110743
C7    C     C_3   0.019413 0.218910 0.964685 -0.110743
C8    C     C_3   0.980587 0.218910 0.035315 -0.110743
C9    C     C_3   0.310307 0.526308 0.044809 -0.244324
C10   C     C_3   0.689693 0.526308 0.955191 -0.244325
C11   C     C_3   0.810307 0.026308 0.044809 -0.244324
C12   C     C_3   0.189693 0.026308 0.955191 -0.244324
C13   C     C_3   0.320653 0.549002 0.964434 -0.240635
C14   C     C_3   0.679347 0.549002 0.035566 -0.240635
C15   C     C_3   0.820653 0.049002 0.964434 -0.240635
C16   C     C_3   0.179347 0.049002 0.035566 -0.240635
C17   C     C_3   0.176882 0.531545 0.024209 -0.090352
C18   C     C_3   0.823118 0.531545 0.975790 -0.090352
C19   C     C_3   0.676882 0.031545 0.024209 -0.090352
C20   C     C_3   0.323118 0.031545 0.975790 -0.090352
C21   C     C_3   0.246081 0.711037 0.057037 -0.253822
C22   C     C_3   0.753919 0.711037 0.942963 -0.253822
C23   C     C_3   0.746081 0.211037 0.057037 -0.253822
C24   C     C_3   0.253919 0.211037 0.942963 -0.253822
C25   C     C_3   0.240434 0.577647 0.070321 0.050907
C26   C     C_3   0.759566 0.577647 0.929679 0.050908
C27   C     C_3   0.740434 0.077647 0.070321 0.050907
C28   C     C_3   0.259566 0.077647 0.929679 0.050908
C29   C     C_3   0.256082 0.610327 0.932234 0.039636
C30   C     C_3   0.743918 0.610327 0.067766 0.039636
C31   C     C_3   0.756082 0.110327 0.932234 0.039636
C32   C     C_3   0.243918 0.110327 0.067766 0.039636
C33   C     C_3   0.193978 0.528751 0.943913 -0.247079
C34   C     C_3   0.806022 0.528751 0.056087 -0.247079
C35   C     C_3   0.693978 0.028751 0.943913 -0.247079
C36   C     C_3   0.306022 0.028751 0.056087 -0.247079
C37   C     C_3   0.243340 0.727797 0.974570 -0.224271
C38   C     C_3   0.756660 0.727798 0.025430 -0.224272
C39   C     C_3   0.743340 0.227798 0.974570 -0.224272
C40   C     C_3   0.256660 0.227798 0.025430 -0.224272
C41   C     C_3   0.505432 0.700928 0.460531 -0.240780
C42   C     C_3   0.494568 0.700928 0.539469 -0.240780
C43   C     C_3   0.005432 0.200928 0.460531 -0.240780
C44   C     C_3   0.994568 0.200928 0.539469 -0.240780
C45   C     C_R   0.443301 0.816522 0.862175 0.542856
C46   C     C_R   0.556698 0.816522 0.137825 0.542855
C47   C     C_R   0.943301 0.316522 0.862175 0.542856
C48   C     C_R   0.056698 0.316522 0.137825 0.542856
C49   C     C_3   0.574909 0.886036 0.493086 -0.291400
C50   C     C_3   0.425091 0.886036 0.506914 -0.291400
C51   C     C_3   0.074909 0.386036 0.493086 -0.291400
C52   C     C_3   0.925091 0.386036 0.506914 -0.291400
C53   C     C_3   0.460711 0.907285 0.434946 -0.102130
C54   C     C_3   0.539289 0.907285 0.565054 -0.102129
C55   C     C_3   0.960711 0.407285 0.434946 -0.102130
C56   C     C_3   0.039289 0.407285 0.565054 -0.102130
C57   C     C_3   0.525560 0.828445 0.435472 0.044874
C58   C     C_3   0.474440 0.828445 0.564528 0.044874
C59   C     C_3   0.025560 0.328445 0.435472 0.044874
C60   C     C_3   0.974440 0.328445 0.564528 0.044874
C61   C     C_3   0.180341 0.652336 0.458692 -0.231790
C62   C     C_3   0.819659 0.652336 0.541308 -0.231790
C63   C     C_3   0.680341 0.152336 0.458692 -0.231790
C64   C     C_3   0.319659 0.152336 0.541308 -0.231790
C65   C     C_3   0.181112 0.654143 0.538689 -0.227260
C66   C     C_3   0.818888 0.654143 0.461311 -0.227260
C67   C     C_3   0.681112 0.154143 0.538689 -0.227261
C68   C     C_3   0.318888 0.154143 0.461311 -0.227260
C69   C     C_3   0.244224 0.451791 0.472668 -0.220287
C70   C     C_3   0.755776 0.451791 0.527332 -0.220287
C71   C     C_3   0.744224 0.951791 0.472668 -0.220286
C72   C     C_3   0.255775 0.951791 0.527332 -0.220286
C73   C     C_3   0.306011 0.638178 0.447384 -0.260227
C74   C     C_3   0.693988 0.638178 0.552616 -0.260227
C75   C     C_3   0.806011 0.138178 0.447384 -0.260227
C76   C     C_3   0.193989 0.138178 0.552616 -0.260227
C77   C     C_3   0.239347 0.571679 0.430940 0.064300
C78   C     C_3   0.760653 0.571679 0.569060 0.064300
C79   C     C_3   0.739347 0.071679 0.430940 0.064300
C80   C     C_3   0.260653 0.071679 0.569060 0.064300
C81   C     C_3   0.249406 0.599924 0.569595 0.066736
C82   C     C_3   0.750594 0.599924 0.430405 0.066736
C83   C     C_3   0.749406 0.099924 0.569595 0.066736
C84   C     C_3   0.250594 0.099924 0.430405 0.066736
C85   C     C_3   0.245073 0.467727 0.555131 -0.266841
C86   C     C_3   0.754926 0.467727 0.444869 -0.266840
C87   C     C_3   0.745074 0.967727 0.555131 -0.266840
C88   C     C_3   0.254927 0.967727 0.444869 -0.266840
C89   C     C_R   0.262637 0.641922 0.855040 0.540629
C90   C     C_R   0.737363 0.641922 0.144960 0.540629
C91   C     C_R   0.762637 0.141922 0.855040 0.540629
C92   C     C_R   0.237363 0.141922 0.144960 0.540629
C93   C     C_3   0.314552 0.640639 0.529828 -0.219525
C94   C     C_3   0.685448 0.640639 0.470172 -0.219525
C95   C     C_3   0.814552 0.140639 0.529828 -0.219525
C96   C     C_3   0.185448 0.140639 0.470172 -0.219526
C97   C     C_R   0.272891 0.044007 0.645717 0.542337
C98   C     C_R   0.727109 0.044007 0.354283 0.542337
C99   C     C_R   0.772891 0.544007 0.645717 0.542337
C100  C     C_R   0.227109 0.544007 0.354283 0.542337
C101  C     C_R   0.444490 0.820251 0.637550 0.544727
C102  C     C_R   0.555510 0.820251 0.362450 0.544727
C103  C     C_R   0.944490 0.320251 0.637550 0.544727
C104  C     C_R   0.055510 0.320251 0.362450 0.544727
C105  C     C_R   0.259069 0.635365 0.645577 0.548780
C106  C     C_R   0.740931 0.635365 0.354423 0.548780
C107  C     C_R   0.759069 0.135365 0.645577 0.548780
C108  C     C_R   0.240931 0.135365 0.354423 0.548780
C109  C     C_3   0.480130 0.912984 0.035557 -0.082606
C110  C     C_3   0.519869 0.912985 0.964443 -0.082606
C111  C     C_3   0.980131 0.412985 0.035557 -0.082606
C112  C     C_3   0.019869 0.412985 0.964443 -0.082606
C113  C     C_3   0.431830 0.815037 0.006030 -0.169312
C114  C     C_3   0.568170 0.815039 0.993970 -0.169312
C115  C     C_3   0.931830 0.315038 0.006030 -0.169312
C116  C     C_3   0.068170 0.315038 0.993970 -0.169312
C117  C     C_3   0.471485 0.816981 0.935903 0.047932
C118  C     C_3   0.528515 0.816981 0.064097 0.047932
C119  C     C_3   0.971485 0.316981 0.935903 0.047932
C120  C     C_3   0.028515 0.316981 0.064097 0.047932
Cr1   Cr    Cr6+3 0.229620 0.836040 0.749110 1.004568
Cr2   Cr    Cr6+3 0.770380 0.836040 0.250890 1.004569
Cr3   Cr    Cr6+3 0.729620 0.336040 0.749110 1.004568
Cr4   Cr    Cr6+3 0.270380 0.336040 0.250890 1.004569
Cr5   Cr    Cr6+3 0.387630 0.990680 0.750730 1.028966
Cr6   Cr    Cr6+3 0.612370 0.990680 0.249270 1.028966
Cr7   Cr    Cr6+3 0.887630 0.490680 0.750730 1.028966
Cr8   Cr    Cr6+3 0.112370 0.490680 0.249270 1.028966
Cr9   Cr    Cr6+3 0.386020 0.676590 0.749210 1.007373
Cr10  Cr    Cr6+3 0.613980 0.676590 0.250790 1.007373
Cr11  Cr    Cr6+3 0.886020 0.176590 0.749210 1.007373
Cr12  Cr    Cr6+3 0.113980 0.176590 0.250790 1.007373
H1    H     H_    0.377337 0.803698 0.016166 0.091374
H2    H     H_    0.622663 0.803701 0.983833 0.091374
H3    H     H_    0.877337 0.303699 0.016166 0.091374
H4    H     H_    0.122663 0.303699 0.983834 0.091374
H5    H     H_    0.203810 0.761193 0.082286 0.140892
H6    H     H_    0.796190 0.761193 0.917714 0.140893
H7    H     H_    0.703810 0.261193 0.082286 0.140892
H8    H     H_    0.296190 0.261193 0.917714 0.140893
H9    H     H_    0.294316 0.744510 0.081990 0.108269
H10   H     H_    0.705684 0.744510 0.918010 0.108269
H11   H     H_    0.794316 0.244510 0.081990 0.108269
H12   H     H_    0.205684 0.244510 0.918010 0.108269
H13   H     H_    0.278583 0.796178 0.957273 0.097808
H14   H     H_    0.721417 0.796179 0.042727 0.097808
H15   H     H_    0.778582 0.296179 0.957273 0.097808
H16   H     H_    0.221417 0.296178 0.042727 0.097809
H17   H     H_    0.190351 0.755408 0.960236 0.151510
H18   H     H_    0.809649 0.755408 0.039764 0.151511
H19   H     H_    0.690351 0.255408 0.960236 0.151510
H20   H     H_    0.309649 0.255408 0.039764 0.151510
H21   H     H_    0.149212 0.556822 0.909893 0.139129
H22   H     H_    0.850788 0.556822 0.090107 0.139129
H23   H     H_    0.649212 0.056822 0.909893 0.139129
H24   H     H_    0.350788 0.056822 0.090107 0.139129
H25   H     H_    0.543445 0.632410 0.448338 0.122191
H26   H     H_    0.456555 0.632410 0.551662 0.122191
H27   H     H_    0.043445 0.132410 0.448338 0.122191
H28   H     H_    0.956555 0.132410 0.551662 0.122191
H29   H     H_    0.457488 0.672051 0.432399 0.146420
H30   H     H_    0.542512 0.672051 0.567601 0.146420
H31   H     H_    0.957488 0.172051 0.432399 0.146420
H32   H     H_    0.042512 0.172051 0.567601 0.146420
H33   H     H_    0.616450 0.827908 0.507203 0.109120
H34   H     H_    0.383551 0.827908 0.492797 0.109120
H35   H     H_    0.116449 0.327908 0.507203 0.109120
H36   H     H_    0.883551 0.327908 0.492797 0.109120
H37   H     H_    0.465168 0.991847 0.067076 0.155390
H38   H     H_    0.534831 0.991848 0.932924 0.155390
H39   H     H_    0.965169 0.491848 0.067076 0.155390
H40   H     H_    0.034831 0.491848 0.932924 0.155390
H41   H     H_    0.475800 0.002539 0.431509 0.110161
H42   H     H_    0.524200 0.002539 0.568491 0.110161
H43   H     H_    0.975800 0.502539 0.431509 0.110161
H44   H     H_    0.024200 0.502539 0.568491 0.110161
H45   H     H_    0.404960 0.968704 0.527452 0.108064
H46   H     H_    0.595040 0.968704 0.472548 0.108064
H47   H     H_    0.904960 0.468704 0.527452 0.108064
H48   H     H_    0.095040 0.468704 0.472548 0.108064
H49   H     H_    0.127735 0.631106 0.439469 0.135875
H50   H     H_    0.872265 0.631105 0.560531 0.135876
H51   H     H_    0.627735 0.131105 0.439469 0.135875
H52   H     H_    0.372265 0.131105 0.560531 0.135876
H53   H     H_    0.187417 0.743062 0.438304 0.114034
H54   H     H_    0.812583 0.743062 0.561695 0.114034
H55   H     H_    0.687417 0.243062 0.438305 0.114034
H56   H     H_    0.312583 0.243062 0.561695 0.114034
H57   H     H_    0.169946 0.744952 0.555708 0.136267
H58   H     H_    0.830054 0.744953 0.444292 0.136267
H59   H     H_    0.669946 0.244952 0.555708 0.136267
H60   H     H_    0.330054 0.244952 0.444292 0.136267
H61   H     H_    0.136738 0.602988 0.558821 0.117682
H62   H     H_    0.863262 0.602988 0.441179 0.117682
H63   H     H_    0.636738 0.102988 0.558821 0.117682
H64   H     H_    0.363262 0.102988 0.441179 0.117682
H65   H     H_    0.703619 0.893532 0.453727 0.105275
H66   H     H_    0.296381 0.893532 0.546273 0.105275
H67   H     H_    0.203619 0.393532 0.453727 0.105275
H68   H     H_    0.796381 0.393532 0.546273 0.105275
H69   H     H_    0.699028 0.929781 0.578266 0.135786
H70   H     H_    0.300972 0.929781 0.421734 0.135786
H71   H     H_    0.199028 0.429781 0.578266 0.135786
H72   H     H_    0.800972 0.429781 0.421734 0.135786
H73   H     H_    0.350033 0.591337 0.423065 0.118357
H74   H     H_    0.649967 0.591337 0.576935 0.118357
H75   H     H_    0.850033 0.091337 0.423065 0.118357
H76   H     H_    0.149967 0.091337 0.576934 0.118357
H77   H     H_    0.304037 0.728707 0.424651 0.127159
H78   H     H_    0.695963 0.728707 0.575349 0.127159
H79   H     H_    0.804037 0.228707 0.424651 0.127159
H80   H     H_    0.195963 0.228707 0.575349 0.127159
H81   H     H_    0.534632 0.637491 0.935650 0.133152
H82   H     H_    0.465369 0.637490 0.064349 0.133151
H83   H     H_    0.034631 0.137490 0.935651 0.133151
H84   H     H_    0.965369 0.137490 0.064349 0.133151
H85   H     H_    0.331101 0.723213 0.553543 0.102461
H86   H     H_    0.668898 0.723212 0.446457 0.102461
H87   H     H_    0.831101 0.223213 0.553543 0.102461
H88   H     H_    0.168899 0.223213 0.446457 0.102461
H89   H     H_    0.355978 0.576817 0.543538 0.122043
H90   H     H_    0.644022 0.576817 0.456462 0.122043
H91   H     H_    0.855978 0.076818 0.543538 0.122043
H92   H     H_    0.144022 0.076818 0.456462 0.122043
H93   H     H_    0.293459 0.411467 0.458736 0.128478
H94   H     H_    0.706541 0.411467 0.541264 0.128478
H95   H     H_    0.793459 0.911467 0.458736 0.128478
H96   H     H_    0.206541 0.911467 0.541264 0.128478
H97   H     H_    0.289853 0.423297 0.580939 0.111220
H98   H     H_    0.710147 0.423297 0.419061 0.111220
H99   H     H_    0.789853 0.923298 0.580939 0.111220
H100  H     H_    0.210147 0.923298 0.419061 0.111220
H101  H     H_    0.314621 0.432379 0.056508 0.137351
H102  H     H_    0.685379 0.432379 0.943492 0.137351
H103  H     H_    0.814621 0.932379 0.056508 0.137351
H104  H     H_    0.185379 0.932379 0.943492 0.137351
H105  H     H_    0.353338 0.567303 0.076050 0.121217
H106  H     H_    0.646662 0.567303 0.923949 0.121217
H107  H     H_    0.853337 0.067303 0.076051 0.121217
H108  H     H_    0.146663 0.067303 0.923949 0.121217
H109  H     H_    0.366526 0.605963 0.957164 0.140986
H110  H     H_    0.633475 0.605963 0.042836 0.140986
H111  H     H_    0.866525 0.105963 0.957164 0.140986
H112  H     H_    0.133474 0.105963 0.042836 0.140986
H113  H     H_    0.330525 0.463718 0.936545 0.129620
H114  H     H_    0.669475 0.463718 0.063455 0.129620
H115  H     H_    0.830525 0.963718 0.936545 0.129620
H116  H     H_    0.169475 0.963718 0.063455 0.129620
H117  H     H_    0.662821 0.944812 0.044216 0.082782
H118  H     H_    0.337180 0.944811 0.955784 0.082782
H119  H     H_    0.162821 0.444811 0.044216 0.082782
H120  H     H_    0.837179 0.444812 0.955784 0.082782
H121  H     H_    0.706567 0.937778 0.927008 0.101048
H122  H     H_    0.293433 0.937778 0.072992 0.101048
H123  H     H_    0.206567 0.437778 0.927008 0.101048
H124  H     H_    0.793433 0.437778 0.072992 0.101048
O1    O     O_R   0.214130 0.708570 0.829890 -0.520298
O2    O     O_R   0.785870 0.708570 0.170110 -0.520298
O3    O     O_R   0.714130 0.208570 0.829890 -0.520298
O4    O     O_R   0.285870 0.208570 0.170110 -0.520298
O5    O     O_R   0.446360 0.919990 0.675230 -0.493671
O6    O     O_R   0.553640 0.919990 0.324770 -0.493671
O7    O     O_R   0.946360 0.419990 0.675230 -0.493671
O8    O     O_R   0.053640 0.419990 0.324770 -0.493671
O9    O     O_R   0.457170 0.717300 0.668380 -0.512057
O10   O     O_R   0.542830 0.717300 0.331620 -0.512057
O11   O     O_R   0.957170 0.217300 0.668380 -0.512057
O12   O     O_R   0.042830 0.217300 0.331620 -0.512057
O13   O     O_R   0.320870 0.624890 0.673130 -0.523298
O14   O     O_R   0.679130 0.624890 0.326870 -0.523298
O15   O     O_R   0.820870 0.124890 0.673130 -0.523298
O16   O     O_R   0.179130 0.124890 0.326870 -0.523298
O17   O     O_3   0.334430 0.834430 0.749680 -0.307549
O18   O     O_3   0.665570 0.834430 0.250320 -0.307549
O19   O     O_3   0.834430 0.334430 0.749680 -0.307549
O20   O     O_3   0.165570 0.334430 0.250320 -0.307549
O21   O     O_R   0.236050 0.959150 0.825270 -0.514561
O22   O     O_R   0.763950 0.959150 0.174730 -0.514560
O23   O     O_R   0.736050 0.459150 0.825270 -0.514561
O24   O     O_R   0.263950 0.459150 0.174730 -0.514560
O25   O     O_R   0.332100 0.076650 0.832310 -0.510954
O26   O     O_R   0.667900 0.076650 0.167690 -0.510953
O27   O     O_R   0.832100 0.576650 0.832310 -0.510954
O28   O     O_R   0.167900 0.576650 0.167690 -0.510953
O29   O     O_R   0.446500 0.918620 0.826240 -0.484565
O30   O     O_R   0.553500 0.918620 0.173760 -0.484565
O31   O     O_R   0.946500 0.418620 0.826240 -0.484565
O32   O     O_R   0.053500 0.418620 0.173760 -0.484565
O33   O     O_R   0.457310 0.715830 0.831280 -0.511898
O34   O     O_R   0.542690 0.715830 0.168720 -0.511898
O35   O     O_R   0.957310 0.215830 0.831280 -0.511898
O36   O     O_R   0.042690 0.215830 0.168720 -0.511898
O37   O     O_R   0.321000 0.623520 0.824130 -0.517289
O38   O     O_R   0.679000 0.623520 0.175870 -0.517289
O39   O     O_R   0.821000 0.123520 0.824130 -0.517290
O40   O     O_R   0.179000 0.123520 0.175870 -0.517289
O41   O     O_R   0.213990 0.710040 0.667000 -0.525121
O42   O     O_R   0.786010 0.710040 0.333000 -0.525121
O43   O     O_R   0.713990 0.210040 0.667000 -0.525121
O44   O     O_R   0.286010 0.210040 0.333000 -0.525121
O45   O     O_R   0.235920 0.960520 0.674260 -0.509231
O46   O     O_R   0.764080 0.960520 0.325740 -0.509231
O47   O     O_R   0.735920 0.460520 0.674260 -0.509231
O48   O     O_R   0.264080 0.460520 0.325740 -0.509231
O49   O     O_R   0.331960 0.078120 0.669410 -0.536694
O50   O     O_R   0.668040 0.078120 0.330590 -0.536693
O51   O     O_R   0.831960 0.578120 0.669410 -0.536694
O52   O     O_R   0.168040 0.578120 0.330590 -0.536693
C121  C     C_1   0.614382 0.105296 0.034359 0.205094
N1    N     N_1   0.566465 0.164131 0.042778 -0.290552
C122  C     C_1   0.385618 0.105296 0.965641 0.205094
N2    N     N_1   0.433534 0.164131 0.957222 -0.290552
C123  C     C_1   0.114381 0.605295 0.034359 0.205094
N3    N     N_1   0.066465 0.664130 0.042778 -0.290552
C124  C     C_1   0.885618 0.605296 0.965641 0.205094
N4    N     N_1   0.933534 0.664131 0.957222 -0.290552
C125  C     C_1   0.584749 0.882992 0.628204 0.189580
N5    N     N_1   0.619218 0.863764 0.678107 -0.298734
C126  C     C_1   0.415251 0.882992 0.371796 0.189581
N6    N     N_1   0.380782 0.863763 0.321893 -0.298734
C127  C     C_1   0.084749 0.382992 0.628204 0.189580
N7    N     N_1   0.119218 0.363764 0.678107 -0.298734
C128  C     C_1   0.915251 0.382992 0.371796 0.189580
N8    N     N_1   0.880782 0.363764 0.321893 -0.298734

loop_
_geom_bond_atom_site_label_1
_geom_bond_atom_site_label_2
_ccdc_geom_bond_type
C82   C94   S    
C55   C59   S    
C83   C87   S    
C73   C93   S    
C47   O35   A    
C42   C58   S    
C29   C89   S    
C75   C95   S    
C48   C120  S    
Cr5   O17   S    
C24   H8    S    
C57   C102  S    
C59   C104  S    
Cr1   O21   S    
Cr9   O37   S    
Cr2   O18   S    
C5    C6    S    
Cr10  O14   S    
Cr3   O23   S    
Cr11  O11   S    
C22   C38   S    
C29   C33   S    
C30   C38   S    
C77   C100  S    
C9    C13   S    
C92   O4    A    
C75   H75   S    
C12   C16   S    
Cr3   O19   S    
C95   H87   S    
C102  O6    A    
C99   O51   A    
C103  O11   A    
C60   C103  S    
C83   C107  S    
C113  H1    S    
C23   H11   S    
C66   H62   S    
C109  C118  S    
C15   H111  S    
C16   H116  S    
C11   H103  S    
Cr5   O29   S    
C50   C53   S    
C63   H51   S    
C9    H101  S    
C128  N8    T    
C46   O30   A    
Cr7   O31   S    
C33   H123  S    
C85   H97   S    
Cr8   O32   S    
C62   C66   S    
C20   C28   S    
Cr3   O3    S    
C96   H88   S    
C90   O38   A    
Cr12  O40   S    
C17   C123  S    
C100  O48   A    
C43   C44   S    
C1    O21   A    
C66   C82   S    
C3    O23   A    
C11   C27   S    
C5    H81   S    
C58   C101  S    
C106  O42   A    
C88   H100  S    
C65   H57   S    
C4    O24   A    
C90   O2    A    
C92   O40   A    
C70   H68   S    
Cr2   O46   S    
C3    C26   S    
Cr3   O43   S    
C70   H94   S    
C31   C91   S    
Cr7   O19   S    
C8    H84   S    
Cr12  O16   S    
Cr10  O38   S    
Cr11  O35   S    
C17   C25   S    
C54   H42   S    
C19   C35   S    
C76   C96   S    
C1    O25   A    
C19   C121  S    
C32   C92   S    
C98   O46   A    
C36   H122  S    
C21   H9    S    
C61   C65   S    
C12   H108  S    
C127  N7    T    
C78   C99   S    
C73   C77   S    
C104  O8    A    
C88   H70   S    
C75   C79   S    
C76   H76   S    
Cr12  O20   S    
C67   C83   S    
Cr8   O52   S    
C80   C97   S    
C69   C77   S    
C111  C112  S    
C71   C79   S    
C4    C25   S    
Cr4   O24   S    
C53   H41   S    
C7    C8    S    
C56   H44   S    
C64   C68   S    
C73   H77   S    
C35   H23   S    
C43   H27   S    
C33   H21   S    
C39   H19   S    
C49   C57   S    
C40   H20   S    
C93   H85   S    
C38   H14   S    
C52   C60   S    
C14   H110  S    
C61   C77   S    
C110  C114  S    
C43   C59   S    
C62   H54   S    
C76   H80   S    
C10   H106  S    
Cr6   O18   S    
C11   C15   S    
Cr2   O22   S    
C109  H37   S    
C81   C105  S    
C30   C34   S    
C10   C14   S    
C95   H91   S    
C116  C120  S    
C84   C88   S    
C7    C116  S    
Cr1   O41   S    
C22   H10   S    
C61   H53   S    
C114  H2    S    
C50   C58   S    
C21   C37   S    
C44   C60   S    
C64   H56   S    
C113  C117  S    
C16   H112  S    
Cr5   O25   S    
C63   H55   S    
Cr6   O30   S    
C9    H105  S    
Cr8   O28   S    
C56   C127  S    
C112  C116  S    
C69   C85   S    
C45   C117  S    
C21   C25   S    
C45   O33   A    
C62   C78   S    
C24   C28   S    
C2    O22   A    
C42   H30   S    
C15   C31   S    
C16   C32   S    
C97   O49   A    
C52   H47   S    
C72   C80   S    
C107  O43   A    
C115  H3    S    
C20   C122  S    
C66   H58   S    
C4    O28   A    
C111  H39   S    
C82   C106  S    
Cr5   O49   S    
C91   O3    A    
C64   H52   S    
C51   C59   S    
Cr5   O5    S    
C94   H90   S    
C81   C85   S    
Cr1   O1    S    
C13   H113  S    
C41   H29   S    
C41   C42   S    
C74   C94   S    
Cr9   O17   S    
C18   C26   S    
C30   C90   S    
C9    C25   S    
C2    O26   A    
C75   H79   S    
C23   C39   S    
C12   C28   S    
C13   C29   S    
C74   H74   S    
C98   O50   A    
C45   O29   A    
C46   C118  S    
C73   H73   S    
C51   H35   S    
C50   H34   S    
C1    C28   S    
C55   C128  S    
C2    C27   S    
Cr10  O18   S    
Cr4   O44   S    
C52   C55   S    
C124  N4    T    
C64   C80   S    
C42   H26   S    
C17   C33   S    
C110  C117  S    
C38   H18   S    
C65   H61   S    
C34   H22   S    
C105  O13   A    
C10   H102  S    
C40   H16   S    
C107  O15   A    
C68   C84   S    
C76   C80   S    
C108  O16   A    
C50   H45   S    
C53   C57   S    
C19   H117  S    
C82   C86   S    
C17   H119  S    
C56   C60   S    
C115  C119  S    
C86   H98   S    
C49   H33   S    
C48   O36   A    
C7    C119  S    
C62   H50   S    
C65   C81   S    
C6    H82   S    
Cr7   O51   S    
C68   H64   S    
C41   H25   S    
C110  H38   S    
C15   H115  S    
C44   H28   S    
C31   C35   S    
C32   C36   S    
Cr9   O9    S    
C36   H24   S    
C49   H46   S    
C23   H7    S    
C101  O9    A    
C37   H17   S    
C69   H93   S    
C112  C119  S    
C116  H4    S    
C22   H6    S    
C61   H49   S    
C41   C57   S    
C47   O31   A    
C109  C110  S    
C48   O32   A    
C89   O37   A    
C123  N3    T    
C112  H40   S    
C24   H12   S    
Cr6   O26   S    
C91   O39   A    
C84   C108  S    
Cr7   O7    S    
Cr8   O8    S    
Cr1   O17   S    
C85   H71   S    
C72   H66   S    
C126  N6    T    
Cr10  O10   S    
Cr11  O15   S    
Cr4   O4    S    
C22   C26   S    
C29   C37   S    
C44   H32   S    
C87   H69   S    
C7    H83   S    
C43   H31   S    
C122  N2    T    
C101  O5    A    
C5    C114  S    
C70   C78   S    
C79   C98   S    
C63   C79   S    
C121  N1    T    
C74   H78   S    
C34   H124  S    
Cr6   O50   S    
C84   C96   S    
C67   H59   S    
C68   H60   S    
C11   H107  S    
C49   C54   S    
C94   H86   S    
Cr6   O6    S    
C51   C56   S    
C46   O34   A    
Cr7   O27   S    
Cr8   O20   S    
C8    C115  S    
C20   H118  S    
Cr2   O2    S    
C13   H109  S    
C18   H120  S    
C96   H92   S    
Cr12  O36   S    
C54   C125  S    
C23   C27   S    
C19   C27   S    
C74   C78   S    
C109  C113  S    
C10   C26   S    
C47   C119  S    
Cr9   O33   S    
C53   C126  S    
C105  O41   A    
C14   C30   S    
C67   H63   S    
C72   C88   S    
C71   H65   S    
C108  O44   A    
C63   C67   S    
C18   C124  S    
C89   O1    A    
C20   C36   S    
Cr1   O45   S    
C21   H5    S    
C5    C117  S    
C111  C120  S    
Cr2   O42   S    
Cr3   O47   S    
C6    C113  S    
Cr11  O19   S    
Cr4   O48   S    
Cr12  O12   S    
C81   C93   S    
C83   C95   S    
Cr10  O34   S    
Cr11  O39   S    
C18   C34   S    
C55   H43   S    
C114  C118  S    
C106  O14   A    
C71   C87   S    
C97   O45   A    
C51   H48   S    
C70   C86   S    
C86   H72   S    
C99   O47   A    
C8    C120  S    
C35   H121  S    
C54   C58   S    
C12   H104  S    
C71   H95   S    
C104  O12   A    
C111  C115  S    
C72   H96   S    
C52   H36   S    
Cr4   O20   S    
C87   H99   S    
C3    O27   A    
C24   C40   S    
C31   C39   S    
C32   C40   S    
C125  N5    T    
Cr9   O13   S    
C100  O52   A    
C102  O10   A    
C39   H15   S    
C69   H67   S    
C103  O7    A    
C93   H89   S    
C37   H13   S    
C6    C118  S    
C14   H114  S    
