data_str_m12_o9_o13_f0_bcu.sym.30
_audit_creation_date              2012-12-11T17:43:33-0500
_audit_creation_method            fapswitch 2.2
_symmetry_space_group_name_H-M    P1
_symmetry_Int_Tables_number       1
_space_group_crystal_system       triclinic
_cell_length_a                    15.176696
_cell_length_b                    15.175048
_cell_length_c                    16.834336
_cell_angle_alpha                 108.982789
_cell_angle_beta                  106.592957
_cell_angle_gamma                 109.204225
_cell_volume                      3109.71175005

loop_
_atom_site_label
_atom_site_type_symbol
_atom_type_description
_atom_site_fract_x
_atom_site_fract_y
_atom_site_fract_z
_atom_type_partial_charge
C1    C     C_R   0.087539 0.274240 0.030123 -0.123868
C2    C     C_R   0.084974 0.062837 0.946220 -0.233711
C3    C     C_R   0.999143 0.883952 0.920958 0.051353
C4    C     C_R   0.993696 0.071164 0.937552 0.071861
C5    C     C_R   0.088744 0.969105 0.936691 0.032190
C6    C     C_R   0.900784 0.979190 0.906246 0.035892
C7    C     C_R   0.723959 0.931842 0.796024 -0.191553
C8    C     C_R   0.282882 0.042963 0.010463 -0.174255
C9    C     C_R   0.595360 0.944635 0.850911 -0.135490
C10   C     C_R   0.366328 0.950927 0.941202 -0.116270
C11   C     C_R   0.541114 0.590787 0.360484 -0.142494
C12   C     C_R   0.914326 0.707242 0.916765 -0.150725
C13   C     C_R   0.568038 0.508695 0.734695 -0.125341
C14   C     C_R   0.546036 0.614488 0.287630 -0.199445
C15   C     C_R   0.552533 0.488393 0.806434 -0.147621
C16   C     C_R   0.937270 0.444353 0.735436 -0.284349
C17   C     C_R   0.065123 0.475343 0.251231 -0.226814
C18   C     C_R   0.505630 0.533116 0.197231 0.138816
C19   C     C_R   0.571404 0.570928 0.888333 0.077062
C20   C     C_R   0.462503 0.428050 0.181023 -0.223754
C21   C     C_R   0.601999 0.672312 0.896278 -0.173761
C22   C     C_R   0.457090 0.404405 0.253418 -0.227821
C23   C     C_R   0.028099 0.461920 0.724707 -0.074753
C24   C     C_R   0.617101 0.691877 0.824714 -0.231823
C25   C     C_R   0.495970 0.485532 0.343670 0.283902
C26   C     C_R   0.602523 0.611053 0.744125 0.208367
C27   C     C_R   0.620541 0.576441 0.124873 -0.228570
C28   C     C_R   0.461057 0.536231 0.964545 -0.261573
C29   C     C_R   0.634341 0.566482 0.044766 0.087667
C30   C     C_R   0.444497 0.538466 0.042075 0.080657
C31   C     C_R   0.555792 0.553475 0.965624 0.037761
C32   C     C_R   0.523656 0.555501 0.122708 0.032856
C33   C     C_R   0.623153 0.917549 0.777481 -0.153710
C34   C     C_R   0.975753 0.408976 0.249857 -0.080282
C35   C     C_R   0.373128 0.037201 0.011181 -0.101570
C36   C     C_R   0.968329 0.364910 0.315419 0.158091
C37   C     C_R   0.036219 0.414789 0.637200 0.105243
C38   C     C_R   0.143356 0.428114 0.553790 0.148482
C39   C     C_R   0.862415 0.292048 0.384966 0.151919
C40   C     C_R   0.716524 0.220001 0.826582 -0.206731
C41   C     C_R   0.222348 0.796703 0.190099 -0.211078
C42   C     C_R   0.133390 0.440276 0.636447 -0.178446
C43   C     C_R   0.870870 0.307877 0.309944 -0.260643
C44   C     C_R   0.946639 0.354488 0.552438 -0.262719
C45   C     C_R   0.655917 0.223100 0.749385 0.045005
C46   C     C_R   0.058414 0.393280 0.391972 -0.249869
C47   C     C_R   0.953304 0.338704 0.468496 0.111974
C48   C     C_R   0.052399 0.383207 0.470253 0.042437
C49   C     C_R   0.542584 0.150659 0.689702 -0.036249
C50   C     C_R   0.282490 0.899396 0.366761 -0.052694
C51   C     C_R   0.371941 0.090410 0.455945 -0.151137
C52   C     C_R   0.403728 0.971258 0.615407 -0.138152
C53   C     C_R   0.317621 0.999387 0.370081 -0.268144
C54   C     C_R   0.496858 0.053883 0.690257 -0.302429
C55   C     C_R   0.290248 0.893835 0.450140 0.690268
C56   C     C_R   0.245739 0.803504 0.279146 0.058681
C57   C     C_R   0.481855 0.167778 0.622003 0.712164
C58   C     C_R   0.362522 0.981926 0.535343 -0.078052
C59   C     C_R   0.402737 0.081466 0.538485 -0.079180
C60   C     C_R   0.668316 0.985870 0.943066 -0.073186
C61   C     C_R   0.269286 0.869896 0.870563 -0.068684
C62   C     C_R   0.768977 0.999007 0.961883 -0.128030
C63   C     C_R   0.178766 0.875356 0.869393 -0.149198
C64   C     C_R   0.298920 0.582693 0.997951 0.264769
C65   C     C_R   0.740338 0.466963 0.050009 0.173849
C66   C     C_R   0.797377 0.972687 0.888355 0.077713
C67   C     C_R   0.346037 0.531970 0.035611 -0.051627
C68   C     C_R   0.184715 0.961922 0.939543 0.110190
C69   C     C_R   0.722435 0.311101 0.747386 0.195782
C70   C     C_R   0.227602 0.702281 0.267817 0.255815
C71   C     C_R   0.284379 0.479421 0.066847 -0.174125
C72   C     C_R   0.762828 0.572316 0.982653 -0.173846
C73   C     C_R   0.108239 0.538520 0.811032 0.682671
C74   C     C_R   0.894770 0.385671 0.170277 0.684042
C75   C     C_R   0.915037 0.194948 0.946804 -0.076632
C76   C     C_R   0.085657 0.795211 0.998355 -0.145115
C77   C     C_R   0.999404 0.176142 0.967445 0.026974
C78   C     C_R   0.719123 0.546427 0.037586 -0.001144
C79   C     C_R   0.001036 0.798716 0.943392 0.068269
C80   C     C_3   0.427353 0.488248 0.456835 -0.925002
C81   C     C_3   0.692461 0.607899 0.645293 -0.923259
C82   C     C_3   0.334023 0.547415 0.640776 -0.881984
C83   C     C_3   0.734340 0.136168 0.372399 -0.928374
C84   C     C_3   0.340027 0.767611 0.036412 -0.831506
C85   C     C_3   0.701291 0.420533 0.166991 -0.901433
C86   C     C_3   0.664956 0.305498 0.592770 -0.894365
C87   C     C_3   0.395026 0.733258 0.373407 -0.929272
C88   C     C_R   0.905172 0.887627 0.897518 -0.238043
F1    F     F_    0.496142 0.265438 0.637363 -0.759769
F2    F     F_    0.231969 0.804010 0.449441 -0.741270
F3    F     F_    0.208062 0.593103 0.829686 -0.775643
F4    F     F_    0.807698 0.291589 0.119661 -0.760985
H1    H     H_    0.166459 0.288317 0.063089 0.097257
H2    H     H_    0.614723 0.736401 0.958309 0.132618
H3    H     H_    0.423485 0.322850 0.239339 0.113536
H4    H     H_    0.640857 0.770314 0.832596 0.158982
H5    H     H_    0.683376 0.592516 0.186821 0.149815
H6    H     H_    0.399454 0.521879 0.902207 0.142288
H7    H     H_    0.133620 0.433581 0.395054 0.134609
H8    H     H_    0.871189 0.329369 0.552042 0.156224
H9    H     H_    0.799887 0.280940 0.250450 0.182255
H10   H     H_    0.201888 0.473962 0.700600 0.198777
H11   H     H_    0.861980 0.383304 0.684767 0.169349
H12   H     H_    0.836891 0.675671 0.863267 0.104050
H13   H     H_    0.142805 0.491431 0.292012 0.132575
H14   H     H_    0.566284 0.884360 0.706066 0.125874
H15   H     H_    0.448387 0.099620 0.066093 0.115874
H16   H     H_    0.535261 0.039600 0.745415 0.162289
H17   H     H_    0.307640 0.008175 0.307405 0.148204
H18   H     H_    0.401264 0.166445 0.457033 0.165420
H19   H     H_    0.373064 0.895851 0.615325 0.182151
H20   H     H_    0.517116 0.933182 0.836136 0.111181
H21   H     H_    0.436271 0.946366 0.942388 0.101422
H22   H     H_    0.646512 0.006456 0.999728 0.121002
H23   H     H_    0.744427 0.909513 0.738610 0.128790
H24   H     H_    0.264214 0.802849 0.816694 0.149255
H25   H     H_    0.824555 0.029193 0.033222 0.128624
H26   H     H_    0.104146 0.812392 0.813718 0.122528
H27   H     H_    0.687860 0.172303 0.858048 0.142280
H28   H     H_    0.227566 0.859508 0.172034 0.125690
H29   H     H_    0.300979 0.442356 0.109481 0.136717
H30   H     H_    0.764242 0.632105 0.961308 0.141677
H31   H     H_    0.835974 0.142553 0.896626 0.129935
H32   H     H_    0.166545 0.848960 0.025216 0.112088
H33   H     H_    0.834514 0.821842 0.880840 0.135051
H34   H     H_    0.289592 0.110213 0.065522 0.106554
H35   H     H_    0.153903 0.129967 0.961467 0.127574
H36   H     H_    0.482928 0.386061 0.404593 0.160189
H37   H     H_    0.430292 0.465191 0.513328 0.265202
H38   H     H_    0.345761 0.445485 0.401951 0.242506
H39   H     H_    0.454064 0.574387 0.487188 0.252976
H40   H     H_    0.623548 0.703834 0.676731 0.169185
H41   H     H_    0.695523 0.625506 0.586776 0.259389
H42   H     H_    0.670792 0.523246 0.621323 0.260545
H43   H     H_    0.770692 0.656886 0.705609 0.242951
H44   H     H_    0.254827 0.411295 0.509943 0.170769
H45   H     H_    0.574557 0.654356 0.430414 0.118564
H46   H     H_    0.398554 0.584109 0.624919 0.248771
H47   H     H_    0.358795 0.512289 0.685857 0.254227
H48   H     H_    0.317674 0.610659 0.678417 0.268296
H49   H     H_    0.703197 0.241444 0.331234 0.166968
H50   H     H_    0.658112 0.104426 0.374149 0.249388
H51   H     H_    0.793050 0.139082 0.431855 0.259712
H52   H     H_    0.728260 0.082401 0.305511 0.255231
H53   H     H_    0.383846 0.673749 0.948395 0.213657
H54   H     H_    0.396554 0.836519 0.036950 0.231649
H55   H     H_    0.353879 0.788676 0.109848 0.236821
H56   H     H_    0.551720 0.445044 0.670982 0.208096
H57   H     H_    0.260404 0.750277 0.992910 0.268173
H58   H     H_    0.664029 0.315216 0.030970 0.218396
H59   H     H_    0.707079 0.357494 0.184009 0.267928
H60   H     H_    0.636088 0.428176 0.179366 0.255570
H61   H     H_    0.774539 0.495257 0.215263 0.235111
H62   H     H_    0.736541 0.439663 0.722826 0.168279
H63   H     H_    0.721575 0.353254 0.575024 0.221831
H64   H     H_    0.589237 0.297236 0.550277 0.280575
H65   H     H_    0.661035 0.226282 0.571355 0.238431
H66   H     H_    0.253658 0.665099 0.379375 0.237878
H67   H     H_    0.583369 0.695923 0.302041 0.128090
H68   H     H_    0.428676 0.700395 0.416593 0.248943
H69   H     H_    0.424989 0.818292 0.418761 0.245281
H70   H     H_    0.420124 0.723349 0.316611 0.258811
H71   H     H_    0.526534 0.409239 0.798653 0.179373
H72   H     H_    0.434357 0.364412 0.112234 0.137818
N1    N     N_R   0.055660 0.348550 0.045620 -0.043221
N2    N     N_R   0.185200 0.638170 0.176300 -0.070095
N3    N     N_R   0.201680 0.494570 0.045620 -0.057774
N4    N     N_R   0.798320 0.505430 0.954380 -0.058601
N5    N     N_R   0.068420 0.560530 0.871650 -0.101194
N6    N     N_R   0.931580 0.439470 0.128350 -0.097689
N7    N     N_R   0.948070 0.295860 0.997670 -0.035688
N8    N     N_R   0.051930 0.704140 0.002330 -0.038599
N9    N     N_2   0.493813 0.461188 0.418043 -0.114368
N10   N     N_2   0.616673 0.631811 0.670778 -0.115556
N11   N     N_2   0.243257 0.466828 0.554344 -0.113419
N12   N     N_R   0.944340 0.651450 0.954380 -0.036692
N13   N     N_2   0.761979 0.240135 0.379519 -0.117387
N14   N     N_2   0.357801 0.678617 0.999081 -0.102743
N15   N     N_2   0.678641 0.391154 0.069677 -0.104642
N16   N     N_2   0.692029 0.359115 0.691946 -0.079092
N17   N     N_2   0.283016 0.677953 0.334004 -0.114186
N18   N     N_R   0.960830 0.507850 0.823700 -0.070402
N19   N     N_R   0.039170 0.492150 0.176300 -0.076687
N20   N     N_R   0.811290 0.303410 0.871650 -0.055546
N21   N     N_R   0.188710 0.696590 0.128350 -0.056583
N22   N     N_R   0.205200 0.552990 0.997670 -0.066529
N23   N     N_R   0.794800 0.447010 0.002330 -0.072982
N24   N     N_R   0.814800 0.361830 0.823700 -0.079702
Ni1   Ni    Ni4+2 0.119340 0.493420 0.109960 0.213062
Ni2   Ni    Ni4+2 0.880660 0.506580 0.890040 0.196049
Ni3   Ni    Ni4+2 0.872590 0.372590 0.000000 0.252294
Ni4   Ni    Ni4+2 0.127410 0.627410 0.000000 0.214723

loop_
_geom_bond_atom_site_label_1
_geom_bond_atom_site_label_2
_ccdc_geom_bond_type
N1    N7    A    
C83   H51   S    
C46   H7    S    
C65   N23   A    
H62   N16   S    
N6    N19   A    
C27   C29   A    
N2    N21   A    
C1    C77   A    
C22   H3    S    
C14   C18   A    
C60   H22   S    
C76   C79   A    
C19   C31   S    
C43   H9    S    
N4    Ni2   S    
C81   H42   S    
N8    Ni4   S    
C15   C19   A    
H36   N9    S    
C88   H33   S    
C57   F1    S    
C75   H31   S    
C15   H71   S    
C19   C21   A    
C24   C26   A    
C80   N9    S    
C38   C42   A    
C55   F2    S    
C24   H4    S    
C69   N16   S    
C83   H52   S    
C11   C14   A    
C16   N18   A    
C57   C59   A    
C21   H2    S    
C11   C25   A    
C74   F4    S    
C49   C54   A    
C20   H72   S    
C12   C79   A    
N19   Ni1   S    
C6    C88   A    
C87   H68   S    
C18   C20   A    
C60   C62   A    
C7    H23   S    
C37   C42   A    
C76   N8    A    
C86   H64   S    
C62   H25   S    
C82   H48   S    
C16   H11   S    
C29   C78   S    
N24   Ni2   S    
C22   C25   A    
H53   N14   S    
C72   C78   A    
C36   C46   A    
C10   C35   A    
C80   H37   S    
C1    N1    A    
N23   Ni3   S    
C30   C67   S    
C44   C47   A    
C12   N12   A    
C84   H57   S    
C9    H20   S    
C27   C32   A    
H44   N11   S    
C3    C79   S    
C80   H39   S    
C71   N3    A    
C9    C33   A    
C72   N4    A    
C85   H61   S    
C23   C73   A    
C5    C68   S    
C42   H10   S    
C86   N16   S    
C39   N13   S    
C52   C54   A    
C81   H43   S    
C40   C45   A    
N3    Ni1   S    
C46   C48   A    
C50   C53   A    
C80   H38   S    
C7    C33   A    
C45   C69   A    
C76   H32   S    
C64   C67   A    
C62   C66   A    
C73   F3    S    
C4    C6    A    
C63   H26   S    
C83   N13   S    
C39   C43   A    
C65   N15   S    
C52   H19   S    
C58   C59   A    
C23   C37   S    
N3    N22   A    
N6    Ni3   S    
C1    H1    S    
C50   C56   S    
N20   N24   A    
C51   C53   A    
C8    C35   A    
C2    C4    A    
C86   H63   S    
C85   H59   S    
C41   C56   A    
C82   H47   S    
C17   H13   S    
C64   N14   S    
H66   N17   S    
C17   N19   A    
C70   N17   S    
N12   Ni2   S    
C47   C48   A    
C45   C49   S    
C85   N15   S    
C87   H70   S    
C61   H24   S    
C61   C63   A    
N20   Ni3   S    
N7    Ni3   S    
H40   N10   S    
C84   N14   S    
C75   C77   A    
C69   N24   A    
C10   H21   S    
C52   C58   A    
C34   C74   A    
C8    H34   S    
C87   H69   S    
C20   C22   A    
C8    C68   A    
C16   C23   A    
C56   C70   A    
N1    Ni1   S    
C13   C15   A    
C75   N7    A    
H49   N13   S    
C13   C26   A    
C21   C24   A    
C10   C61   A    
C18   C32   S    
C17   C34   A    
C73   N5    A    
C41   N21   A    
N21   Ni4   S    
C39   C47   A    
C84   H55   S    
C28   H6    S    
C63   C68   A    
C27   H5    S    
C65   C78   A    
C72   H30   S    
C3    C88   A    
C38   C48   A    
C81   H41   S    
C71   H29   S    
C28   C31   A    
C33   H14   S    
C3    C5    A    
C87   N17   S    
C83   H50   S    
C12   H12   S    
C84   H54   S    
C51   H18   S    
C50   C55   A    
N5    Ni4   S    
C54   H16   S    
C14   H67   S    
N2    Ni1   S    
C81   N10   S    
C9    C60   A    
C37   C44   A    
C28   C30   A    
C11   H45   S    
C85   H60   S    
C4    C77   S    
C29   C31   A    
C2    H35   S    
C7    C66   A    
C30   C32   A    
C44   H8    S    
C38   N11   S    
C49   C57   A    
C34   C36   S    
C67   C71   A    
C41   H28   S    
N22   Ni4   S    
C86   H65   S    
N5    N18   A    
C74   N6    A    
C70   N2    A    
C35   H15   S    
C2    C5    A    
C25   N9    S    
C6    C66   S    
C40   H27   S    
C51   C59   A    
C82   N11   S    
C82   H46   S    
C55   C58   A    
N4    N23   A    
C26   N10   S    
C36   C43   A    
C53   H17   S    
N18   Ni2   S    
C13   H56   S    
C64   N22   A    
N8    N12   A    
H58   N15   S    
C40   N20   A    
