data_str_m12_o24_o24_f0_bcu.sym.49
_audit_creation_date              2012-12-11T16:07:20-0500
_audit_creation_method            fapswitch 2.2
_symmetry_space_group_name_H-M    P1
_symmetry_Int_Tables_number       1
_space_group_crystal_system       triclinic
_cell_length_a                    17.392608
_cell_length_b                    17.394884
_cell_length_c                    17.532183
_cell_angle_alpha                 89.972605
_cell_angle_beta                  89.998454
_cell_angle_gamma                 90.027205
_cell_volume                      5304.22749163

loop_
_atom_site_label
_atom_site_type_symbol
_atom_type_description
_atom_site_fract_x
_atom_site_fract_y
_atom_site_fract_z
_atom_type_partial_charge
C1    C     C_R   0.405813 0.682625 0.632341 -0.082798
C2    C     C_R   0.589349 0.684613 0.630586 -0.048232
C3    C     C_3   0.730845 0.220884 0.681498 -0.453394
C4    C     C_3   0.776200 0.728274 0.314600 -0.493652
C5    C     C_3   0.220590 0.269582 0.682342 -0.414218
C6    C     C_3   0.732876 0.218209 0.320473 -0.464382
C7    C     C_3   0.269066 0.779764 0.682004 -0.410842
C8    C     C_3   0.719873 0.768944 0.818127 -0.501742
C9    C     C_3   0.281337 0.232724 0.179476 -0.423115
C10   C     C_3   0.770055 0.277990 0.817055 -0.486644
C11   C     C_3   0.226844 0.722641 0.186983 -0.425117
C12   C     C_3   0.278990 0.230540 0.817483 -0.499521
C13   C     C_R   0.686546 0.408959 0.371874 -0.045854
C14   C     C_3   0.718694 0.767147 0.179097 -0.413949
C15   C     C_3   0.230249 0.720970 0.817090 -0.496822
C16   C     C_3   0.772317 0.277635 0.185895 -0.426871
C17   C     C_R   0.314825 0.589817 0.629935 -0.047763
C18   C     C_R   0.587746 0.683077 0.367444 -0.054384
C19   C     C_R   0.410403 0.315185 0.630389 -0.051413
C20   C     C_R   0.313362 0.591170 0.371987 -0.050132
C21   C     C_R   0.684664 0.410526 0.630610 -0.049183
C22   C     C_R   0.907493 0.181075 0.134231 -0.078194
C23   C     C_R   0.093703 0.817847 0.867067 -0.080611
C24   C     C_R   0.183580 0.095133 0.131178 -0.083702
C25   C     C_R   0.595625 0.316114 0.369338 -0.079038
C26   C     C_R   0.817158 0.905465 0.867946 -0.081679
C27   C     C_R   0.092342 0.819155 0.134536 -0.082767
C28   C     C_R   0.906873 0.181589 0.866255 -0.075653
C29   C     C_R   0.816472 0.904918 0.131278 -0.084495
C30   C     C_R   0.182179 0.093806 0.867065 -0.084656
C31   C     C_R   0.910022 0.814588 0.870415 -0.055760
C32   C     C_R   0.090801 0.186024 0.128812 -0.049899
C33   C     C_R   0.184813 0.910546 0.869596 -0.054290
C34   C     C_R   0.816351 0.088395 0.131809 -0.045699
C35   C     C_R   0.089567 0.184893 0.869711 -0.059667
C36   C     C_R   0.682137 0.593659 0.632975 -0.084410
C37   C     C_R   0.909259 0.814047 0.128976 -0.050164
C38   C     C_R   0.815912 0.088821 0.868638 -0.058834
C39   C     C_R   0.183478 0.911831 0.131989 -0.047314
C40   C     C_3   0.303507 0.292591 0.283623 -0.268623
C41   C     C_3   0.698555 0.708978 0.713915 -0.276954
C42   C     C_3   0.287135 0.701833 0.291088 -0.264927
C43   C     C_3   0.709547 0.300776 0.713384 -0.250771
C44   C     C_3   0.696130 0.706984 0.283041 -0.272470
C45   C     C_3   0.300918 0.290587 0.713391 -0.275031
C46   C     C_3   0.712382 0.298887 0.290110 -0.300022
C47   C     C_R   0.319212 0.407617 0.365395 -0.087707
C48   C     C_3   0.290014 0.699342 0.712778 -0.276120
C49   C     C_3   0.800545 0.789493 0.787735 -0.274198
C50   C     C_3   0.201140 0.211488 0.210711 -0.273599
C51   C     C_3   0.791388 0.198066 0.785150 -0.276132
C52   C     C_3   0.206916 0.803675 0.216768 -0.276828
C53   C     C_3   0.198672 0.209523 0.786420 -0.272018
C54   C     C_3   0.798767 0.788365 0.210677 -0.274941
C55   C     C_3   0.209311 0.801403 0.786289 -0.273675
C56   C     C_3   0.792804 0.196911 0.216206 -0.297945
C57   C     C_R   0.338868 0.654808 0.665519 0.223156
C58   C     C_R   0.593689 0.317757 0.632949 -0.076531
C59   C     C_R   0.663260 0.343364 0.337077 0.231919
C60   C     C_R   0.654096 0.660300 0.666436 0.224585
C61   C     C_R   0.347853 0.341493 0.331207 0.232385
C62   C     C_R   0.660416 0.345676 0.666493 0.219695
C63   C     C_R   0.336365 0.657147 0.337687 0.222970
C64   C     C_R   0.345611 0.339458 0.666222 0.224391
C65   C     C_R   0.651712 0.658065 0.330626 0.233383
C66   C     C_R   0.841255 0.152611 0.168282 0.226984
C67   C     C_R   0.160497 0.845842 0.833689 0.229162
C68   C     C_R   0.156262 0.162443 0.163872 0.223103
C69   C     C_R   0.404079 0.684257 0.369798 -0.080781
C70   C     C_R   0.844935 0.838429 0.834985 0.234289
C71   C     C_R   0.158478 0.847782 0.168663 0.225584
C72   C     C_R   0.840455 0.153328 0.832330 0.212989
C73   C     C_R   0.843779 0.837590 0.164031 0.224289
C74   C     C_R   0.154199 0.160594 0.833716 0.232767
C75   C     C_3   0.732103 0.685686 0.790544 0.434936
C76   C     C_3   0.268818 0.315792 0.207534 0.484772
C77   C     C_3   0.686835 0.265516 0.789453 0.440700
C78   C     C_3   0.310197 0.734464 0.214037 0.486645
C79   C     C_3   0.266553 0.313717 0.789709 0.436828
C80   C     C_R   0.317732 0.406250 0.632852 -0.083189
C81   C     C_3   0.731150 0.683964 0.207052 0.476967
C82   C     C_3   0.313380 0.733387 0.789167 0.436630
C83   C     C_3   0.689107 0.265627 0.213399 0.496324
C84   C     C_3   0.795552 0.311074 0.263802 0.438303
C85   C     C_3   0.206892 0.687077 0.739353 0.411931
C86   C     C_3   0.684019 0.790198 0.256652 0.431573
C87   C     C_3   0.313122 0.207405 0.739779 0.412089
C88   C     C_3   0.203793 0.689945 0.265263 0.429788
C89   C     C_3   0.792762 0.313100 0.739629 0.438660
C90   C     C_3   0.315727 0.209451 0.257107 0.434808
C91   C     C_R   0.680495 0.592101 0.365053 -0.087476
C92   C     C_3   0.686565 0.792220 0.740091 0.411176
C93   C     C_3   0.235644 0.188246 0.286952 0.442633
C94   C     C_3   0.767134 0.812718 0.711091 0.501355
C95   C     C_3   0.183779 0.770788 0.293737 0.437883
C96   C     C_3   0.814079 0.233358 0.709099 0.413691
C97   C     C_3   0.763962 0.811357 0.286815 0.437737
C98   C     C_3   0.232907 0.186438 0.710111 0.484631
C99   C     C_3   0.816199 0.230525 0.292776 0.486305
C100  C     C_3   0.185963 0.767387 0.709943 0.483679
C101  C     C_3   0.292419 0.813663 0.759742 0.433278
C102  C     C_R   0.411930 0.316594 0.367891 -0.054731
C103  C     C_3   0.709474 0.185000 0.242365 0.402348
C104  C     C_3   0.186393 0.292646 0.760016 0.434557
C105  C     C_3   0.811040 0.705278 0.237241 0.415907
C106  C     C_3   0.708147 0.185778 0.758944 0.436336
C107  C     C_3   0.290415 0.815365 0.242474 0.409162
C108  C     C_3   0.812641 0.706312 0.761529 0.433020
C109  C     C_3   0.188800 0.294475 0.237422 0.412730
C110  C     C_3   0.223314 0.271276 0.314874 -0.502579
C111  C     C_3   0.779254 0.729536 0.683544 -0.414779
C112  C     C_3   0.267282 0.782816 0.320957 -0.493504
H1    H     H_    0.432435 0.737849 0.641778 0.172876
H2    H     H_    0.560339 0.738839 0.634895 0.169559
H3    H     H_    0.741241 0.437447 0.368976 0.164811
H4    H     H_    0.260421 0.560976 0.633831 0.169150
H5    H     H_    0.558265 0.736965 0.362037 0.166258
H6    H     H_    0.439182 0.260804 0.634446 0.169627
H7    H     H_    0.258863 0.562359 0.368692 0.173900
H8    H     H_    0.738988 0.439429 0.634856 0.169117
H9    H     H_    0.934687 0.235844 0.144590 0.174532
H10   H     H_    0.066859 0.762792 0.857285 0.158407
H11   H     H_    0.239078 0.068882 0.139983 0.172084
H12   H     H_    0.569339 0.260618 0.360540 0.154045
H13   H     H_    0.761865 0.931932 0.858563 0.157031
H14   H     H_    0.065171 0.764393 0.145076 0.165662
H15   H     H_    0.933607 0.236669 0.856342 0.157450
H16   H     H_    0.760994 0.931203 0.140086 0.172115
H17   H     H_    0.237294 0.067116 0.857321 0.157636
H18   H     H_    0.938842 0.760181 0.866711 0.165687
H19   H     H_    0.062346 0.240669 0.132054 0.167821
H20   H     H_    0.239218 0.939378 0.865488 0.165395
H21   H     H_    0.762326 0.059087 0.136850 0.170350
H22   H     H_    0.060951 0.239383 0.865889 0.165799
H23   H     H_    0.737260 0.566972 0.642699 0.172749
H24   H     H_    0.937797 0.759465 0.132408 0.167940
H25   H     H_    0.761699 0.059740 0.864003 0.168692
H26   H     H_    0.237485 0.941150 0.136997 0.169854
H27   H     H_    0.200864 0.288057 0.371804 0.193369
H28   H     H_    0.802507 0.712647 0.626928 0.231272
H29   H     H_    0.284852 0.805998 0.377356 0.196124
H30   H     H_    0.713910 0.198495 0.624555 0.232651
H31   H     H_    0.798462 0.711377 0.371586 0.197372
H32   H     H_    0.197752 0.286363 0.625514 0.228376
H33   H     H_    0.716158 0.195153 0.377224 0.218455
H34   H     H_    0.264457 0.434752 0.354876 0.161788
H35   H     H_    0.285701 0.802775 0.625194 0.230332
H36   H     H_    0.696949 0.786154 0.874737 0.196970
H37   H     H_    0.304079 0.216246 0.122540 0.224459
H38   H     H_    0.787035 0.300164 0.874037 0.196034
H39   H     H_    0.209589 0.698967 0.130643 0.232189
H40   H     H_    0.301566 0.213577 0.874324 0.195385
H41   H     H_    0.696162 0.783844 0.122128 0.228974
H42   H     H_    0.213379 0.698254 0.873911 0.198901
H43   H     H_    0.789264 0.300910 0.129273 0.229153
H44   H     H_    0.650826 0.670102 0.943323 0.358068
H45   H     H_    0.567014 0.262572 0.642498 0.173323
H46   H     H_    0.395355 0.412793 0.072220 0.407293
H47   H     H_    0.668158 0.339120 0.947792 0.362544
H48   H     H_    0.399166 0.605285 0.075897 0.402988
H49   H     H_    0.344308 0.331485 0.945361 0.355045
H50   H     H_    0.606832 0.588175 0.069087 0.411543
H51   H     H_    0.331013 0.653894 0.943926 0.358568
H52   H     H_    0.536934 0.253822 0.068538 0.406641
H53   H     H_    0.942027 0.440043 0.189068 0.438623
H54   H     H_    0.103659 0.603094 0.854451 0.364701
H55   H     H_    0.558705 0.941543 0.185505 0.424764
H56   H     H_    0.430206 0.739892 0.361318 0.153754
H57   H     H_    0.396506 0.103678 0.854754 0.360633
H58   H     H_    0.057943 0.567179 0.344562 0.420710
H59   H     H_    0.897017 0.395241 0.854940 0.363002
H60   H     H_    0.441563 0.058555 0.185789 0.424763
H61   H     H_    0.603660 0.897382 0.853918 0.362287
H62   H     H_    0.157857 0.171362 0.442823 0.353672
H63   H     H_    0.893868 0.904204 0.572145 0.405750
H64   H     H_    0.168692 0.857881 0.442813 0.359048
H65   H     H_    0.839097 0.093576 0.621932 0.383109
H66   H     H_    0.839496 0.828234 0.444112 0.358119
H67   H     H_    0.262625 0.433006 0.642508 0.172702
H68   H     H_    0.107747 0.094094 0.570394 0.408435
H69   H     H_    0.970662 0.247657 0.434273 0.405622
H70   H     H_    0.092185 0.894424 0.572961 0.403060
H71   H     H_    0.441796 0.940754 0.687233 0.425832
H72   H     H_    0.603066 0.103398 0.355617 0.362327
H73   H     H_    0.058466 0.441153 0.687318 0.425279
H74   H     H_    0.895544 0.603546 0.354446 0.351550
H75   H     H_    0.558577 0.059113 0.686266 0.426144
H76   H     H_    0.397633 0.897539 0.354713 0.362274
H77   H     H_    0.940385 0.558637 0.687947 0.425208
H78   H     H_    0.735212 0.564942 0.354452 0.161840
H79   H     H_    0.102842 0.395262 0.354405 0.353376
H80   H     H_    0.441248 0.262581 0.362808 0.166757
N1    N     N_R   0.424590 0.632770 0.578330 -0.066393
N2    N     N_R   0.575410 0.632770 0.578330 -0.068791
N3    N     N_R   0.632770 0.424590 0.421670 -0.068991
N4    N     N_R   0.367230 0.575410 0.578330 -0.068895
N5    N     N_R   0.575410 0.632770 0.421670 -0.068900
N6    N     N_R   0.424590 0.367230 0.578330 -0.068783
N7    N     N_R   0.367230 0.575410 0.421670 -0.068727
N8    N     N_R   0.632770 0.424590 0.578330 -0.068541
N9    N     N_R   0.924590 0.132770 0.078330 -0.067376
N10   N     N_R   0.075410 0.867230 0.921670 -0.065768
N11   N     N_R   0.132770 0.075410 0.078330 -0.065961
N12   N     N_R   0.575410 0.367230 0.421670 -0.065089
N13   N     N_R   0.867230 0.924590 0.921670 -0.066257
N14   N     N_R   0.075410 0.867230 0.078330 -0.066030
N15   N     N_R   0.924590 0.132770 0.921670 -0.065932
N16   N     N_R   0.867230 0.924590 0.078330 -0.066051
N17   N     N_R   0.132770 0.075410 0.921670 -0.066028
N18   N     N_R   0.924590 0.867230 0.921670 -0.068880
N19   N     N_R   0.075410 0.132770 0.078330 -0.068271
N20   N     N_R   0.132770 0.924590 0.921670 -0.068368
N21   N     N_R   0.867230 0.075410 0.078330 -0.069622
N22   N     N_R   0.075410 0.132770 0.921670 -0.068682
N23   N     N_R   0.632770 0.575410 0.578330 -0.066275
N24   N     N_R   0.924590 0.867230 0.078330 -0.068431
N25   N     N_R   0.867230 0.075410 0.921670 -0.066872
N26   N     N_R   0.132770 0.924590 0.078330 -0.069445
N27   N     N_R   0.367230 0.424590 0.421670 -0.066753
N28   N     N_R   0.575410 0.367230 0.578330 -0.066764
N29   N     N_R   0.424590 0.632770 0.421670 -0.064790
N30   N     N_R   0.367230 0.424590 0.578330 -0.066294
N31   N     N_R   0.632770 0.575410 0.421670 -0.066946
N32   N     N_R   0.424590 0.367230 0.421670 -0.068864
Ni1   Ni    Ni4+2 0.500000 0.631570 0.500000 0.258273
Ni2   Ni    Ni4+2 0.500000 0.368430 0.500000 0.259520
Ni3   Ni    Ni4+2 0.631570 0.500000 0.500000 0.258508
Ni4   Ni    Ni4+2 0.368430 0.500000 0.500000 0.257476
Ni5   Ni    Ni4+2 0.000000 0.131570 0.000000 0.257357
Ni6   Ni    Ni4+2 1.000000 0.868430 0.000000 0.258441
Ni7   Ni    Ni4+2 0.131570 0.000000 0.000000 0.257099
Ni8   Ni    Ni4+2 0.868430 0.000000 0.000000 0.257984
O1    O     O_2   0.670281 0.542997 0.799118 -0.179033
O2    O     O_2   0.415497 0.761979 0.103827 -0.176534
O3    O     O_2   0.451716 0.670215 0.204172 -0.229548
O4    O     O_3   0.353374 0.626240 0.102272 -0.482017
O5    O     O_2   0.328408 0.456384 0.798947 -0.178198
O6    O     O_2   0.233360 0.421650 0.896107 -0.186771
O7    O     O_3   0.369922 0.361930 0.904926 -0.424496
O8    O     O_2   0.763815 0.579392 0.097985 -0.178945
O9    O     O_2   0.673630 0.539684 0.198456 -0.218985
O10   O     O_3   0.625163 0.634979 0.095637 -0.483327
O11   O     O_2   0.456168 0.671782 0.797995 -0.179309
O12   O     O_2   0.763211 0.578282 0.898110 -0.184974
O13   O     O_2   0.421145 0.765640 0.896097 -0.189876
O14   O     O_3   0.361650 0.628842 0.903336 -0.419626
O15   O     O_2   0.547499 0.329805 0.204040 -0.223486
O16   O     O_2   0.641382 0.365492 0.106736 -0.226005
O17   O     O_3   0.579463 0.230144 0.097871 -0.440384
O18   O     O_2   0.801868 0.462476 0.241086 -0.209503
O19   O     O_2   0.888577 0.410145 0.338830 -0.206989
O20   O     O_3   0.921050 0.387471 0.195414 -0.456029
O21   O     O_2   0.114085 0.590140 0.662094 -0.227335
O22   O     O_2   0.197410 0.534783 0.760560 -0.212957
O23   O     O_3   0.626345 0.637753 0.903706 -0.416529
O24   O     O_3   0.078448 0.611627 0.804515 -0.427304
O25   O     O_2   0.532822 0.799651 0.232839 -0.197819
O26   O     O_2   0.586045 0.882595 0.333215 -0.205842
O27   O     O_3   0.610635 0.918858 0.191079 -0.463259
O28   O     O_2   0.410129 0.114817 0.662479 -0.225730
O29   O     O_2   0.465351 0.197731 0.761325 -0.212344
O30   O     O_3   0.388113 0.078669 0.804707 -0.428627
O31   O     O_2   0.081602 0.615683 0.208950 -0.196613
O32   O     O_2   0.193724 0.538743 0.241103 -0.173923
O33   O     O_3   0.109500 0.589782 0.353137 -0.489608
O34   O     O_2   0.238124 0.417770 0.095470 -0.178868
O35   O     O_2   0.883725 0.412407 0.663089 -0.231297
O36   O     O_2   0.801314 0.464833 0.763778 -0.211543
O37   O     O_3   0.921578 0.388079 0.804482 -0.427047
O38   O     O_2   0.467139 0.200312 0.234154 -0.210635
O39   O     O_2   0.413325 0.116362 0.333456 -0.202823
O40   O     O_3   0.389703 0.081525 0.190817 -0.466189
O41   O     O_2   0.590199 0.884657 0.661742 -0.225520
O42   O     O_2   0.534453 0.802926 0.761387 -0.212371
O43   O     O_3   0.612329 0.921895 0.803652 -0.425936
O44   O     O_2   0.172521 0.046095 0.296811 -0.179502
O45   O     O_2   0.322435 0.461592 0.199174 -0.223025
O46   O     O_2   0.267986 0.080265 0.393771 -0.188386
O47   O     O_3   0.131962 0.141168 0.402415 -0.441804
O48   O     O_2   0.737953 0.919130 0.602431 -0.187036
O49   O     O_2   0.830272 0.954660 0.702507 -0.267162
O50   O     O_3   0.874165 0.858095 0.598966 -0.479474
O51   O     O_2   0.039955 0.829718 0.301227 -0.177844
O52   O     O_2   0.078148 0.741656 0.403475 -0.192617
O53   O     O_3   0.134768 0.879928 0.403075 -0.417137
O54   O     O_2   0.923330 0.268616 0.605045 -0.154993
O55   O     O_2   0.955481 0.168319 0.697891 -0.222919
O56   O     O_3   0.378278 0.366289 0.100123 -0.496230
O57   O     O_3   0.860444 0.134754 0.589133 -0.436847
O58   O     O_2   0.828059 0.952999 0.297353 -0.184551
O59   O     O_2   0.730921 0.919683 0.393000 -0.186029
O60   O     O_3   0.866287 0.857703 0.403717 -0.420449
O61   O     O_2   0.263480 0.080737 0.601243 -0.179851
O62   O     O_2   0.171351 0.043712 0.700974 -0.225657
O63   O     O_3   0.126612 0.140247 0.597690 -0.482189
O64   O     O_2   0.867851 0.131526 0.398445 -0.167705
O65   O     O_2   0.959780 0.171189 0.300585 -0.218464
O66   O     O_3   0.925177 0.268938 0.407636 -0.437599
O67   O     O_2   0.544771 0.328440 0.799880 -0.178262
O68   O     O_2   0.080785 0.737239 0.600438 -0.175305
O69   O     O_2   0.042544 0.827287 0.701457 -0.226437
O70   O     O_3   0.138748 0.874871 0.599078 -0.484720
O71   O     O_2   0.300635 0.965116 0.737120 -0.202910
O72   O     O_2   0.385643 0.911619 0.835684 -0.205039
O73   O     O_3   0.419496 0.888626 0.692681 -0.461725
O74   O     O_2   0.616887 0.089072 0.163543 -0.217838
O75   O     O_2   0.697509 0.032867 0.263596 -0.209833
O76   O     O_3   0.578817 0.111510 0.305145 -0.426718
O77   O     O_2   0.034929 0.299598 0.737301 -0.207288
O78   O     O_2   0.578093 0.230552 0.894688 -0.212634
O79   O     O_2   0.087770 0.385265 0.835679 -0.202869
O80   O     O_3   0.110684 0.419075 0.692642 -0.463148
O81   O     O_2   0.911877 0.614277 0.162538 -0.194957
O82   O     O_2   0.962236 0.699314 0.262306 -0.234948
O83   O     O_3   0.887196 0.578396 0.304461 -0.448050
O84   O     O_2   0.700399 0.034660 0.734449 -0.222115
O85   O     O_2   0.616112 0.086411 0.834486 -0.201821
O86   O     O_3   0.580693 0.111263 0.692185 -0.459945
O87   O     O_2   0.383460 0.909955 0.162537 -0.226138
O88   O     O_2   0.303448 0.967575 0.262324 -0.210476
O89   O     O_3   0.639210 0.366202 0.907231 -0.407612
O90   O     O_3   0.421644 0.888450 0.304300 -0.428117
O91   O     O_2   0.964084 0.698396 0.739292 -0.205731
O92   O     O_2   0.910512 0.613273 0.837838 -0.201627
O93   O     O_3   0.887820 0.579437 0.694762 -0.460525
O94   O     O_2   0.090689 0.387479 0.162052 -0.190380
O95   O     O_2   0.036761 0.301924 0.259628 -0.229818
O96   O     O_3   0.112723 0.420985 0.304958 -0.445398
S1    S     S_3+6 0.699205 0.607397 0.848365 0.106751
S2    S     S_3+6 0.148772 0.602709 0.739531 0.048901
S3    S     S_3+6 0.599954 0.848487 0.255750 0.068476
S4    S     S_3+6 0.397394 0.149230 0.739992 0.048194
S5    S     S_3+6 0.145578 0.605764 0.265547 0.070402
S6    S     S_3+6 0.850253 0.397837 0.740714 0.047828
S7    S     S_3+6 0.399879 0.151233 0.256213 0.062459
S8    S     S_3+6 0.602671 0.850862 0.739599 0.049194
S9    S     S_3+6 0.203256 0.110148 0.345424 0.099688
S10   S     S_3+6 0.801263 0.890330 0.653189 0.054692
S11   S     S_3+6 0.105419 0.804262 0.350985 0.100747
S12   S     S_3+6 0.300622 0.394474 0.149886 0.068689
S13   S     S_3+6 0.892243 0.202155 0.650179 0.089373
S14   S     S_3+6 0.796103 0.889235 0.345633 0.104444
S15   S     S_3+6 0.199750 0.108612 0.651969 0.072009
S16   S     S_3+6 0.894722 0.197807 0.350299 0.101063
S17   S     S_3+6 0.107849 0.800504 0.652164 0.073686
S18   S     S_3+6 0.350265 0.898132 0.758689 0.068417
S19   S     S_3+6 0.650257 0.101411 0.241567 0.053812
S20   S     S_3+6 0.101551 0.349859 0.758764 0.066879
S21   S     S_3+6 0.896286 0.648773 0.239514 0.049385
S22   S     S_3+6 0.650665 0.101106 0.757328 0.057438
S23   S     S_3+6 0.608455 0.296476 0.848215 0.096811
S24   S     S_3+6 0.350171 0.898538 0.240763 0.048111
S25   S     S_3+6 0.897128 0.648616 0.760791 0.068898
S26   S     S_3+6 0.104011 0.351700 0.238894 0.055269
S27   S     S_3+6 0.386892 0.699313 0.155513 0.072508
S28   S     S_3+6 0.298347 0.392195 0.847862 0.103324
S29   S     S_3+6 0.699662 0.605366 0.149195 0.078038
S30   S     S_3+6 0.391863 0.701140 0.847102 0.104002
S31   S     S_3+6 0.611955 0.300458 0.155088 0.071696
S32   S     S_3+6 0.852533 0.396120 0.262243 0.069585

loop_
_geom_bond_atom_site_label_1
_geom_bond_atom_site_label_2
_ccdc_geom_bond_type
C109  S26   S    
N4    Ni4   S    
C107  C112  S    
C39   N26   A    
C25   N12   A    
C82   S30   S    
C102  N32   A    
C35   C74   A    
O24   S2    S    
C18   C65   A    
C9    H37   S    
C43   C89   S    
C29   N16   A    
O55   S13   D    
C45   C87   S    
O82   S21   D    
O53   S11   S    
C31   H18   S    
C36   N23   A    
N29   Ni1   S    
C94   C111  S    
C16   C84   S    
N17   Ni7   S    
C15   H42   S    
O75   S19   D    
H61   O43   S    
O5    S28   D    
C31   C70   A    
O36   S6    D    
C55   C100  S    
O67   S23   D    
C8    C92   S    
C15   C82   S    
O69   S17   D    
C54   C105  S    
C93   C110  S    
C15   C85   S    
C75   S1    S    
C47   H34   S    
O50   S10   S    
O81   S21   D    
O44   S9    D    
H55   O27   S    
O10   S29   S    
C10   C51   S    
C35   H22   S    
C23   H10   S    
C81   C105  S    
O95   S26   D    
N15   N25   A    
C44   C81   S    
N2    N23   A    
N15   Ni5   S    
O96   S26   S    
C101  S18   S    
O8    S29   D    
C40   C76   S    
N8    Ni3   S    
C1    N1    A    
C16   H43   S    
C92   C94   S    
O20   S32   S    
C21   C62   A    
C13   H3    S    
N16   Ni8   S    
C46   C84   S    
O7    S28   S    
H68   O63   S    
O49   S10   D    
N8    N28   A    
C36   H23   S    
C27   C71   A    
C90   C93   S    
C65   C91   A    
C19   N6    A    
C22   N9    A    
O61   S15   D    
O19   S32   D    
C56   C103  S    
C34   N21   A    
O3    S27   D    
C9    C90   S    
C108  C111  S    
C30   H17   S    
H65   O57   S    
O4    S27   S    
N3    Ni3   S    
O40   S7    S    
C7    C48   S    
H70   O70   S    
C89   C96   S    
O51   S11   D    
C69   H56   S    
N1    Ni1   S    
C2    H2    S    
O14   S30   S    
C56   C66   S    
O59   S14   D    
C69   N29   A    
C24   H11   S    
C35   N22   A    
O28   S4    D    
O91   S25   D    
C79   S28   S    
O80   S20   S    
H48   O4    S    
H47   O89   S    
C39   C71   A    
O2    S27   D    
C14   C81   S    
N22   Ni5   S    
C77   S23   S    
N6    Ni2   S    
C12   H40   S    
O63   S15   S    
C34   C66   A    
H51   O14   S    
C48   C57   S    
O22   S2    D    
C83   C103  S    
C105  S21   S    
N2    Ni1   S    
C77   C106  S    
C30   C74   A    
C27   H14   S    
N31   Ni3   S    
C53   C104  S    
O13   S30   D    
H72   O76   S    
C23   C67   A    
C86   C97   S    
O48   S10   D    
O92   S25   D    
N27   N32   A    
C58   N28   A    
C63   C69   A    
C19   H6    S    
C76   C109  S    
N27   Ni4   S    
N7    Ni4   S    
C37   N24   A    
C12   C53   S    
C28   H15   S    
C88   S5    S    
N9    Ni5   S    
H62   O47   S    
C39   H26   S    
C4    C97   S    
H58   O33   S    
N11   N19   A    
C44   C65   S    
C85   S2    S    
C49   C108  S    
C7    H35   S    
C38   C72   A    
O21   S2    D    
H66   O60   S    
O25   S3    D    
C80   H67   S    
C14   C86   S    
C32   N19   A    
O87   S24   D    
H73   O80   S    
C40   C61   S    
C15   C55   S    
C112  H29   S    
C16   C56   S    
O79   S20   D    
O35   S6    D    
C1    C57   A    
O1    S1    D    
N1    N4    A    
O77   S20   D    
O12   S1    D    
H76   O90   S    
C33   H20   S    
C11   H39   S    
C9    C76   S    
O66   S16   S    
C90   S7    S    
O11   S30   D    
C96   S13   S    
C41   C60   S    
N5    N31   A    
C58   H45   S    
O9    S29   D    
C92   S8    S    
C53   C98   S    
C45   C64   S    
C89   S6    S    
O64   S16   D    
C20   C63   A    
O6    S28   D    
N13   N18   A    
C8    C49   S    
O16   S31   D    
O34   S12   D    
C100  S17   S    
N23   Ni3   S    
C93   S9    S    
C88   C95   S    
C80   N30   A    
O42   S8    D    
C41   C111  S    
C17   N4    A    
O83   S21   S    
C56   C99   S    
C32   H19   S    
O94   S26   D    
C58   C62   A    
C24   N11   A    
O17   S31   S    
H53   O20   S    
C64   C80   A    
C53   C74   S    
H60   O40   S    
C30   N17   A    
O70   S17   S    
C8    H36   S    
O23   S1    S    
N13   Ni8   S    
C1    H1    S    
C110  H27   S    
C95   C112  S    
N25   Ni8   S    
C33   N20   A    
C2    C60   A    
C12   C79   S    
H79   O96   S    
C52   C95   S    
C11   C52   S    
O39   S7    D    
C52   C107  S    
C102  H80   S    
C54   C97   S    
H63   O50   S    
H50   O10   S    
O47   S9    S    
H64   O53   S    
H44   O23   S    
O31   S5    D    
C87   C98   S    
C75   C108  S    
O72   S18   D    
O52   S11   D    
H71   O73   S    
C38   N25   A    
C28   C72   A    
C111  H28   S    
C94   S10   S    
C3    C106  S    
C7    C100  S    
C23   N10   A    
O88   S24   D    
C78   S27   S    
N20   Ni7   S    
O85   S22   D    
C104  S20   S    
C5    H32   S    
N3    N12   A    
C4    C44   S    
O60   S14   S    
C5    C45   S    
C50   C109  S    
C78   C107  S    
C2    N2    A    
C26   H13   S    
C41   C75   S    
C54   C73   S    
N30   Ni4   S    
C19   C64   A    
C95   S11   S    
N18   Ni6   S    
C37   H24   S    
C45   C79   S    
O33   S5    S    
C6    C103  S    
O54   S13   D    
C18   H5    S    
N9    N21   A    
O78   S23   D    
C13   C59   A    
C49   C70   S    
C26   C70   A    
O71   S18   D    
C26   N13   A    
C51   C72   S    
N12   Ni2   S    
C22   H9    S    
C6    H33   S    
O37   S6    S    
N19   Ni5   S    
H74   O83   S    
C84   C99   S    
C86   S3    S    
N10   N20   A    
C47   C61   A    
C40   C110  S    
O30   S4    S    
H49   O7    S    
O18   S32   D    
N17   N22   A    
O15   S31   D    
C27   N14   A    
H52   O17   S    
C52   C71   S    
C109  C110  S    
C10   H38   S    
N11   Ni7   S    
C31   N18   A    
O29   S4    D    
N28   Ni2   S    
H57   O30   S    
C38   H25   S    
C48   C82   S    
C16   C83   S    
O43   S8    S    
C24   C68   A    
C46   C83   S    
O89   S23   S    
C13   N3    A    
H77   O93   S    
C28   N15   A    
O76   S19   S    
C40   C90   S    
C50   C68   S    
C42   C63   S    
C20   H7    S    
O26   S3    D    
C43   C62   S    
C17   C57   A    
N5    Ni1   S    
C46   C59   S    
N14   Ni6   S    
O73   S18   S    
C4    H31   S    
N14   N26   A    
H46   O56   S    
C3    C43   S    
C106  S22   S    
H69   O66   S    
N6    N30   A    
C21   H8    S    
O58   S14   D    
C84   S32   S    
C29   C73   A    
O41   S8    D    
O57   S13   S    
C22   C66   A    
C42   C112  S    
N24   Ni6   S    
C3    C96   S    
N7    N29   A    
C49   C94   S    
O27   S3    S    
C51   C96   S    
N10   Ni6   S    
C5    C104  S    
N16   N24   A    
C3    H30   S    
C18   N5    A    
C44   C86   S    
C10   C77   S    
O56   S12   S    
C91   H78   S    
O46   S9    D    
C10   C89   S    
C107  S24   S    
C108  S25   S    
C34   H21   S    
O38   S7    D    
C47   N27   A    
C8    C75   S    
C20   N7    A    
C11   C78   S    
O74   S19   D    
H54   O24   S    
O45   S12   D    
C11   C88   S    
C76   S12   S    
C81   S29   S    
N21   Ni8   S    
C83   S31   S    
C14   C54   S    
C42   C78   S    
O86   S22   S    
C14   H41   S    
C7    C101  S    
O32   S5    D    
C79   C104  S    
H59   O37   S    
C42   C88   S    
C21   N8    A    
C33   C67   A    
O90   S24   S    
O65   S16   D    
C37   C73   A    
C6    C46   S    
C12   C87   S    
C9    C50   S    
C103  S19   S    
C36   C60   A    
N32   Ni2   S    
C55   C67   S    
C98   S15   S    
C50   C93   S    
C43   C77   S    
C25   C59   A    
C4    C105  S    
C55   C101  S    
C32   C68   A    
O62   S15   D    
C6    C99   S    
C61   C102  A    
C85   C100  S    
C51   C106  S    
C82   C101  S    
C97   S14   S    
C25   H12   S    
N26   Ni7   S    
C99   S16   S    
C87   S4    S    
C41   C92   S    
C5    C98   S    
C29   H16   S    
C48   C85   S    
H75   O86   S    
C91   N31   A    
O68   S17   D    
C17   H4    S    
O84   S22   D    
O93   S25   S    
