data_str_m2_o18_o24_f0_pcu.sym.96
_audit_creation_date              2013-03-05T16:00:58-0500
_audit_creation_method            fapswitch 2.2
_symmetry_space_group_name_H-M    P1
_symmetry_Int_Tables_number       1
_space_group_crystal_system       triclinic
_cell_length_a                    10.605907
_cell_length_b                    14.895337
_cell_length_c                    14.653038
_cell_angle_alpha                 64.160557
_cell_angle_beta                  106.148515
_cell_angle_gamma                 102.141319
_cell_volume                      1990.56209718

loop_
_atom_site_label
_atom_site_type_symbol
_atom_site_description
_atom_site_fract_x
_atom_site_fract_y
_atom_site_fract_z
_atom_type_partial_charge
O1    O     O_R   0.454850 0.022100 0.338110 -0.571928
O2    O     O_R   0.545150 0.977900 0.661890 -0.625701
O3    O     O_R   0.512700 0.160150 0.379180 -0.518467
O4    O     O_R   0.487300 0.839850 0.620820 -0.587121
C1    C     C_R   0.487511 0.118879 0.311590 0.846509
C2    C     C_R   0.521134 0.880605 0.689225 0.783506
O5    O     O_R   0.287930 0.931000 0.479440 -0.600236
O6    O     O_R   0.712070 0.069000 0.520560 -0.583259
O7    O     O_R   0.345780 0.069050 0.520520 -0.564521
O8    O     O_R   0.654220 0.930950 0.479480 -0.603837
C3    C     C_R   0.260103 0.000223 0.500234 0.863333
C4    C     C_R   0.739866 0.999843 0.499693 0.786401
Cu1   Cu    Cu3+1 0.465750 0.918270 0.475680 0.977007
Cu2   Cu    Cu3+1 0.534250 0.081730 0.524320 0.992671
C5    C     C_3   0.039125 0.910636 0.563770 0.014455
C6    C     C_3   0.960780 0.089784 0.435920 0.039866
C7    C     C_3   0.926264 0.929860 0.467014 -0.233687
C8    C     C_3   0.073589 0.070384 0.532717 -0.175411
H1    H     H_    0.864721 0.872641 0.439734 0.207118
H2    H     H_    0.134371 0.127256 0.560718 0.166808
C9    C     C_3   0.876311 0.999601 0.498939 -0.030223
C10   C     C_3   0.123566 0.000759 0.500730 -0.061072
C11   C     C_3   0.987442 0.978952 0.596500 -0.138293
C12   C     C_3   0.012418 0.021422 0.403122 -0.185613
H3    H     H_    0.974430 0.960720 0.675542 0.175226
H4    H     H_    0.025476 0.039618 0.324103 0.177758
C13   C     C_R   0.487317 0.185900 0.200328 -0.164191
C14   C     C_R   0.530628 0.814312 0.801434 -0.101311
C15   C     C_R   0.417853 0.227289 0.014923 -0.041537
C16   C     C_R   0.559029 0.783380 0.984296 -0.003331
C17   C     C_R   0.447831 0.153720 0.118274 -0.010070
C18   C     C_R   0.545959 0.851313 0.878702 -0.059867
C19   C     C_R   0.532185 0.286467 0.176484 -0.172664
C20   C     C_R   0.517718 0.710659 0.830605 -0.224715
C21   C     C_R   0.486961 0.362105 0.079151 0.086675
C22   C     C_R   0.513725 0.642212 0.932914 0.041106
C23   C     C_R   0.422104 0.330673 0.997067 -0.043048
C24   C     C_R   0.557023 0.678359 0.011985 0.073869
C25   C     C_R   0.507177 0.467076 0.060864 -0.000150
C26   C     C_R   0.472288 0.538258 0.957073 -0.035223
C27   C     C_R   0.384552 0.505329 0.881675 -0.059574
C28   C     C_R   0.559141 0.504466 0.141105 -0.062806
C29   C     C_R   0.362510 0.402461 0.900403 -0.100789
C30   C     C_R   0.592793 0.608535 0.115682 -0.040933
H5    H     H_    0.510272 0.682489 0.772380 0.168644
H6    H     H_    0.605776 0.301818 0.236269 0.205185
N1    N     N_R   0.585750 0.204560 0.560800 -0.229412
N2    N     N_R   0.414250 0.795440 0.439200 -0.237519
C31   C     C_R   0.734237 0.292416 0.661297 -0.082434
C32   C     C_R   0.274249 0.725291 0.320353 -0.151483
C33   C     C_R   0.702406 0.212132 0.628787 0.094572
C34   C     C_R   0.305158 0.798431 0.361491 0.103463
C35   C     C_R   0.503573 0.280524 0.516846 0.170854
C36   C     C_R   0.488167 0.715379 0.484959 0.144043
C37   C     C_R   0.539523 0.368451 0.538806 -0.085354
C38   C     C_R   0.442351 0.627958 0.462584 -0.020940
C39   C     C_R   0.642362 0.363325 0.625615 0.085820
C40   C     C_R   0.336695 0.635487 0.375475 0.098928
C41   C     C_R   0.473175 0.458926 0.482484 0.090228
C42   C     C_R   0.499442 0.534100 0.522342 0.134594
C43   C     C_R   0.572366 0.509463 0.624537 -0.181875
C44   C     C_R   0.381384 0.477247 0.387962 -0.317733
C45   C     C_R   0.644537 0.426416 0.676291 0.025840
C46   C     C_R   0.299854 0.553407 0.345632 0.016013
H7    H     H_    0.569173 0.552642 0.666970 0.119769
H8    H     H_    0.363391 0.429863 0.347418 0.149929
C47   C     C_2   0.623014 0.726672 0.545691 0.359085
H9    H     H_    0.641485 0.753711 0.606106 0.098123
O9    O     O_2   0.716318 0.705112 0.528359 -0.570556
C48   C     C_2   0.364723 0.261360 0.468481 0.374875
H10   H     H_    0.287632 0.265439 0.501626 0.049143
O10   O     O_2   0.334147 0.250375 0.387049 -0.561282
C49   C     C_2   0.217216 0.878574 0.318715 0.416218
H11   H     H_    0.137354 0.869266 0.355974 0.061812
O11   O     O_2   0.225935 0.951021 0.237669 -0.520314
C50   C     C_2   0.793626 0.133964 0.672239 0.405286
H12   H     H_    0.760103 0.056120 0.712779 0.116448
O12   O     O_2   0.907842 0.156095 0.661701 -0.565416
C51   C     C_2   0.867736 0.306172 0.724757 0.524106
H13   H     H_    0.917281 0.241830 0.783498 0.099872
O13   O     O_2   0.924979 0.389981 0.709833 -0.519846
C52   C     C_2   0.185490 0.750117 0.215719 0.561685
H14   H     H_    0.094372 0.782401 0.197705 0.100400
O14   O     O_2   0.216514 0.738965 0.147385 -0.476305
C53   C     C_2   0.086371 0.810860 0.636561 0.371973
H15   H     H_    0.044129 0.744724 0.620992 0.121345
O15   O     O_2   0.173634 0.803986 0.713145 -0.562471
C54   C     C_2   0.915498 0.190570 0.364191 0.404917
H16   H     H_    0.956016 0.255128 0.383002 0.107626
O16   O     O_2   0.831709 0.200153 0.285146 -0.558287
C55   C     C_2   0.260534 0.368530 0.825876 0.465322
H17   H     H_    0.179309 0.313615 0.852750 0.098784
O17   O     O_2   0.271113 0.396764 0.736380 -0.476493
C56   C     C_2   0.676868 0.642882 0.196850 0.521976
H18   H     H_    0.650325 0.617897 0.271180 0.127797
O18   O     O_2   0.777311 0.699582 0.180709 -0.539947
C57   C     C_2   0.537964 0.959237 0.849152 0.369602
H19   H     H_    0.453173 0.995245 0.793160 0.123314
O19   O     O_2   0.627598 0.009098 0.884629 -0.563216
C58   C     C_2   0.462500 0.048226 0.140909 0.519007
H20   H     H_    0.540980 0.009892 0.203436 0.061116
O20   O     O_2   0.387472 0.002275 0.092413 -0.435805
C59   C     C_2   0.401228 0.199900 0.925779 0.409882
H21   H     H_    0.463791 0.240066 0.869939 0.117310
O21   O     O_2   0.311848 0.138522 0.909650 -0.469384
C60   C     C_2   0.551736 0.821477 0.061274 0.439882
H22   H     H_    0.607193 0.891202 0.061932 0.137915
O22   O     O_2   0.480110 0.776087 0.123171 -0.518032
C61   C     C_2   0.293167 0.575660 0.795424 0.390344
H23   H     H_    0.245854 0.623039 0.811976 0.125981
O23   O     O_2   0.275839 0.585147 0.705903 -0.488208
C62   C     C_2   0.557251 0.439032 0.251246 0.261699
H24   H     H_    0.472062 0.385678 0.269074 0.131641
O24   O     O_2   0.652963 0.438010 0.321034 -0.515654
C63   C     C_2   0.704913 0.402169 0.787723 0.391141
H25   H     H_    0.733704 0.461688 0.815625 0.085439
O25   O     O_2   0.716004 0.315607 0.850350 -0.560028
C64   C     C_2   0.171182 0.535462 0.279803 0.441639
H26   H     H_    0.166176 0.501271 0.226687 0.078317
O26   O     O_2   0.068781 0.551766 0.289872 -0.503637

loop_
_geom_bond_atom_site_label_1
_geom_bond_atom_site_label_2
_geom_bond_distance
_ccdc_geom_bond_type
O5    Cu1   1.952716 S    
C6    C9    1.527227 S    
C37   C41   1.448729 A    
C27   C29   1.412885 A    
C49   H11   1.084704 S    
C62   O24   1.221438 D    
C57   H19   1.085549 S    
C31   C39   1.416542 A    
C53   H15   1.084715 S    
C13   C19   1.388837 A    
N2    C36   1.374831 A    
C15   C59   1.486568 S    
O1    C1    1.313621 A    
C21   C23   1.426264 A    
C50   O12   1.221326 D    
C61   O23   1.220524 D    
C60   H22   1.083180 S    
C63   H25   1.085838 S    
C46   C64   1.484357 S    
C18   C57   1.486297 S    
C16   C24   1.431679 A    
O4    Cu1   1.901608 S    
C43   C45   1.396015 A    
C28   C62   1.481096 S    
C64   H26   1.085872 S    
C44   C46   1.385737 A    
C7    H1    1.109084 S    
C1    C13   1.494934 S    
C5    C10   1.526739 S    
C2    C14   1.490994 S    
C31   C33   1.417138 A    
C32   C34   1.403588 A    
C48   H10   1.084243 S    
C20   C22   1.404807 A    
N1    C35   1.386379 A    
C45   C63   1.485998 S    
C5    C11   1.540210 S    
C14   C20   1.397702 A    
C41   C42   1.421577 A    
C6    C12   1.541225 S    
C27   C61   1.491890 S    
Cu1   Cu2   2.728475 S    
C16   C60   1.491730 S    
C19   H6    1.071490 S    
C49   O11   1.218760 D    
O2    C2    1.311897 A    
C28   C30   1.416673 A    
C35   C48   1.473555 S    
C62   H24   1.079087 S    
C57   O19   1.220759 D    
C39   C45   1.422920 A    
C25   C28   1.441389 A    
C35   C37   1.432941 A    
C40   C46   1.417298 A    
C36   C38   1.434097 A    
C7    C12   1.552438 S    
C44   H8    1.064573 S    
C53   O15   1.219972 D    
C13   C17   1.410189 A    
C47   H9    1.079549 S    
C32   C40   1.419028 A    
C14   C18   1.419841 A    
C33   C50   1.477172 S    
O4    C2    1.319351 A    
C34   C49   1.476058 S    
C55   H17   1.085255 S    
C51   O13   1.221429 D    
N1    C33   1.374613 A    
C36   C47   1.478839 S    
C63   O25   1.220969 D    
C4    C9    1.451011 S    
C29   C55   1.487263 S    
C8    C11   1.550849 S    
C42   C43   1.404056 A    
C47   O9    1.221259 D    
C23   C29   1.419579 A    
C21   C25   1.445083 A    
O7    Cu2   1.955198 S    
C24   C30   1.414997 A    
C55   O17   1.220838 D    
O5    C3    1.301920 A    
C22   C26   1.427773 A    
O6    C4    1.301535 A    
C58   O20   1.219427 D    
C59   O21   1.220447 D    
C20   H5    1.082062 S    
C17   C58   1.491044 S    
C50   H12   1.080464 S    
C56   O18   1.221329 D    
O7    C3    1.299475 A    
O3    Cu2   1.901609 S    
O8    C4    1.299637 A    
C26   C27   1.426741 A    
C54   O16   1.219962 D    
C52   O14   1.220546 D    
C37   C39   1.411422 A    
C10   C12   1.536555 S    
O1    Cu1   1.922692 S    
C25   C26   1.421426 A    
C31   C51   1.490990 S    
C32   C52   1.490967 S    
C5    C7    1.539849 S    
C41   C44   1.404550 A    
O6    Cu2   1.952716 S    
C8    C10   1.539275 S    
C12   H4    1.110483 S    
O3    C1    1.320842 A    
O8    Cu1   1.955199 S    
Cu1   N2    2.049692 S    
Cu2   N1    2.049692 S    
C3    C10   1.451848 S    
C5    C53   1.493877 S    
C9    C11   1.536040 S    
C15   C17   1.423903 A    
C61   H23   1.083760 S    
C16   C18   1.418479 A    
C60   O22   1.220448 D    
C22   C24   1.409621 A    
C58   H20   1.085341 S    
C19   C21   1.406988 A    
C38   C40   1.424768 A    
C8    H2    1.108008 S    
C11   H3    1.110495 S    
C56   H18   1.084970 S    
O2    Cu2   1.922692 S    
C64   O26   1.221312 D    
C30   C56   1.489970 S    
C51   H13   1.084748 S    
C43   H7    1.082087 S    
N2    C34   1.371812 A    
C38   C42   1.442888 A    
C54   H16   1.084744 S    
C6    C8    1.539778 S    
C52   H14   1.085251 S    
C15   C23   1.438063 A    
C59   H21   1.084439 S    
C6    C54   1.495372 S    
C48   O10   1.219984 D    
C7    C9    1.540010 S    
