data_str_m3_o4_o9_f0_pcu.sym.193
_audit_creation_date              2012-12-10T20:45:31-0500
_audit_creation_method            fapswitch 2.2
_symmetry_space_group_name_H-M    P1
_symmetry_Int_Tables_number       1
_space_group_crystal_system       triclinic
_cell_length_a                    10.692618
_cell_length_b                    10.680295
_cell_length_c                    9.851072
_cell_angle_alpha                 89.830271
_cell_angle_beta                  90.342311
_cell_angle_gamma                 89.990642
_cell_volume                      1124.9704889

loop_
_atom_site_label
_atom_site_type_symbol
_atom_type_description
_atom_site_fract_x
_atom_site_fract_y
_atom_site_fract_z
_atom_type_partial_charge
C1    C     C_R   0.502272 0.259788 0.500094 0.881850
C2    C     C_R   0.238014 0.790079 0.086027 -0.159064
C3    C     C_R   0.932079 0.564187 0.398290 -0.223608
C4    C     C_R   0.872402 0.497820 0.501638 -0.078214
C5    C     C_R   0.939806 0.437686 0.606073 0.016787
C6    C     C_R   0.067894 0.443121 0.603166 -0.250170
C7    C     C_R   0.127749 0.508205 0.499296 -0.047234
C8    C     C_R   0.060523 0.572148 0.397012 0.053504
C9    C     C_R   0.875908 0.415568 0.848272 -0.204217
C10   C     C_R   0.821376 0.346959 0.953474 -0.193316
C11   C     C_R   0.773484 0.227327 0.928275 0.449077
C12   C     C_R   0.260227 0.504183 0.499490 0.916967
C13   C     C_R   0.779474 0.176667 0.797742 -0.172378
C14   C     C_R   0.831780 0.245938 0.691750 -0.202331
C15   C     C_R   0.880712 0.365556 0.716736 0.144938
C16   C     C_R   0.526968 0.063134 0.622172 0.121859
C17   C     C_R   0.519969 0.128126 0.499891 -0.110862
C18   C     C_R   0.537241 0.064701 0.377019 -0.170885
C19   C     C_R   0.540762 0.935479 0.377015 -0.207658
C20   C     C_R   0.525243 0.871043 0.499916 -0.077959
C21   C     C_R   0.530677 0.935460 0.622494 0.125437
C22   C     C_3   0.449266 0.926061 0.745048 -0.450587
C23   C     C_R   0.505022 0.739895 0.499858 0.930659
C24   C     C_3   0.443634 0.067726 0.743133 -0.476289
C25   C     C_R   0.455178 0.399113 0.071501 0.273759
C26   C     C_R   0.555846 0.593599 0.072075 -0.132621
C27   C     C_R   0.556345 0.593308 0.928022 -0.130558
C28   C     C_R   0.452968 0.400263 0.928833 0.241870
C29   C     C_3   0.321199 0.354027 0.925746 -0.533608
C30   C     C_3   0.326299 0.347485 0.079509 -0.503279
C31   C     C_R   0.739880 0.497591 0.500549 0.874711
C32   C     C_R   0.243667 0.830399 0.220723 -0.157643
C33   C     C_R   0.184795 0.761482 0.323278 0.411158
C34   C     C_R   0.120487 0.650079 0.290590 0.061495
C35   C     C_R   0.111357 0.613187 0.154085 -0.239606
C36   C     C_R   0.171094 0.682132 0.052585 -0.116760
H1    H     H_    0.284153 0.843451 0.007304 0.151640
H2    H     H_    0.744419 0.083332 0.778697 0.166501
H3    H     H_    0.835554 0.206015 0.590903 0.153358
H4    H     H_    0.538953 0.113688 0.280826 0.220981
H5    H     H_    0.545478 0.887074 0.280676 0.177873
H6    H     H_    0.357560 0.880930 0.723975 0.251692
H7    H     H_    0.500611 0.888123 0.834589 0.198048
H8    H     H_    0.348973 0.104293 0.717690 0.211227
H9    H     H_    0.490236 0.111414 0.832337 0.229266
H10   H     H_    0.598866 0.670315 0.126451 0.151777
H11   H     H_    0.600248 0.669486 0.873712 0.152520
H12   H     H_    0.254531 0.425776 0.887017 0.212156
H13   H     H_    0.311809 0.260756 0.878101 0.205096
H14   H     H_    0.260157 0.411627 0.130173 0.226882
H15   H     H_    0.325970 0.250050 0.119558 0.208884
H16   H     H_    0.059872 0.529538 0.126647 0.144549
H17   H     H_    0.165525 0.651792 0.947967 0.152000
H18   H     H_    0.878370 0.613283 0.320883 0.161271
H19   H     H_    0.121100 0.393381 0.680442 0.155569
H20   H     H_    0.913720 0.507717 0.868904 0.148094
H21   H     H_    0.817127 0.386450 0.054460 0.167047
N1    N     N_R   0.499160 0.499140 0.142800 -0.110003
N2    N     N_R   0.499160 0.499180 0.857150 -0.110904
O1    O     O_R   0.500020 0.316790 0.614690 -0.616204
O2    O     O_R   0.500000 0.316760 0.385350 -0.615633
O3    O     O_R   0.316770 0.500030 0.614670 -0.616587
O4    O     O_R   0.316750 0.499990 0.385330 -0.625852
O5    O     O_R   0.500000 0.683240 0.614650 -0.619631
O6    O     O_R   0.499980 0.683210 0.385310 -0.632745
O7    O     O_R   0.683250 0.500010 0.614670 -0.611490
O8    O     O_R   0.683230 0.499970 0.385330 -0.622720
Zn1   Zn    Zn3+2 0.500010 0.500020 0.653130 0.961619
Zn2   Zn    Zn3+2 0.499990 0.499980 0.346870 0.962878
Cl1   Cl    Cl    0.707458 0.139990 0.060380 -0.718105
H22   H     H_    0.292995 0.915965 0.245172 0.160894
Cl2   Cl    Cl    0.188042 0.820069 0.490062 -0.697174

loop_
_geom_bond_atom_site_label_1
_geom_bond_atom_site_label_2
_ccdc_geom_bond_type
C31   O7    A    
O7    Zn1   S    
C30   H15   S    
N1    Zn2   S    
C29   C30   S    
C8    C34   S    
N2    Zn1   S    
C32   H22   S    
C12   O3    A    
C9    C10   A    
C1    C17   S    
C35   C36   A    
C20   C23   S    
O3    Zn1   S    
C6    H19   S    
C32   C33   A    
C23   O6    A    
C17   C18   A    
C13   H2    S    
C11   Cl1   S    
C7    C8    A    
C16   C24   S    
C9    H20   S    
C29   H13   S    
C13   C14   A    
C25   C28   A    
C31   O8    A    
C11   C13   A    
C2    H1    S    
C26   C27   A    
C22   H6    S    
O6    Zn2   S    
C24   H9    S    
O5    Zn1   S    
O4    Zn2   S    
C28   C29   S    
C28   N2    A    
C33   C34   A    
C6    C7    A    
C3    C8    A    
C9    C15   A    
C5    C6    A    
C24   H8    S    
C3    H18   S    
C22   C24   S    
C7    C12   S    
C5    C15   S    
C4    C31   S    
C16   C17   A    
C25   N1    A    
C26   H10   S    
C29   H12   S    
O2    Zn2   S    
C3    C4    A    
C18   C19   A    
C19   H5    S    
C35   H16   S    
C10   H21   S    
C2    C36   A    
C20   C21   A    
O1    Zn1   S    
C2    C32   A    
C34   C35   A    
C10   C11   A    
C1    O1    A    
C27   H11   S    
C25   C30   S    
C12   O4    A    
C18   H4    S    
C14   C15   A    
C23   O5    A    
C27   N2    A    
C36   H17   S    
C33   Cl2   S    
C30   H14   S    
C14   H3    S    
C21   C22   S    
C16   C21   A    
C26   N1    A    
C22   H7    S    
C19   C20   A    
C4    C5    A    
O8    Zn2   S    
C1    O2    A    
