data_str_m9_o11_o18_f0_sra.sym.76
_audit_creation_date              2012-12-11T14:21:20-0500
_audit_creation_method            fapswitch 2.2
_symmetry_space_group_name_H-M    P1
_symmetry_Int_Tables_number       1
_space_group_crystal_system       triclinic
_cell_length_a                    21.95825
_cell_length_b                    7.20828
_cell_length_c                    14.935155
_cell_angle_alpha                 89.993345
_cell_angle_beta                  107.014121
_cell_angle_gamma                 89.998094
_cell_volume                      2260.49047214

loop_
_atom_site_label
_atom_site_type_symbol
_atom_type_description
_atom_site_fract_x
_atom_site_fract_y
_atom_site_fract_z
_atom_type_partial_charge
O1    O     O_R   0.584770 0.505770 0.002090 -0.540406
O2    O     O_R   0.415230 0.005770 0.997910 -0.540408
O3    O     O_R   0.467060 0.173340 0.861950 -0.537404
O4    O     O_R   0.532940 0.673340 0.138050 -0.537417
C1    C     C_R   0.455166 0.344085 0.825979 0.675034
C2    C     C_R   0.544834 0.844059 0.174024 0.675053
O5    O     O_R   0.587510 0.175890 0.993210 -0.541142
O6    O     O_R   0.412490 0.675890 0.006790 -0.541134
O7    O     O_R   0.536540 0.008150 0.130100 -0.537279
O8    O     O_R   0.463460 0.508150 0.869900 -0.537273
C3    C     C_R   0.612962 0.344926 0.997432 0.729803
C4    C     C_R   0.387038 0.844930 0.002568 0.729847
O9    O     O_3   0.483140 0.340040 0.044760 -0.377259
O10   O     O_3   0.516860 0.840040 0.955240 -0.377260
V1    V     V_3+5 0.503130 0.064190 0.991700 1.431037
V2    V     V_3+5 0.496870 0.564190 0.008300 1.431057
C5    C     C_2   0.214018 0.727652 0.003486 -0.115582
C6    C     C_2   0.785987 0.227657 0.996523 -0.115622
C7    C     C_2   0.180346 0.886752 0.996381 -0.276415
C8    C     C_2   0.819654 0.386758 0.003618 -0.276280
H1    H     H_    0.190910 0.596837 0.009197 0.143269
H2    H     H_    0.809101 0.096845 0.990821 0.143192
H3    H     H_    0.201931 0.019005 0.989584 0.132350
H4    H     H_    0.798064 0.519009 0.010408 0.132297
C9    C     C_2   0.281901 0.714657 0.003265 -0.128190
C10   C     C_2   0.718105 0.214655 0.996745 -0.128308
C11   C     C_2   0.319956 0.861446 0.003574 -0.290929
C12   C     C_2   0.680043 0.361440 0.996426 -0.290888
H5    H     H_    0.301052 0.575688 0.003512 0.139831
H6    H     H_    0.698959 0.075685 0.996506 0.139788
H7    H     H_    0.302065 0.001250 0.004232 0.137006
H8    H     H_    0.697930 0.501245 0.995761 0.136990
C13   C     C_R   0.926890 0.886269 0.724171 -0.160312
C14   C     C_R   0.073112 0.386109 0.275820 -0.160324
C15   C     C_R   0.573000 0.848359 0.275550 -0.032332
C16   C     C_R   0.426991 0.348516 0.724461 -0.032185
C17   C     C_R   0.937595 0.897385 0.568096 0.686431
C18   C     C_R   0.062366 0.395467 0.431895 0.686639
C19   C     C_R   0.965226 0.897841 0.664712 -0.219726
C20   C     C_R   0.034747 0.396452 0.335278 -0.219856
C21   C     C_R   0.860855 0.870904 0.687277 -0.148535
C22   C     C_R   0.139166 0.371411 0.312709 -0.148686
C23   C     C_R   0.831507 0.859063 0.589584 0.033965
C24   C     C_R   0.168513 0.358941 0.410381 0.033891
C25   C     C_R   0.871059 0.881279 0.530081 -0.009230
C26   C     C_R   0.128920 0.379953 0.469904 -0.009274
C27   C     C_R   0.764249 0.833807 0.549090 -0.033568
C28   C     C_R   0.235795 0.334134 0.450850 -0.033600
C29   C     C_R   0.736971 0.857261 0.450130 -0.002901
C30   C     C_R   0.263029 0.356877 0.549857 -0.002919
C31   C     C_R   0.778338 0.884090 0.394392 -0.170325
C32   C     C_R   0.221620 0.382551 0.605624 -0.170347
C33   C     C_R   0.843851 0.891102 0.433465 -0.111627
C34   C     C_R   0.156102 0.389109 0.566541 -0.111637
C35   C     C_R   0.723472 0.779176 0.602765 0.591791
C36   C     C_R   0.276643 0.280595 0.397096 0.591815
C37   C     C_R   0.658043 0.768594 0.562698 -0.257459
C38   C     C_R   0.342080 0.270412 0.437172 -0.257462
C39   C     C_R   0.630512 0.802878 0.467822 0.035920
C40   C     C_R   0.369558 0.304065 0.532115 0.035924
C41   C     C_R   0.669357 0.846489 0.409700 0.078378
C42   C     C_R   0.330651 0.346570 0.590291 0.078392
C43   C     C_R   0.564263 0.785043 0.429859 -0.126445
C44   C     C_R   0.435827 0.286751 0.570072 -0.126453
C45   C     C_R   0.535853 0.804800 0.334068 -0.162078
C46   C     C_R   0.464204 0.306019 0.665897 -0.162216
C47   C     C_R   0.638746 0.873202 0.312917 -0.177553
C48   C     C_R   0.361216 0.372757 0.687118 -0.177489
H9    H     H_    0.873326 0.908809 0.387179 0.180013
H10   H     H_    0.126595 0.405897 0.612845 0.180002
H11   H     H_    0.485038 0.782922 0.305270 0.112566
H12   H     H_    0.515048 0.284650 0.694675 0.112498
H13   H     H_    0.628641 0.726838 0.606254 0.158237
H14   H     H_    0.371538 0.229501 0.393556 0.158256
H15   H     H_    0.016431 0.910771 0.693239 0.141320
H16   H     H_    0.983523 0.408796 0.306754 0.141296
H17   H     H_    0.833820 0.878905 0.736737 0.197409
H18   H     H_    0.166200 0.380285 0.263275 0.197448
O11   O     O_R   0.036450 0.233070 0.130130 -0.531271
O12   O     O_R   0.963550 0.733070 0.869870 -0.531253
O13   O     O_R   0.912470 0.560570 0.006790 -0.543022
O14   O     O_R   0.087530 0.060570 0.993210 -0.542999
C49   C     C_R   0.886980 0.391920 0.002543 0.735199
C50   C     C_R   0.113020 0.891916 0.997457 0.735164
O15   O     O_R   0.032920 0.562940 0.138050 -0.538785
O16   O     O_R   0.967080 0.062940 0.861950 -0.538758
O17   O     O_R   0.084790 0.730500 0.002090 -0.541068
O18   O     O_R   0.915210 0.230500 0.997910 -0.541071
C51   C     C_R   0.044816 0.394435 0.174443 0.724926
C52   C     C_R   0.955182 0.894463 0.825554 0.724844
O19   O     O_3   0.016820 0.396170 0.955260 -0.380832
O20   O     O_3   0.983180 0.896170 0.044740 -0.380866
V3    V     V_3+5 0.996880 0.672090 0.008300 1.460194
V4    V     V_3+5 0.003120 0.172090 0.991700 1.460269
H19   H     H_    0.761894 0.895403 0.319320 0.118188
H20   H     H_    0.238038 0.393240 0.680720 0.118188
F1    F     F_    0.745649 0.717259 0.692096 -0.705066
F2    F     F_    0.254546 0.219357 0.307642 -0.705100
H21   H     H_    0.534595 0.750000 0.474045 0.118987
H22   H     H_    0.465545 0.252564 0.525841 0.118985
H23   H     H_    0.664438 0.907725 0.263834 0.091994
H24   H     H_    0.335477 0.406525 0.736238 0.091888
F3    F     F_    0.975907 0.914856 0.511756 -0.656898
F4    F     F_    0.024018 0.411741 0.488247 -0.656850

loop_
_geom_bond_atom_site_label_1
_geom_bond_atom_site_label_2
_ccdc_geom_bond_type
C43   C45   A    
O14   V4    S    
C14   C22   A    
C50   O17   A    
C36   F2    S    
O2    C4    A    
C2    O7    A    
C27   C29   A    
O5    C3    A    
C47   H23   S    
C13   C19   A    
C14   C20   A    
C48   H24   S    
C21   H17   S    
C16   C46   A    
C37   C39   A    
C15   C45   A    
C38   C40   A    
C1    C16   S    
C2    C15   S    
C40   C42   A    
C37   H13   S    
C18   F4    S    
O16   V4    S    
O15   V3    S    
C46   H12   S    
C8    H4    S    
C32   C34   A    
C29   C31   A    
C6    C10   S    
C30   C32   A    
C19   H15   S    
C28   C30   A    
C49   O18   A    
C25   C33   A    
O6    V2    S    
C21   C23   A    
C35   F1    S    
C22   C24   A    
O13   C49   A    
C24   C26   A    
C9    H5    S    
O18   V4    S    
C39   C41   A    
C29   C41   A    
C4    C11   S    
C11   H7    S    
C12   H8    S    
O11   V4    S    
O4    C2    A    
O16   C52   A    
C17   F3    S    
O15   C51   A    
C33   H9    S    
C45   H11   S    
C5    H1    S    
C20   H16   S    
C31   C33   A    
C44   C46   A    
O4    V2    S    
C7    H3    S    
O13   V3    S    
C41   C47   A    
C34   H10   S    
C15   C47   A    
O6    C4    A    
C26   C34   A    
O1    V2    S    
O2    V1    S    
C23   C25   A    
C10   H6    S    
O14   C50   A    
C35   C37   A    
C30   C42   A    
C8    C49   S    
C17   C25   A    
C7    C50   S    
O3    V1    S    
C38   H14   S    
C27   C35   A    
C28   C36   A    
C6    H2    S    
C10   C12   D    
O3    C1    A    
C16   C48   A    
C22   H18   S    
C9    C11   D    
C43   H21   S    
C39   C43   A    
C42   C48   A    
C40   C44   A    
C13   C21   A    
O7    V1    S    
C14   C51   S    
C5    C9    S    
C1    O8    A    
C17   C19   A    
O8    V2    S    
C13   C52   S    
O19   V4    S    
C18   C20   A    
C3    C12   S    
O17   V3    S    
O5    V1    S    
O20   V3    S    
C5    C7    D    
C36   C38   A    
C32   H20   S    
C6    C8    D    
O12   C52   A    
C18   C26   A    
C44   H22   S    
O9    V2    S    
O10   V1    S    
O11   C51   A    
O1    C3    A    
O12   V3    S    
C23   C27   A    
C24   C28   A    
C31   H19   S    
