data_str_m12_o9_o11_f0_bcu.sym.73
_audit_creation_date              2012-12-11T17:39:39-0500
_audit_creation_method            fapswitch 2.2
_symmetry_space_group_name_H-M    P1
_symmetry_Int_Tables_number       1
_space_group_crystal_system       triclinic
_cell_length_a                    14.853796
_cell_length_b                    15.105369
_cell_length_c                    14.89619
_cell_angle_alpha                 109.279768
_cell_angle_beta                  108.839095
_cell_angle_gamma                 110.394314
_cell_volume                      2569.35247202

loop_
_atom_site_label
_atom_site_type_symbol
_atom_type_description
_atom_site_fract_x
_atom_site_fract_y
_atom_site_fract_z
_atom_type_partial_charge
C1    C     C_R   0.908002 0.911303 0.713430 -0.146987
C2    C     C_R   0.003637 0.301874 0.438710 0.059502
C3    C     C_R   0.271066 0.322105 0.822793 0.131954
C4    C     C_R   0.713442 0.038474 0.544668 0.055936
C5    C     C_R   0.702783 0.694629 0.286142 -0.160244
C6    C     C_R   0.307920 0.102465 0.510929 -0.155299
C7    C     C_R   0.093515 0.780784 0.527905 -0.111162
C8    C     C_R   0.911535 0.933330 0.188082 -0.125972
C9    C     C_R   0.095084 0.021296 0.282857 -0.125497
C10   C     C_R   0.908469 0.685039 0.444217 -0.138306
C11   C     C_R   0.701886 0.787559 0.196699 -0.107843
C12   C     C_R   0.093678 0.298382 0.496329 -0.157858
C13   C     C_R   0.306965 0.013046 0.602384 -0.137689
C14   C     C_R   0.643211 0.689770 0.190288 0.145143
C15   C     C_R   0.375014 0.082168 0.580348 0.069426
C16   C     C_R   0.002760 0.677636 0.464466 0.043260
C17   C     C_R   0.005054 0.943280 0.179793 0.056116
C18   C     C_R   0.536710 0.760336 0.605226 -0.125278
C19   C     C_R   0.532614 0.844543 0.587905 -0.150985
C20   C     C_R   0.610719 0.953629 0.669581 0.105028
C21   C     C_R   0.689669 0.977836 0.770342 -0.171483
C22   C     C_R   0.693951 0.893340 0.786939 -0.147105
C23   C     C_R   0.246403 0.220773 0.812686 -0.157558
C24   C     C_R   0.618023 0.784644 0.704129 -0.123406
C25   C     C_R   0.535987 0.071362 0.672713 -0.230416
C26   C     C_R   0.494280 0.122096 0.622419 0.043201
C27   C     C_R   0.556576 0.182115 0.587140 0.034807
C28   C     C_R   0.637698 0.161754 0.573642 -0.235472
C29   C     C_R   0.654333 0.081774 0.592156 0.065692
C30   C     C_R   0.607296 0.041651 0.649582 0.026902
C31   C     C_R   0.532751 0.268692 0.469805 -0.175931
C32   C     C_R   0.515974 0.347179 0.449364 -0.100726
C33   C     C_R   0.506692 0.423685 0.523996 -0.104766
C34   C     C_R   0.743442 0.058174 0.469985 -0.125353
C35   C     C_R   0.514274 0.421948 0.619282 -0.112222
C36   C     C_R   0.531565 0.343977 0.640454 -0.138224
C37   C     C_R   0.540239 0.266043 0.565446 0.109023
C38   C     C_R   0.815098 0.119809 0.088212 -0.121815
C39   C     C_R   0.890512 0.218905 0.185929 -0.135382
C40   C     C_R   0.854252 0.285906 0.234261 0.119585
C41   C     C_R   0.741465 0.252747 0.181575 -0.172822
C42   C     C_R   0.666392 0.153732 0.083514 -0.113238
C43   C     C_R   0.703113 0.087162 0.037144 -0.103356
C44   C     C_R   0.933936 0.484852 0.352464 -0.249407
C45   C     C_R   0.246955 0.312204 0.720909 -0.121030
C46   C     C_R   0.009210 0.582414 0.452046 0.072448
C47   C     C_R   0.088535 0.587614 0.540564 0.017005
C48   C     C_R   0.089900 0.494382 0.527165 -0.240146
C49   C     C_R   0.010898 0.395611 0.430894 0.061707
C50   C     C_R   0.933786 0.389396 0.340340 0.020835
C51   C     C_R   0.279982 0.734714 0.692405 -0.184628
C52   C     C_R   0.352679 0.826887 0.796460 -0.113921
C53   C     C_R   0.311541 0.868980 0.861157 -0.109521
C54   C     C_R   0.197602 0.818739 0.822019 -0.119488
C55   C     C_R   0.124440 0.726955 0.717621 -0.114431
C56   C     C_R   0.746898 0.967755 0.562365 -0.135345
C57   C     C_R   0.165218 0.684965 0.651666 0.108836
C58   C     C_2   0.364864 0.519454 0.933391 -0.124088
C59   C     C_2   0.320730 0.421378 0.925137 -0.193641
C60   C     C_2   0.462543 0.614148 0.034873 -0.118356
C61   C     C_2   0.533154 0.601006 0.104863 -0.206572
C62   C     C_R   0.396359 0.218163 0.115192 -0.114765
C63   C     C_R   0.306508 0.115075 0.071866 -0.190009
C64   C     C_R   0.199355 0.098971 0.037485 0.116854
C65   C     C_R   0.183729 0.187738 0.049183 -0.123906
C66   C     C_R   0.274085 0.291101 0.094575 -0.137947
C67   C     C_R   0.910021 0.210324 0.408340 -0.126031
C68   C     C_R   0.380244 0.306249 0.127052 -0.119489
C69   C     C_R   0.110175 0.970853 0.086438 -0.227465
C70   C     C_R   0.012517 0.904491 0.079594 0.054066
C71   C     C_R   0.917839 0.828501 0.976081 0.015380
C72   C     C_R   0.915993 0.840433 0.886060 -0.251304
C73   C     C_R   0.007073 0.927830 0.900820 0.056336
C74   C     C_R   0.105976 0.993243 0.003317 0.004394
C75   C     C_R   0.846062 0.662069 0.992974 -0.123143
C76   C     C_R   0.759942 0.573211 0.980484 -0.112759
C77   C     C_R   0.652847 0.555927 0.937042 -0.076524
C78   C     C_R   0.090754 0.000519 0.800457 -0.133083
C79   C     C_R   0.631955 0.627937 0.906834 -0.109886
C80   C     C_R   0.717750 0.716482 0.918765 -0.209729
C81   C     C_R   0.825435 0.733999 0.961230 0.132594
C82   C     C_R   0.000875 0.949246 0.810445 0.053671
H1    H     H_    0.823968 0.852373 0.685141 0.110056
H2    H     H_    0.333242 0.160704 0.484773 0.119531
H3    H     H_    0.179530 0.804698 0.558113 0.113296
H4    H     H_    0.826981 0.884157 0.123189 0.111340
H5    H     H_    0.181123 0.049743 0.308786 0.099623
H6    H     H_    0.823791 0.619143 0.400508 0.097797
H7    H     H_    0.672826 0.815967 0.141952 0.085305
H8    H     H_    0.331826 0.990778 0.664026 0.095637
H9    H     H_    0.622106 0.718862 0.715629 0.107901
H10   H     H_    0.477612 0.676302 0.541630 0.104695
H11   H     H_    0.470062 0.825116 0.510509 0.117017
H12   H     H_    0.178958 0.351270 0.521714 0.095406
H13   H     H_    0.749351 0.061667 0.834372 0.126768
H14   H     H_    0.757388 0.912794 0.863473 0.115427
H15   H     H_    0.499209 0.036908 0.713646 0.124800
H16   H     H_    0.683473 0.204582 0.543330 0.124840
H17   H     H_    0.538068 0.209043 0.410208 0.109410
H18   H     H_    0.509656 0.348360 0.375360 0.115690
H19   H     H_    0.493367 0.484176 0.507886 0.097087
H20   H     H_    0.506247 0.480806 0.676443 0.109416
H21   H     H_    0.537226 0.343684 0.714680 0.114041
H22   H     H_    0.644795 0.010301 0.961686 0.106519
H23   H     H_    0.256165 0.200806 0.877069 0.128604
H24   H     H_    0.843606 0.068319 0.052312 0.108271
H25   H     H_    0.977064 0.243084 0.224186 0.112677
H26   H     H_    0.711293 0.302477 0.217308 0.102974
H27   H     H_    0.579578 0.128267 0.043821 0.100429
H28   H     H_    0.875549 0.483552 0.284921 0.129555
H29   H     H_    0.147214 0.497780 0.597340 0.131325
H30   H     H_    0.312824 0.702989 0.642882 0.121563
H31   H     H_    0.368070 0.940235 0.941746 0.095603
H32   H     H_    0.165982 0.850863 0.872593 0.117843
H33   H     H_    0.730226 0.108821 0.436609 0.091824
H34   H     H_    0.036320 0.688959 0.687941 0.114383
H35   H     H_    0.342962 0.528535 0.861468 0.117408
H36   H     H_    0.337482 0.414044 0.997788 0.135315
H37   H     H_    0.484663 0.693924 0.042967 0.122121
H38   H     H_    0.514438 0.521621 0.096197 0.125443
H39   H     H_    0.450102 0.386369 0.162203 0.093719
H40   H     H_    0.478697 0.230156 0.141313 0.100247
H41   H     H_    0.320282 0.048101 0.066231 0.107242
H42   H     H_    0.102159 0.177361 0.026004 0.110927
H43   H     H_    0.261815 0.359615 0.105314 0.113433
H44   H     H_    0.255822 0.374968 0.699259 0.088730
H45   H     H_    0.186714 0.023051 0.163381 0.127801
H46   H     H_    0.928715 0.674552 0.026874 0.108921
H47   H     H_    0.776281 0.517841 0.004618 0.109876
H48   H     H_    0.586238 0.487282 0.927551 0.107963
H49   H     H_    0.549371 0.615587 0.874766 0.105277
H50   H     H_    0.701116 0.773799 0.899694 0.108001
H51   H     H_    0.743222 0.936901 0.616583 0.134461
H52   H     H_    0.825178 0.183120 0.354562 0.104057
H53   H     H_    0.174101 0.019534 0.847245 0.109360
H54   H     H_    0.673196 0.638104 0.313402 0.090590
N1    N     N_R   0.941940 0.944580 0.650780 -0.040205
N2    N     N_R   0.206190 0.054080 0.497260 -0.041147
N3    N     N_R   0.056380 0.847410 0.553580 -0.041665
N4    N     N_R   0.944890 0.999100 0.292900 -0.042228
N5    N     N_R   0.058060 0.055420 0.349220 -0.041617
N6    N     N_R   0.943200 0.791100 0.497260 -0.039592
N7    N     N_R   0.795540 0.849750 0.292910 -0.045353
N8    N     N_R   0.205730 0.996760 0.553580 -0.040333
N9    N     N_R   0.056800 0.208900 0.502740 -0.036502
N10   N     N_R   0.204460 0.150250 0.707090 -0.042206
N11   N     N_R   0.794270 0.003240 0.446420 -0.041641
N12   N     N_R   0.204920 0.207570 0.650770 -0.043033
N13   N     N_R   0.793810 0.945920 0.502740 -0.043328
N14   N     N_R   0.943620 0.152590 0.446420 -0.039795
N15   N     N_R   0.055110 0.000900 0.707100 -0.038814
N16   N     N_R   0.795080 0.792430 0.349230 -0.039000
Ni1   Ni    Ni4+2 0.869690 0.869690 0.500000 0.212750
Ni2   Ni    Ni4+2 0.130310 0.130310 0.500000 0.211976
Ni3   Ni    Ni4+2 0.129250 0.998840 0.629170 0.215676
Ni4   Ni    Ni4+2 0.870750 0.001160 0.370830 0.214492
H55   H     H_    0.440873 0.865605 0.826875 0.111814
H56   H     H_    0.843114 0.783614 0.806109 0.131516

loop_
_geom_bond_atom_site_label_1
_geom_bond_atom_site_label_2
_ccdc_geom_bond_type
C5    H54   S    
C66   C68   A    
C38   H24   S    
C51   H30   S    
C80   H50   S    
C41   H26   S    
C13   H8    S    
C45   N12   A    
C41   C42   A    
C3    C23   A    
C35   C36   A    
C33   H19   S    
C35   H20   S    
C2    C12   A    
C56   H51   S    
C20   C30   S    
C53   C54   A    
C39   H25   S    
C10   H6    S    
C26   C27   A    
C29   C30   A    
C5    N16   A    
C36   H21   S    
C18   C24   A    
C36   C37   A    
N11   N13   A    
C42   H27   S    
C27   C37   S    
C18   C19   A    
C10   N6    A    
C38   C39   A    
N3    N6    A    
N5    Ni2   S    
C65   H42   S    
C55   H34   S    
C58   C60   S    
C23   H23   S    
C52   H55   S    
C72   H56   S    
C60   H37   S    
C75   H46   S    
C73   C74   A    
C13   N8    A    
N13   Ni1   S    
C43   H22   S    
C33   C35   A    
C6    C15   A    
C54   C55   A    
N10   Ni3   S    
C31   C32   A    
C44   C46   A    
C70   C71   A    
C51   C57   A    
C31   H17   S    
C78   H53   S    
C4    C29   S    
C19   H11   S    
C72   C73   A    
N2    Ni2   S    
C17   C70   S    
N14   Ni4   S    
C21   C22   A    
C4    C56   A    
C67   N14   A    
C12   H12   S    
N12   Ni2   S    
C53   H31   S    
C78   N15   A    
N10   N12   A    
C77   C79   A    
C23   N10   A    
C4    C34   A    
C6    H2    S    
C51   C52   A    
C67   H52   S    
C76   C77   A    
C2    C67   A    
C16   C46   S    
C39   C40   A    
C10   C16   A    
C9    N5    A    
C75   C81   A    
C15   C26   S    
C21   H13   S    
C25   C26   A    
C63   C64   A    
C14   C61   S    
C3    C45   A    
C58   H35   S    
C31   C37   A    
N7    N16   A    
C60   C61   D    
C12   N9    A    
C6    N2    A    
C75   C76   A    
C62   C63   A    
C2    C49   S    
C28   H16   S    
C47   C57   S    
C34   N11   A    
C78   C82   A    
C47   C48   A    
N3    Ni3   S    
C45   H44   S    
C79   H49   S    
C11   H7    S    
C20   C21   A    
C76   H47   S    
N1    Ni1   S    
C69   C74   A    
N4    N5    A    
N11   Ni4   S    
C5    C14   A    
N4    Ni4   S    
N9    Ni2   S    
C9    C17   A    
C48   C49   A    
C49   C50   A    
C59   H36   S    
N15   Ni3   S    
C13   C15   A    
C22   C24   A    
C58   C59   D    
C42   C43   A    
C24   H9    S    
C73   C82   S    
C62   H40   S    
C1    N1    A    
C52   C53   A    
C44   C50   A    
C25   C30   A    
C46   C47   A    
C28   C29   A    
C22   H14   S    
C7    C16   A    
C25   H15   S    
N9    N14   A    
C80   C81   A    
C68   H39   S    
C63   H41   S    
C1    H1    S    
C8    C17   A    
C66   H43   S    
C62   C68   A    
C8    N4    A    
C18   H10   S    
C64   C65   A    
C19   C20   A    
C55   C57   A    
C34   H33   S    
C38   C43   A    
N2    N8    A    
C32   C33   A    
C7    N3    A    
C1    C82   A    
N7    Ni4   S    
C7    H3    S    
N8    Ni3   S    
C40   C50   S    
C54   H32   S    
C11   C14   A    
C8    H4    S    
C77   H48   S    
N6    Ni1   S    
C69   C70   A    
C79   C80   A    
C32   H18   S    
C71   C72   A    
C48   H29   S    
N16   Ni1   S    
C69   H45   S    
C65   C66   A    
C27   C28   A    
C64   C74   S    
N1    N15   A    
C40   C41   A    
C71   C81   S    
C56   N13   A    
C11   N7    A    
C9    H5    S    
C44   H28   S    
C61   H38   S    
C3    C59   S    
