data_str_m9_o4_o16_f0_sra.sym.35
_audit_creation_date              2012-12-11T17:00:19-0500
_audit_creation_method            fapswitch 2.2
_symmetry_space_group_name_H-M    P1
_symmetry_Int_Tables_number       1
_space_group_crystal_system       triclinic
_cell_length_a                    6.958263
_cell_length_b                    13.53773
_cell_length_c                    20.256769
_cell_angle_alpha                 103.03025
_cell_angle_beta                  89.709145
_cell_angle_gamma                 90.815968
_cell_volume                      1858.84405941

loop_
_atom_site_label
_atom_site_type_symbol
_atom_type_description
_atom_site_fract_x
_atom_site_fract_y
_atom_site_fract_z
_atom_type_partial_charge
O1    O     O_R   0.506770 0.599700 0.449550 -0.534569
O2    O     O_R   0.179980 0.595740 0.587960 -0.548966
O3    O     O_R   0.004580 0.400300 0.550450 -0.541851
C1    C     C_R   0.348250 0.617722 0.615067 0.683305
O4    O     O_R   0.177380 0.611700 0.452380 -0.525818
O5    O     O_R   0.001970 0.416370 0.413900 -0.531238
C2    C     C_R   0.347040 0.637795 0.435117 0.719223
O6    O     O_R   0.509390 0.583630 0.586100 -0.539979
O7    O     O_3   0.337530 0.435890 0.487530 -0.376530
V1    V     V_3+5 0.064660 0.511890 0.502310 1.457638
O8    O     O_R   0.671950 0.404260 0.412040 -0.547582
C3    C     C_R   0.840571 0.382764 0.384779 0.725898
O9    O     O_R   0.674540 0.388300 0.547620 -0.543638
C4    C     C_R   0.842241 0.361452 0.564172 0.682190
V2    V     V_3+5 0.564030 0.488110 0.497690 1.433994
O10   O     O_3   0.841030 0.564110 0.512470 -0.370279
C5    C     C_R   0.834946 0.108384 0.610532 -0.158464
H1    H     H_    0.827033 0.158265 0.517299 0.101446
H2    H     H_    0.834743 0.982619 0.693638 0.118221
H3    H     H_    0.826593 0.029047 0.584775 0.113448
C6    C     C_R   0.847122 0.284117 0.603983 -0.027986
C7    C     C_R   0.874959 0.317966 0.930734 -0.163706
C8    C     C_R   0.875385 0.394502 0.895199 -0.114139
C9    C     C_R   0.867893 0.370861 0.824644 -0.161613
C10   C     C_R   0.859677 0.268712 0.787480 0.077314
C11   C     C_R   0.857618 0.190579 0.824376 0.071154
C12   C     C_R   0.853574 0.241475 0.715106 0.071737
C13   C     C_R   0.843623 0.137168 0.681538 0.143437
C14   C     C_R   0.841823 0.062231 0.718902 -0.207463
C15   C     C_R   0.849089 0.088317 0.789114 -0.197066
C16   C     C_R   0.856537 0.314020 0.674610 -0.212689
C17   C     C_R   0.835599 0.181547 0.572015 -0.178366
C18   C     C_R   0.865549 0.216386 0.896086 -0.080310
H4    H     H_    0.864258 0.394389 0.696066 0.090602
H5    H     H_    0.882186 0.337977 0.985584 0.120426
H6    H     H_    0.868811 0.434519 0.800974 0.106354
H7    H     H_    0.882219 0.473025 0.922563 0.125057
H8    H     H_    0.847675 0.027242 0.815598 0.108575
C19   C     C_R   0.715688 0.255133 0.202650 0.142422
C20   C     C_R   0.867634 0.188100 0.182761 -0.126764
C21   C     C_R   0.020587 0.192853 0.228808 -0.167908
H9    H     H_    0.141073 0.142687 0.215708 0.131571
C22   C     C_R   0.012884 0.256894 0.294133 -0.148859
H10   H     H_    0.128341 0.254915 0.329290 0.121155
C23   C     C_R   0.851324 0.317433 0.315496 -0.092197
C24   C     C_R   0.707514 0.317772 0.267470 0.197164
C25   C     C_3   0.496670 0.301205 0.272769 -0.438443
C26   C     C_3   0.505110 0.233769 0.201904 -0.421513
H11   H     H_    0.415336 0.372012 0.275675 0.219504
H12   H     H_    0.460724 0.258994 0.312420 0.159232
H13   H     H_    0.428959 0.265752 0.163510 0.185434
H14   H     H_    0.472638 0.152751 0.200386 0.162182
C27   C     C_R   0.498696 0.678604 0.730053 0.102829
C28   C     C_R   0.351543 0.683737 0.684222 -0.108777
C29   C     C_R   0.196904 0.748623 0.708116 -0.176290
H15   H     H_    0.078898 0.754500 0.674787 0.128823
C30   C     C_R   0.198605 0.811532 0.773801 -0.172114
H16   H     H_    0.082873 0.864326 0.788942 0.126669
C31   C     C_R   0.355196 0.811587 0.817491 -0.110373
C32   C     C_R   0.500988 0.741360 0.794876 0.101751
C33   C     C_3   0.712844 0.758071 0.792302 -0.398976
C34   C     C_3   0.710147 0.689484 0.721744 -0.406627
H17   H     H_    0.790791 0.725228 0.829899 0.172362
H18   H     H_    0.750371 0.838190 0.792551 0.164692
H19   H     H_    0.785999 0.616826 0.718574 0.165504
H20   H     H_    0.746294 0.729696 0.681059 0.167425
C35   C     C_R   0.403193 0.890725 0.389846 -0.152654
H21   H     H_    0.406644 0.838961 0.482493 0.104139
H22   H     H_    0.448510 0.014302 0.305985 0.113899
H23   H     H_    0.435146 0.968481 0.415457 0.111452
C36   C     C_R   0.358228 0.715779 0.395672 -0.055017
C37   C     C_R   0.291715 0.686811 0.071574 -0.223851
C38   C     C_R   0.221615 0.618472 0.107966 -0.155059
C39   C     C_R   0.208995 0.645184 0.178773 0.391852
C40   C     C_R   0.298795 0.737532 0.214648 -0.025519
C41   C     C_R   0.352757 0.810784 0.176731 0.040049
C42   C     C_R   0.332594 0.762251 0.286150 0.103933
C43   C     C_R   0.379820 0.863840 0.319197 0.142488
C44   C     C_R   0.410563 0.936853 0.281332 -0.196682
C45   C     C_R   0.404574 0.909923 0.211106 -0.165408
C46   C     C_R   0.336578 0.688300 0.325245 -0.068831
C47   C     C_R   0.389081 0.817201 0.428001 -0.176394
C48   C     C_R   0.347149 0.784600 0.105033 -0.069723
H24   H     H_    0.329513 0.608691 0.301573 0.166714
H25   H     H_    0.286341 0.666271 0.016704 0.121037
H26   H     H_    0.160770 0.547204 0.080127 0.150079
H27   H     H_    0.439999 0.967927 0.183871 0.105277
O11   O     O_R   0.203450 0.916320 0.913910 -0.541998
O12   O     O_R   0.535520 0.888300 0.047620 -0.538975
O13   O     O_R   0.710860 0.083650 0.086100 -0.540774
C49   C     C_R   0.365324 0.861832 0.064640 0.699730
O14   O     O_R   0.532860 0.904250 0.912040 -0.543103
O15   O     O_R   0.708190 0.099710 0.949550 -0.537095
C50   C     C_R   0.364397 0.882697 0.884782 0.696420
O16   O     O_R   0.206120 0.900260 0.050460 -0.537036
O17   O     O_3   0.375280 0.064080 0.012470 -0.370854
V3    V     V_3+5 0.648180 0.988110 0.997690 1.422099
O18   O     O_R   0.038220 0.111740 0.952370 -0.540183
C51   C     C_R   0.870518 0.138526 0.935817 0.691156
O19   O     O_R   0.040880 0.095790 0.087940 -0.543701
C52   C     C_R   0.872668 0.117258 0.115250 0.703173
V4    V     V_3+5 0.148800 0.011950 0.002300 1.420109
O20   O     O_3   0.871820 0.935920 0.987530 -0.370228
S1    S     S_3+6 0.034480 0.575256 0.214957 -0.036575
O21   O     O_2   0.952398 0.638725 0.279182 -0.320641
O22   O     O_2   0.872308 0.542660 0.165707 -0.340698
O23   O     O_3   0.133502 0.470769 0.231300 -0.524666
H28   H     H_    0.165817 0.427952 0.186288 0.324407

loop_
_geom_bond_atom_site_label_1
_geom_bond_atom_site_label_2
_ccdc_geom_bond_type
C29   H15   S    
O17   V4    S    
C21   H9    S    
C1    O6    A    
S1    O22   D    
C37   H25   S    
C25   H11   S    
C42   C43   A    
C7    H5    S    
C6    C16   A    
C9    H6    S    
C4    C6    S    
C13   C14   A    
C45   H27   S    
O5    C3    A    
C30   C31   A    
V2    O10   S    
C5    H3    S    
C15   H8    S    
C38   C39   A    
C33   H17   S    
C20   C52   S    
C28   C29   A    
O8    V2    S    
C26   H13   S    
O23   H28   S    
O1    V2    S    
C31   C50   S    
O12   C49   A    
O7    V1    S    
O15   C51   A    
O13   V3    S    
O16   V4    S    
C36   C47   A    
C31   C32   A    
O9    C4    A    
C21   C22   A    
V4    O20   S    
C35   C43   A    
C41   C48   A    
O19   V4    S    
S1    O21   D    
C27   C32   A    
O14   V3    S    
C25   H12   S    
C6    C17   A    
O11   C50   A    
C39   C40   A    
C34   H20   S    
C12   C16   A    
C9    C10   A    
C19   C20   A    
O4    C2    A    
C43   C44   A    
C3    C23   S    
C10   C11   A    
O18   V4    S    
O12   V3    S    
C32   C33   S    
C18   C51   S    
C33   H18   S    
O2    C1    A    
C40   C41   A    
O13   C52   A    
C14   C15   A    
C8    H7    S    
C22   C23   A    
C27   C34   S    
C11   C18   A    
C25   C26   S    
C42   C46   A    
C8    C9    A    
O17   V3    S    
O14   C50   A    
C16   H4    S    
C40   C42   A    
V3    O20   S    
O3    C4    A    
C19   C24   A    
C20   C21   A    
C11   C15   A    
O6    V2    S    
O9    V2    S    
C22   H10   S    
H22   C44   S    
H1    C17   S    
O2    V1    S    
O15   V3    S    
C46   H24   S    
C39   S1    S    
C7    C18   A    
C24   C25   S    
C34   H19   S    
C1    C28   S    
O1    C2    A    
C5    C13   A    
C41   C45   A    
C37   C38   A    
O5    V1    S    
O11   V4    S    
O8    C3    A    
C27   C28   A    
C10   C12   A    
C48   C49   S    
C35   H23   S    
H21   C47   S    
C29   C30   A    
O7    V2    S    
O4    V1    S    
O3    V1    S    
V1    O10   S    
C2    C36   S    
C30   H16   S    
O19   C52   A    
C33   C34   S    
C38   H26   S    
C37   C48   A    
C49   O16   A    
C44   C45   A    
C23   C24   A    
C26   H14   S    
C35   C47   A    
O18   C51   A    
C12   C13   A    
C5    C17   A    
C7    C8    A    
S1    O23   S    
C19   C26   S    
C36   C46   A    
H2    C14   S    
