data_str_m3_o16_o24_f0_pcu.sym.18
_audit_creation_date              2012-12-10T18:11:40-0500
_audit_creation_method            fapswitch 2.2
_symmetry_space_group_name_H-M    P1
_symmetry_Int_Tables_number       1
_space_group_crystal_system       triclinic
_cell_length_a                    10.508375
_cell_length_b                    12.581411
_cell_length_c                    13.202213
_cell_angle_alpha                 82.902186
_cell_angle_beta                  89.14262
_cell_angle_gamma                 101.801969
_cell_volume                      1694.01994199

loop_
_atom_site_label
_atom_site_type_symbol
_atom_type_description
_atom_site_fract_x
_atom_site_fract_y
_atom_site_fract_z
_atom_type_partial_charge
C1    C     C_R   0.472632 0.440099 0.690725 0.905454
C2    C     C_R   0.447998 0.454250 0.972116 0.049163
C3    C     C_R   0.421065 0.480003 0.868147 0.002825
C4    C     C_R   0.742187 0.500059 0.499330 0.852026
C5    C     C_R   0.464972 0.537840 0.036195 0.016632
C6    C     C_R   0.432897 0.639842 0.002824 -0.018075
C7    C     C_R   0.384115 0.656705 0.906952 -0.391599
C8    C     C_R   0.375929 0.578975 0.837416 0.478448
C9    C     C_R   0.512699 0.522216 0.133505 -0.224097
C10   C     C_R   0.477415 0.698236 0.168749 -0.298896
C11   C     C_R   0.441246 0.404613 0.799871 -0.095892
C12   C     C_3   0.064098 0.600362 0.515616 -0.141850
C13   C     C_R   0.340146 0.091017 0.337690 -0.425567
C14   C     C_R   0.641993 0.795789 0.635624 -0.169207
C15   C     C_R   0.663086 0.898119 0.672491 0.452421
C16   C     C_R   0.515541 0.560809 0.309107 0.886499
C17   C     C_R   0.605587 0.979423 0.621784 -0.282261
C18   C     C_R   0.529496 0.960377 0.535867 -0.038391
C19   C     C_R   0.509000 0.854722 0.505106 0.191866
C20   C     C_R   0.471108 0.040812 0.480305 0.027166
C21   C     C_R   0.393948 0.012938 0.396282 0.133827
C22   C     C_R   0.371480 0.907297 0.370593 -0.270824
C23   C     C_3   0.961382 0.521791 0.589350 -0.164727
C24   C     C_R   0.426771 0.829170 0.425332 -0.219271
C25   C     C_R   0.488572 0.149030 0.502368 -0.166628
C26   C     C_R   0.357129 0.196308 0.364909 0.624850
C27   C     C_R   0.257915 0.500673 0.498770 0.875995
C28   C     C_3   0.936062 0.401710 0.479291 -0.161142
C29   C     C_3   0.022531 0.423810 0.570981 -0.150869
C30   C     C_3   0.122819 0.502210 0.497509 0.032570
C31   C     C_3   0.038951 0.480512 0.405906 -0.207887
C32   C     C_3   0.977357 0.578134 0.424309 -0.171466
C33   C     C_3   0.302486 0.699603 0.709786 0.161014
C34   C     C_3   0.877424 0.499741 0.497926 0.034847
C35   C     C_3   0.176676 0.729781 0.746601 -0.420469
C36   C     C_3   0.186723 0.853296 0.725042 -0.962924
C37   C     C_3   0.178299 0.254937 0.296361 0.048069
C38   C     C_3   0.143613 0.314383 0.195731 -0.319541
C39   C     C_3   0.996732 0.292828 0.183044 -0.974294
C40   C     C_3   0.819685 0.856254 0.789282 0.058042
C41   C     C_3   0.760435 0.759926 0.870612 -0.372609
C42   C     C_3   0.848726 0.677677 0.887706 -0.941036
C43   C     C_3   0.499258 0.897040 0.984514 0.054444
C44   C     C_3   0.590674 0.961844 0.055168 -0.377547
C45   C     C_R   0.443367 0.721982 0.068527 0.515906
C46   C     C_3   0.694985 0.049608 0.994084 -0.911781
C47   C     C_R   0.509232 0.597545 0.201442 -0.133899
C48   C     C_R   0.449801 0.297384 0.838627 -0.208044
C49   C     C_R   0.450418 0.266769 0.942961 -0.156251
C50   C     C_R   0.454113 0.344749 0.009122 -0.172207
H1    H     H_    0.045553 0.361146 0.630754 0.141427
H2    H     H_    0.880303 0.320607 0.464237 0.146513
H3    H     H_    0.620782 0.056317 0.652532 0.160764
H4    H     H_    0.402134 0.749035 0.403854 0.213286
H5    H     H_    0.076061 0.466817 0.330748 0.146017
H6    H     H_    0.954273 0.640812 0.364585 0.136873
H7    H     H_    0.118703 0.682974 0.526821 0.137063
H8    H     H_    0.924196 0.537691 0.663958 0.123266
H9    H     H_    0.472928 0.756661 0.221696 0.172717
H10   H     H_    0.351657 0.732099 0.888244 0.196869
H11   H     H_    0.301565 0.709613 0.626137 0.184699
H12   H     H_    0.548631 0.449632 0.159895 0.169782
H13   H     H_    0.391342 0.759673 0.724986 0.116319
H14   H     H_    0.092989 0.687762 0.706527 0.219053
H15   H     H_    0.155372 0.702646 0.829314 0.238446
H16   H     H_    0.269341 0.897172 0.765537 0.266470
H17   H     H_    0.096262 0.874482 0.752474 0.259680
H18   H     H_    0.201375 0.880993 0.641647 0.267421
H19   H     H_    0.134094 0.284789 0.361397 0.166334
H20   H     H_    0.134431 0.166285 0.298601 0.120179
H21   H     H_    0.182047 0.403880 0.192825 0.228062
H22   H     H_    0.190280 0.285706 0.131057 0.231288
H23   H     H_    0.460183 0.237751 0.788148 0.154944
H24   H     H_    0.957948 0.204135 0.180765 0.265853
H25   H     H_    0.975192 0.338976 0.110285 0.272033
H26   H     H_    0.946938 0.319694 0.247126 0.262788
H27   H     H_    0.901076 0.908515 0.824182 0.163442
H28   H     H_    0.864707 0.829429 0.722504 0.134852
H29   H     H_    0.745860 0.791362 0.944026 0.219754
H30   H     H_    0.664151 0.717135 0.847785 0.221272
H31   H     H_    0.863419 0.643318 0.815889 0.255902
H32   H     H_    0.803001 0.609492 0.946993 0.270155
H33   H     H_    0.944386 0.717803 0.914106 0.269373
H34   H     H_    0.457428 0.316206 0.089348 0.156910
H35   H     H_    0.451186 0.955002 0.936515 0.167998
H36   H     H_    0.554957 0.860855 0.930412 0.161211
H37   H     H_    0.533155 0.001414 0.104896 0.232899
H38   H     H_    0.639527 0.905700 0.104626 0.217581
H39   H     H_    0.758246 0.011011 0.948472 0.287632
H40   H     H_    0.756303 0.097767 0.047213 0.258574
H41   H     H_    0.649762 0.106113 0.941911 0.262271
H42   H     H_    0.454517 0.183421 0.972542 0.146706
H43   H     H_    0.310377 0.884652 0.307950 0.165588
H44   H     H_    0.287917 0.070873 0.270083 0.157931
H45   H     H_    0.547969 0.178520 0.562890 0.151002
H46   H     H_    0.679897 0.728303 0.672873 0.161924
N1    N     N_R   0.432930 0.222190 0.444670 -0.134917
N2    N     N_R   0.566370 0.776980 0.554790 -0.153792
O1    O     O_R   0.467970 0.366730 0.627150 -0.632885
O2    O     O_3   0.315296 0.278427 0.303090 -0.623584
O3    O     O_3   0.727684 0.921488 0.761357 -0.663350
O4    O     O_3   0.400258 0.818301 0.041635 -0.660414
O5    O     O_R   0.510820 0.544830 0.662520 -0.595095
O6    O     O_R   0.664630 0.410960 0.482340 -0.626772
O7    O     O_R   0.707470 0.589060 0.517710 -0.619393
O8    O     O_R   0.489180 0.455170 0.337480 -0.560547
O9    O     O_R   0.532030 0.633270 0.372850 -0.645455
O10   O     O_R   0.292530 0.410940 0.482290 -0.608993
O11   O     O_R   0.335370 0.589040 0.517660 -0.648569
O12   O     O_3   0.308873 0.589550 0.746707 -0.633294
Zn1   Zn    Zn3+2 0.471390 0.381080 0.476380 0.967102
Zn2   Zn    Zn3+2 0.528610 0.618920 0.523620 0.926025

loop_
_geom_bond_atom_site_label_1
_geom_bond_atom_site_label_2
_ccdc_geom_bond_type
C23   H8    S    
C6    C45   A    
C37   H19   S    
O9    Zn2   S    
C35   C36   S    
C42   H32   S    
C1    O1    A    
C41   H30   S    
C36   H17   S    
C50   H34   S    
C7    C8    A    
C46   H39   S    
C12   C23   S    
C29   C30   S    
C23   C29   S    
C28   C29   S    
C38   C39   S    
N1    Zn1   S    
C36   H16   S    
C20   C25   A    
C35   H15   S    
C24   H4    S    
C18   C19   A    
C41   C42   S    
C39   H24   S    
C2    C50   A    
C16   O9    A    
C40   O3    S    
C1    C11   S    
C35   H14   S    
C39   H25   S    
C44   H37   S    
C1    O5    A    
C18   C20   A    
C16   O8    A    
C28   C34   S    
C21   C22   A    
C12   C32   S    
C27   C30   S    
C11   C48   A    
C42   H31   S    
C16   C47   S    
C14   H46   S    
C19   N2    A    
C44   C46   S    
C14   N2    A    
C4    C34   S    
O8    Zn1   S    
C38   H22   S    
N2    Zn2   S    
C9    H12   S    
C43   H35   S    
C3    C8    A    
O11   Zn2   S    
C46   H41   S    
O5    Zn2   S    
C32   C34   S    
C43   C44   S    
C5    C9    A    
C37   C38   S    
C8    O12   S    
C31   C32   S    
C30   C31   S    
C33   H13   S    
C23   C34   S    
O1    Zn1   S    
C10   C45   A    
C17   C18   A    
C13   C21   A    
C39   H26   S    
C15   O3    S    
C12   H7    S    
C25   N1    A    
C48   C49   A    
O7    Zn2   S    
C9    C47   A    
C22   H43   S    
C22   C24   A    
C13   C26   A    
C2    C5    A    
C49   H42   S    
C17   H3    S    
C7    H10   S    
C29   H1    S    
C15   C17   A    
C38   H21   S    
C40   C41   S    
C12   C30   S    
C14   C15   A    
C43   H36   S    
C48   H23   S    
C28   C31   S    
C42   H33   S    
C41   H29   S    
O6    Zn1   S    
C36   H18   S    
C25   H45   S    
C6    C7    A    
C46   H40   S    
C4    O7    A    
O10   Zn1   S    
C13   H44   S    
C37   H20   S    
C19   C24   A    
C43   O4    S    
C28   H2    S    
C5    C6    A    
C27   O10   A    
C4    O6    A    
C33   C35   S    
C2    C3    A    
C40   H28   S    
C3    C11   A    
C45   O4    S    
C26   N1    A    
C20   C21   A    
C27   O11   A    
C33   H11   S    
C49   C50   A    
C10   C47   A    
C40   H27   S    
C33   O12   S    
C31   H5    S    
C44   H38   S    
C10   H9    S    
C32   H6    S    
C37   O2    S    
C26   O2    S    
