data_str_m9_o18_o28_f0_sra.sym.67
_audit_creation_date              2013-03-05T15:53:33-0500
_audit_creation_method            fapswitch 2.2
_symmetry_space_group_name_H-M    P1
_symmetry_Int_Tables_number       1
_space_group_crystal_system       triclinic
_cell_length_a                    30.532046
_cell_length_b                    7.247875
_cell_length_c                    25.939186
_cell_angle_alpha                 89.971791
_cell_angle_beta                  112.024708
_cell_angle_gamma                 89.983115
_cell_volume                      5321.24164699

loop_
_atom_site_label
_atom_site_type_symbol
_atom_site_description
_atom_site_fract_x
_atom_site_fract_y
_atom_site_fract_z
_atom_type_partial_charge
O1    O     O_R   0.295360 0.592990 0.320420 -0.579320
O2    O     O_R   0.704640 0.407010 0.679580 -0.587443
O3    O     O_R   0.204640 0.092990 0.179580 -0.578819
O4    O     O_R   0.795360 0.907010 0.820420 -0.587238
O5    O     O_R   0.294060 0.265620 0.213230 -0.581799
O6    O     O_R   0.705940 0.734380 0.786770 -0.563917
O7    O     O_R   0.205940 0.765620 0.286770 -0.582071
O8    O     O_R   0.794060 0.234380 0.713230 -0.564183
C1    C     C_R   0.304581 0.432177 0.199827 0.937641
C2    C     C_R   0.695274 0.567482 0.799869 0.934037
C3    C     C_R   0.195399 0.932165 0.300100 0.937830
C4    C     C_R   0.804783 0.067445 0.700253 0.936821
O9    O     O_R   0.300850 0.263360 0.322080 -0.590017
O10   O     O_R   0.699150 0.736640 0.677920 -0.580779
O11   O     O_R   0.199150 0.763360 0.177920 -0.589495
O12   O     O_R   0.800850 0.236640 0.822080 -0.583012
O13   O     O_R   0.211480 0.091820 0.289210 -0.576186
O14   O     O_R   0.788520 0.908180 0.710790 -0.586958
O15   O     O_R   0.288520 0.591820 0.210790 -0.576215
O16   O     O_R   0.711480 0.408180 0.789210 -0.586774
C5    C     C_R   0.313260 0.431329 0.343243 0.918419
C6    C     C_R   0.686695 0.568568 0.656807 0.920179
C7    C     C_R   0.186703 0.931497 0.156792 0.917822
C8    C     C_R   0.813316 0.068437 0.843190 0.920157
O17   O     O_3   0.220670 0.426670 0.239090 -0.266904
O18   O     O_3   0.779330 0.573330 0.760910 -0.262742
O19   O     O_3   0.279330 0.926670 0.260910 -0.267750
O20   O     O_3   0.720670 0.073330 0.739090 -0.262408
V1    V     V_3+5 0.255440 0.152290 0.252020 1.213188
V2    V     V_3+5 0.744560 0.847710 0.747980 1.223096
V3    V     V_3+5 0.244560 0.652290 0.247980 1.213175
V4    V     V_3+5 0.755440 0.347710 0.752020 1.221330
C9    C     C_R   0.850157 0.063189 0.899640 -0.105545
C10   C     C_R   0.149880 0.936297 0.100318 -0.105500
C11   C     C_R   0.649862 0.563635 0.600364 -0.106840
C12   C     C_R   0.350058 0.435107 0.399752 -0.107184
C13   C     C_R   0.872661 0.122167 0.998434 -0.090186
C14   C     C_R   0.127384 0.875215 0.001623 -0.090688
C15   C     C_R   0.627587 0.617697 0.501387 -0.091100
C16   C     C_R   0.373449 0.355914 0.497440 -0.088812
C17   C     C_R   0.838327 0.113622 0.944533 -0.197502
C18   C     C_R   0.161739 0.885212 0.055493 -0.193249
C19   C     C_R   0.661743 0.612974 0.555432 -0.194405
C20   C     C_R   0.338769 0.372889 0.444001 -0.191174
C21   C     C_R   0.897268 0.022819 0.908144 -0.231492
C22   C     C_R   0.102711 0.975598 0.091785 -0.219941
C23   C     C_R   0.602954 0.519294 0.591715 -0.229290
C24   C     C_R   0.396901 0.481313 0.408584 -0.218893
C25   C     C_R   0.933662 0.031920 0.962083 0.124207
C26   C     C_R   0.066304 0.965002 0.037885 0.122342
C27   C     C_R   0.566471 0.529329 0.537826 0.123357
C28   C     C_R   0.433571 0.466857 0.462245 0.122486
C29   C     C_R   0.920375 0.076442 0.007736 0.076453
C30   C     C_R   0.079612 0.920092 0.992278 0.072227
C31   C     C_R   0.579461 0.581414 0.492475 0.077192
C32   C     C_R   0.420956 0.406051 0.507113 0.072525
C33   C     C_R   0.982660 0.997405 0.972172 0.057086
C34   C     C_R   0.017277 0.998680 0.027795 0.061165
C35   C     C_R   0.517568 0.491824 0.527660 0.057009
C36   C     C_R   0.482311 0.508592 0.472654 0.062588
C37   C     C_R   0.001601 0.030096 0.071656 -0.180387
C38   C     C_R   0.998314 0.964973 0.928337 -0.185574
C39   C     C_R   0.496935 0.567429 0.429866 -0.178892
C40   C     C_R   0.502660 0.440215 0.570856 -0.186165
C41   C     C_R   0.954644 0.068433 0.061834 -0.137369
C42   C     C_R   0.045290 0.926796 0.938185 -0.132076
C43   C     C_R   0.543966 0.603481 0.439615 -0.145266
C44   C     C_R   0.455784 0.400198 0.560873 -0.134901
H1    H     H_    0.945443 0.087267 0.097856 0.182677
H2    H     H_    0.054465 0.907225 0.902173 0.185917
H3    H     H_    0.551849 0.653389 0.404798 0.181088
H4    H     H_    0.447238 0.366371 0.596584 0.186469
H5    H     H_    0.095837 0.013587 0.128177 0.117120
H6    H     H_    0.904106 0.985398 0.871695 0.130664
H7    H     H_    0.403406 0.523685 0.372320 0.116606
H8    H     H_    0.596244 0.482383 0.628273 0.129080
H9    H     H_    0.198081 0.848823 0.062913 0.138952
H10   H     H_    0.802024 0.150473 0.937158 0.145067
H11   H     H_    0.302698 0.331590 0.436296 0.137642
H12   H     H_    0.698298 0.644516 0.562584 0.145432
H13   H     H_    0.024754 0.023717 0.114745 0.156838
H14   H     H_    0.975130 0.970131 0.885248 0.170420
H15   H     H_    0.472785 0.588668 0.387737 0.150911
H16   H     H_    0.526399 0.429224 0.613568 0.169818
C45   C     C_R   0.094391 0.022203 0.482673 0.573748
C46   C     C_R   0.906327 0.053527 0.517663 0.557637
C47   C     C_R   0.405377 0.520572 0.016765 0.574199
C48   C     C_R   0.592950 0.562719 0.982159 0.571392
N1    N     N_R   0.075188 0.015867 0.425667 -0.167003
N2    N     N_R   0.925933 0.066356 0.574556 -0.166656
N3    N     N_R   0.424560 0.517130 0.073806 -0.166784
N4    N     N_R   0.573688 0.573682 0.925210 -0.167854
C49   C     C_R   0.027770 0.042537 0.397444 0.629922
C50   C     C_R   0.973503 0.091301 0.601742 0.603797
C51   C     C_R   0.471751 0.549227 0.102001 0.631460
C52   C     C_R   0.526123 0.599003 0.897701 0.604877
C53   C     C_R   0.997025 0.051418 0.426363 -0.097313
C54   C     C_R   0.004022 0.084130 0.572536 -0.093316
C55   C     C_R   0.502410 0.564806 0.073077 -0.102596
C56   C     C_R   0.495406 0.591862 0.926725 -0.093186
C57   C     C_R   0.015890 0.058437 0.484799 0.022279
C58   C     C_R   0.985023 0.064931 0.514298 0.028253
C59   C     C_R   0.483522 0.568984 0.014588 0.024807
C60   C     C_R   0.514347 0.580537 0.985132 0.028495
C61   C     C_R   0.065565 0.058804 0.513627 -0.133867
C62   C     C_R   0.935356 0.051823 0.485660 -0.126590
C63   C     C_R   0.433921 0.560245 0.985633 -0.133907
C64   C     C_R   0.564020 0.579429 0.013969 -0.135670
C65   C     C_R   0.947963 0.047529 0.397884 -0.113473
C66   C     C_R   0.053084 0.097536 0.600634 -0.116667
C67   C     C_R   0.551413 0.577683 0.101635 -0.113606
C68   C     C_R   0.446277 0.597149 0.898384 -0.115018
C69   C     C_R   0.917117 0.039955 0.426449 -0.105127
C70   C     C_R   0.084011 0.087519 0.572190 -0.107208
C71   C     C_R   0.582363 0.587486 0.073167 -0.107706
C72   C     C_R   0.415352 0.584200 0.926818 -0.107816
O21   O     O_2   0.140750 0.985230 0.509048 -0.503239
O22   O     O_2   0.858956 0.043811 0.492602 -0.511486
O23   O     O_2   0.359339 0.478099 0.990575 -0.502722
O24   O     O_2   0.639536 0.528011 0.007419 -0.502902
O25   O     O_2   0.010325 0.056723 0.341499 -0.477011
O26   O     O_2   0.991232 0.122964 0.657035 -0.479925
O27   O     O_2   0.489051 0.563622 0.157933 -0.475564
O28   O     O_2   0.508545 0.628477 0.842297 -0.478592
H17   H     H_    0.933380 0.039342 0.352845 0.192709
H18   H     H_    0.067660 0.118587 0.645272 0.201476
H19   H     H_    0.565912 0.581807 0.146710 0.201520
H20   H     H_    0.431638 0.613147 0.853549 0.201223
C73   C     C_R   0.897927 0.907477 0.642438 0.509740
C74   C     C_R   0.100954 0.822894 0.361739 0.512360
C75   C     C_R   0.601828 0.411019 0.857896 0.513716
C76   C     C_R   0.399035 0.323743 0.137928 0.512864
C77   C     C_R   0.869393 0.911739 0.675095 -0.296903
C78   C     C_R   0.129142 0.806113 0.328858 -0.294483
C79   C     C_R   0.630557 0.413368 0.825413 -0.296389
C80   C     C_R   0.370811 0.306364 0.170791 -0.294002
C81   C     C_R   0.837094 0.059333 0.669037 -0.259553
C82   C     C_R   0.163746 0.942379 0.332283 -0.264729
C83   C     C_R   0.663129 0.559847 0.831383 -0.261523
C84   C     C_R   0.336172 0.442524 0.167484 -0.264574
C85   C     C_R   0.835060 0.202693 0.631871 -0.054828
C86   C     C_R   0.168695 0.094018 0.367679 -0.073617
C87   C     C_R   0.665516 0.703164 0.868665 -0.057149
C88   C     C_R   0.331157 0.594375 0.132078 -0.072047
H21   H     H_    0.810722 0.316648 0.626228 0.158923
H22   H     H_    0.195029 0.199153 0.371890 0.160558
H23   H     H_    0.690138 0.816075 0.874376 0.161122
H24   H     H_    0.304817 0.699494 0.127942 0.160507
C89   C     C_R   0.863998 0.201919 0.601265 -0.030480
C90   C     C_R   0.139976 0.114155 0.398112 -0.022642
C91   C     C_R   0.636529 0.703938 0.899226 -0.032722
C92   C     C_R   0.359795 0.614741 0.101520 -0.027582
H25   H     H_    0.861914 0.315875 0.573408 0.173410
H26   H     H_    0.144384 0.234463 0.424329 0.180822
H27   H     H_    0.638910 0.817927 0.927140 0.175899
H28   H     H_    0.355325 0.735202 0.075307 0.179139
C93   C     C_R   0.895740 0.057392 0.606255 0.043651
C94   C     C_R   0.105534 0.982790 0.395027 0.038956
C95   C     C_R   0.604203 0.561463 0.893937 0.040109
C96   C     C_R   0.394279 0.483542 0.104528 0.040711
C97   C     C_2   0.857354 0.187867 0.043278 1.013107
O29   O     O_2   0.820009 0.133598 0.045041 -0.590146
O30   O     O_R   0.884340 0.318236 0.081852 -0.785147
H29   H     H_    0.869808 0.353584 0.109767 0.355824
C98   C     C_2   0.142746 0.808877 0.956885 1.013035
O31   O     O_2   0.180034 0.863407 0.955014 -0.588277
O32   O     O_R   0.115894 0.677609 0.918555 -0.783651
H30   H     H_    0.130457 0.641903 0.890697 0.356773
C99   C     C_2   0.644059 0.657450 0.455433 1.016589
O33   O     O_2   0.673311 0.778787 0.460937 -0.595531
O34   O     O_R   0.627941 0.550807 0.406994 -0.769286
H31   H     H_    0.642245 0.590051 0.379189 0.357316
C100  C     C_2   0.358716 0.276004 0.541154 1.011474
O35   O     O_2   0.321856 0.326722 0.545023 -0.587291
O36   O     O_R   0.385591 0.136525 0.576039 -0.786667
H32   H     H_    0.371451 0.091846 0.603472 0.355969
C101  C     C_2   0.866602 0.012727 0.391837 1.133217
O37   O     O_2   0.845974 0.874900 0.397988 -0.553927
O38   O     O_R   0.843449 0.139509 0.349812 -0.767114
H33   H     H_    0.809288 0.104687 0.328166 0.349000
C102  C     C_2   0.134649 0.122252 0.605330 1.130968
O39   O     O_2   0.156896 0.231887 0.588773 -0.566805
O40   O     O_R   0.156190 0.037087 0.657123 -0.767379
H34   H     H_    0.190547 0.073872 0.676320 0.350038
C103  C     C_2   0.632906 0.619037 0.107447 1.132097
O41   O     O_2   0.654843 0.740662 0.094874 -0.570191
O42   O     O_R   0.654690 0.516231 0.156008 -0.766570
H35   H     H_    0.688950 0.552253 0.176465 0.349697
C104  C     C_2   0.364414 0.609798 0.893230 1.131421
O43   O     O_2   0.340903 0.717417 0.908562 -0.566283
O44   O     O_R   0.343961 0.518360 0.842338 -0.767601
H36   H     H_    0.309239 0.549159 0.822690 0.349837
S1    S     S_3+6 0.936264 0.716660 0.646645 -0.012351
O45   O     O_2   0.983712 0.755238 0.691209 -0.210598
O46   O     O_2   0.917118 0.541665 0.661033 -0.292249
O47   O     O_3   0.942823 0.684616 0.585709 -0.564988
H37   H     H_    0.965644 0.581591 0.592538 0.374720
S2    S     S_3+6 0.060819 0.643738 0.362122 -0.013925
O48   O     O_2   0.014035 0.677815 0.315789 -0.212306
O49   O     O_2   0.078969 0.458530 0.353422 -0.300542
O50   O     O_3   0.053158 0.638605 0.423043 -0.563321
H38   H     H_    0.030158 0.537958 0.419027 0.373558
S3    S     S_3+6 0.563229 0.221424 0.853814 -0.010954
O51   O     O_2   0.516089 0.259431 0.808558 -0.210679
O52   O     O_2   0.582599 0.045241 0.840471 -0.292807
O53   O     O_3   0.555902 0.192407 0.914432 -0.563419
H39   H     H_    0.533073 0.089518 0.907677 0.374750
S4    S     S_3+6 0.439635 0.145956 0.137923 -0.012416
O54   O     O_2   0.486159 0.181204 0.184549 -0.207542
O55   O     O_2   0.421749 0.960022 0.146462 -0.300823
O56   O     O_3   0.447788 0.141820 0.077288 -0.562459
H40   H     H_    0.471355 0.042984 0.081742 0.372786
C105  C     C_2   0.876005 0.770768 0.718526 1.161348
O57   O     O_2   0.851460 0.632000 0.707887 -0.603150
O58   O     O_R   0.910330 0.797669 0.771623 -0.796896
H41   H     H_    0.911459 0.692711 0.797943 0.321078
C106  C     C_2   0.119790 0.654446 0.288088 1.164812
O59   O     O_2   0.143838 0.514308 0.300020 -0.613967
O60   O     O_R   0.083076 0.671915 0.236224 -0.776313
H42   H     H_    0.079982 0.559527 0.211854 0.326871
C107  C     C_2   0.623919 0.271344 0.782318 1.161157
O61   O     O_2   0.648754 0.133267 0.793131 -0.603838
O62   O     O_R   0.589142 0.296155 0.729390 -0.795911
H43   H     H_    0.588003 0.190500 0.703318 0.319922
C108  C     C_2   0.380093 0.153936 0.211345 1.164179
O63   O     O_2   0.355975 0.014110 0.199211 -0.615677
O64   O     O_R   0.416831 0.170250 0.263222 -0.772228
H44   H     H_    0.419882 0.057347 0.287419 0.324858

loop_
_geom_bond_atom_site_label_1
_geom_bond_atom_site_label_2
_geom_bond_distance
_ccdc_geom_bond_type
O17   V3    1.770375 S    
C14   C98   1.485436 S    
C55   C59   1.406773 A    
C80   C108  1.477336 S    
C92   C96   1.398781 A    
O1    C5    1.333533 A    
C98   O31   1.223249 D    
C54   C66   1.402106 A    
C47   N3    1.372181 A    
O19   V1    1.769768 S    
O13   V1    1.973624 S    
C99   O33   1.223259 D    
C86   H22   1.083325 S    
C69   C101  1.478363 S    
O30   H29   1.013854 S    
C10   C18   1.391510 A    
C56   C60   1.406849 A    
C72   C104  1.481774 S    
C11   C23   1.401467 A    
C73   C93   1.420527 A    
C97   O29   1.223238 D    
C103  O41   1.223090 D    
C25   C33   1.440551 A    
C33   C38   1.408678 A    
C5    C12   1.475296 S    
C46   C62   1.423616 A    
C100  O35   1.223203 D    
C77   C81   1.422858 A    
C6    C11   1.474690 S    
S3    O52   1.501225 D    
C35   C40   1.408820 A    
C76   C96   1.420442 A    
C36   C39   1.408690 A    
C40   C44   1.386336 A    
C64   C71   1.424807 A    
O9    V1    1.996315 S    
C3    C82   1.497164 S    
C49   O25   1.349164 S    
C23   H8    1.076222 S    
C14   C18   1.399593 A    
C75   C79   1.426168 A    
C16   C100  1.485122 S    
C71   C103  1.481750 S    
C1    C84   1.498900 S    
C51   C55   1.406624 A    
C76   C80   1.426883 A    
C103  O42   1.398110 S    
C43   H3    1.080367 S    
C50   C54   1.405099 A    
C102  O39   1.223119 D    
C60   C64   1.417334 A    
O1    V3    1.983466 S    
C9    C21   1.401752 A    
C73   S1    1.788244 S    
O2    V4    1.983466 S    
O50   H38   0.990787 S    
O3    V1    1.984062 S    
O64   H44   1.013835 S    
C89   H25   1.083170 S    
C40   H16   1.075533 S    
C28   C36   1.441481 A    
O3    C7    1.333273 A    
C80   C84   1.425153 A    
C1    O15   1.328432 A    
C15   C31   1.423799 A    
C48   N4    1.372097 A    
C2    O16   1.325512 A    
S4    O54   1.502586 D    
C16   C32   1.423529 A    
O2    C6    1.332837 A    
N2    C50   1.368068 A    
S2    O48   1.502592 D    
C10   C22   1.401702 A    
C67   C71   1.402392 A    
C91   H27   1.083188 S    
C48   O24   1.347722 S    
C11   C19   1.390918 A    
C66   C70   1.401334 A    
C16   C20   1.398802 A    
C75   S3    1.787717 S    
S1    O45   1.502558 D    
C65   C69   1.400853 A    
C13   C29   1.423477 A    
C7    C10   1.475053 S    
C34   C37   1.408536 A    
O11   C7    1.331437 A    
C38   H14   1.076202 S    
O15   V3    1.973661 S    
C35   C36   1.434263 A    
O12   C8    1.331802 A    
N1    C49   1.368980 A    
C99   O34   1.398479 S    
C24   H7    1.076336 S    
C98   O32   1.398533 S    
C74   C78   1.426011 A    
C83   C87   1.402749 A    
O10   V2    1.996315 S    
C45   C61   1.421168 A    
C97   O30   1.398535 S    
O32   H30   1.013854 S    
O7    C3    1.328098 A    
O5    V1    1.991756 S    
C100  O36   1.398513 S    
N4    C52   1.369079 A    
C57   C61   1.417335 A    
C79   C107  1.477032 S    
S3    O53   1.682316 S    
C39   C43   1.386406 A    
O7    V3    1.991875 S    
C38   C42   1.387040 A    
C62   C69   1.426583 A    
C85   C89   1.391755 A    
O44   H36   1.013875 S    
C26   C34   1.440356 A    
C57   C58   1.420143 A    
C92   H28   1.083038 S    
C61   C70   1.423676 A    
N1    C94   1.449127 S    
C44   H4    1.080426 S    
O62   H43   1.013831 S    
C46   N2    1.372015 A    
C102  O40   1.398116 S    
O60   H42   1.013823 S    
C45   N1    1.371938 A    
O18   V4    1.770376 S    
C15   C19   1.399095 A    
C101  O38   1.397526 S    
C19   H12   1.084997 S    
C32   C44   1.401759 A    
O11   V3    1.995259 S    
C39   H15   1.075640 S    
C21   H6    1.076729 S    
O8    V4    1.991882 S    
C37   H13   1.076296 S    
C87   H23   1.083401 S    
O40   H34   1.013871 S    
O5    C1    1.328501 A    
C107  O61   1.222672 D    
C17   H10   1.085020 S    
C53   C65   1.400172 A    
C31   C43   1.401891 A    
O56   H40   0.990713 S    
C14   C30   1.423561 A    
C21   C25   1.425038 A    
O4    C8    1.332858 A    
O8    C4    1.329371 A    
S1    O47   1.682314 S    
C55   C67   1.401727 A    
S2    O50   1.682387 S    
C47   O23   1.347730 S    
C108  O63   1.222835 D    
O9    C5    1.331147 A    
C46   O22   1.346961 S    
C26   C30   1.425250 A    
C45   O21   1.347830 S    
O34   H31   1.013863 S    
N3    C96   1.449704 S    
C66   H18   1.084319 S    
C73   C77   1.425163 A    
C50   O26   1.349408 S    
C52   O28   1.349153 S    
C65   H17   1.084708 S    
O6    V2    1.991756 S    
C107  O62   1.396774 S    
C56   C68   1.401708 A    
N4    C95   1.449406 S    
C82   C86   1.403848 A    
O14   V2    1.973629 S    
C12   C20   1.391356 A    
C27   C35   1.441467 A    
C2    C83   1.495384 S    
C78   C106  1.477541 S    
C49   C53   1.405757 A    
C68   C72   1.402377 A    
C29   C41   1.402122 A    
C13   C97   1.485405 S    
O16   V4    1.973658 S    
C51   O27   1.349158 S    
C104  O43   1.223097 D    
C41   H1    1.080554 S    
C81   C85   1.402493 A    
C75   C95   1.420713 A    
C90   C94   1.398695 A    
O53   H39   0.990677 S    
C20   H11   1.085179 S    
C84   C88   1.404157 A    
C59   C63   1.417249 A    
O47   H37   0.990669 S    
C3    O13   1.328121 A    
C78   C82   1.424745 A    
C23   C27   1.425508 A    
C76   S4    1.787805 S    
C30   C42   1.402272 A    
C85   H21   1.083386 S    
O12   V4    1.995261 S    
C70   C102  1.482013 S    
C22   C26   1.425064 A    
C8    C9    1.474922 S    
C74   C94   1.420816 A    
C79   C83   1.423165 A    
C77   C105  1.477174 S    
O10   C6    1.331607 A    
N2    C93   1.448652 S    
O20   V2    1.769768 S    
C106  O59   1.222858 D    
C105  O58   1.396801 S    
C9    C17   1.391369 A    
O42   H35   1.013869 S    
C88   C92   1.390818 A    
O36   H32   1.013851 S    
C54   C58   1.407455 A    
C67   H19   1.084318 S    
C86   C90   1.390148 A    
C33   C34   1.433589 A    
C42   H2    1.080545 S    
S4    O56   1.682332 S    
C105  O57   1.222672 D    
C52   C56   1.406622 A    
C87   C91   1.392108 A    
C108  O64   1.396809 S    
C12   C24   1.401705 A    
C27   C31   1.425906 A    
O58   H41   1.013824 S    
C13   C17   1.399440 A    
C106  O60   1.396825 S    
O4    V2    1.984065 S    
C63   C72   1.424793 A    
C68   H20   1.084317 S    
C25   C29   1.425373 A    
O6    C2    1.329505 A    
N3    C51   1.369306 A    
O38   H33   1.013849 S    
C48   C64   1.422079 A    
C37   C41   1.386851 A    
C24   C28   1.425807 A    
C47   C63   1.421973 A    
C18   H9    1.085094 S    
S4    O55   1.501418 D    
C101  O37   1.222953 D    
C90   H26   1.083023 S    
C58   C62   1.419734 A    
C4    O14   1.324976 A    
C59   C60   1.419841 A    
C4    C81   1.493803 S    
S2    O49   1.501202 D    
C15   C99   1.485359 S    
S1    O46   1.501088 D    
S3    O51   1.502566 D    
C104  O44   1.398108 S    
C74   S2    1.788257 S    
C89   C93   1.399461 A    
C22   H5    1.076940 S    
C53   C57   1.406133 A    
C28   C32   1.425788 A    
C91   C95   1.399450 A    
C88   H24   1.083325 S    
