data_str_m9_o4_o17_f0_sra.sym.43
_audit_creation_date              2012-12-11T17:01:18-0500
_audit_creation_method            fapswitch 2.2
_symmetry_space_group_name_H-M    P1
_symmetry_Int_Tables_number       1
_space_group_crystal_system       triclinic
_cell_length_a                    19.219719
_cell_length_b                    7.105724
_cell_length_c                    17.785637
_cell_angle_alpha                 90.002041
_cell_angle_beta                  108.414603
_cell_angle_gamma                 89.994129
_cell_volume                      2304.60988819

loop_
_atom_site_label
_atom_site_type_symbol
_atom_type_description
_atom_site_fract_x
_atom_site_fract_y
_atom_site_fract_z
_atom_type_partial_charge
O1    O     O_R   0.413720 0.494330 0.415730 -0.537532
O2    O     O_R   0.586280 0.994330 0.584270 -0.537708
O3    O     O_R   0.560210 0.819300 0.430070 -0.536786
O4    O     O_R   0.439790 0.319300 0.569930 -0.536813
C1    C     C_R   0.580958 0.655191 0.414394 0.724160
C2    C     C_R   0.419108 0.155161 0.585681 0.723933
O5    O     O_R   0.412670 0.823730 0.406310 -0.548936
O6    O     O_R   0.587330 0.323730 0.593690 -0.548820
O7    O     O_R   0.437690 0.998790 0.560340 -0.536043
O8    O     O_R   0.562310 0.498790 0.439660 -0.535869
C3    C     C_R   0.385312 0.655246 0.383547 0.690762
C4    C     C_R   0.614669 0.155259 0.616471 0.690866
O9    O     O_3   0.508380 0.662350 0.550560 -0.383190
O10   O     O_3   0.491620 0.162350 0.449440 -0.383035
V1    V     V_3+5 0.498450 0.935370 0.490620 1.379865
V2    V     V_3+5 0.501550 0.435370 0.509380 1.380000
C5    C     C_R   0.697351 0.995238 0.738697 0.135401
C6    C     C_R   0.302554 0.494994 0.261404 0.135587
C7    C     C_R   0.682142 0.147676 0.686164 -0.143335
C8    C     C_R   0.317794 0.647554 0.313899 -0.143288
C9    C     C_R   0.732834 0.297799 0.704020 -0.198537
C10   C     C_R   0.267086 0.797656 0.296067 -0.198831
H1    H     H_    0.723304 0.420462 0.666167 0.130558
H2    H     H_    0.276612 0.920298 0.333932 0.130579
C11   C     C_R   0.798471 0.286829 0.768448 -0.178882
C12   C     C_R   0.201467 0.786765 0.231618 -0.178819
H3    H     H_    0.836902 0.402564 0.778773 0.133733
H4    H     H_    0.163043 0.902536 0.221285 0.133699
C13   C     C_R   0.816312 0.123401 0.815828 -0.103806
C14   C     C_R   0.183639 0.623377 0.184218 -0.103700
C15   C     C_R   0.762971 0.982245 0.800734 0.066984
C16   C     C_R   0.236930 0.482089 0.199356 0.066850
C17   C     C_3   0.768396 0.775311 0.789982 -0.437972
C18   C     C_3   0.231328 0.275275 0.210192 -0.437965
C19   C     C_3   0.694867 0.787708 0.724059 -0.045051
C20   C     C_3   0.304835 0.287468 0.276144 -0.044895
H5    H     H_    0.766960 0.693949 0.842417 0.182428
H6    H     H_    0.232706 0.193708 0.157776 0.182235
H7    H     H_    0.814664 0.738851 0.767775 0.152580
H8    H     H_    0.185010 0.239240 0.232381 0.152550
H9    H     H_    0.699436 0.752077 0.664896 0.109095
H10   H     H_    0.300189 0.252192 0.335307 0.108980
C21   C     C_R   0.299694 0.088215 0.604013 -0.249598
C22   C     C_R   0.700886 0.592537 0.396576 -0.249796
C23   C     C_R   0.372393 0.146655 0.637435 -0.071809
C24   C     C_R   0.627736 0.646895 0.362711 -0.071235
C25   C     C_R   0.398543 0.201121 0.717839 0.121346
C26   C     C_R   0.601258 0.698515 0.281985 0.121394
C27   C     C_R   0.350008 0.194573 0.763792 0.119802
C28   C     C_R   0.649768 0.691765 0.236005 0.119982
C29   C     C_R   0.275808 0.136611 0.728987 -0.020373
C30   C     C_R   0.724384 0.637706 0.271215 -0.020237
C31   C     C_R   0.249946 0.085682 0.647981 0.056230
C32   C     C_R   0.750690 0.591146 0.352669 0.056765
C33   C     C_R   0.374204 0.244712 0.844276 -0.190080
C34   C     C_R   0.625158 0.738059 0.155122 -0.190035
C35   C     C_R   0.327922 0.234595 0.890056 -0.198663
C36   C     C_R   0.671456 0.727858 0.109370 -0.198847
C37   C     C_R   0.254465 0.177229 0.857510 0.115330
C38   C     C_R   0.745336 0.674320 0.142310 0.114930
C39   C     C_R   0.227729 0.130786 0.775484 -0.010585
C40   C     C_R   0.772459 0.631784 0.224707 -0.010720
C41   C     C_R   0.153780 0.074172 0.740843 0.028689
C42   C     C_R   0.846854 0.579324 0.259791 0.029956
C43   C     C_R   0.128113 0.017005 0.659900 0.139351
C44   C     C_R   0.873158 0.527965 0.341424 0.138552
C45   C     C_R   0.175336 0.032677 0.612379 0.140306
C46   C     C_R   0.825844 0.544048 0.388828 0.139922
C47   C     C_R   0.207543 0.163998 0.905245 0.097888
C48   C     C_R   0.792340 0.661465 0.094650 0.097918
C49   C     C_R   0.132643 0.121934 0.868725 -0.094494
C50   C     C_R   0.867438 0.622086 0.131352 -0.094159
C51   C     C_R   0.106912 0.077296 0.788191 -0.240557
C52   C     C_R   0.893532 0.581115 0.212214 -0.240032
H11   H     H_    0.282732 0.046170 0.542413 0.126464
H12   H     H_    0.718173 0.552872 0.458465 0.125989
H13   H     H_    0.429630 0.291890 0.873653 0.136404
H14   H     H_    0.569388 0.782149 0.125395 0.136356
H15   H     H_    0.351364 0.273912 0.951492 0.134212
H16   H     H_    0.647647 0.763942 0.047615 0.134622
H17   H     H_    0.049160 0.046077 0.763627 0.125323
H18   H     H_    0.951436 0.551895 0.236808 0.124655
O11   O     O_R   0.937800 0.775460 0.060470 -0.539067
O12   O     O_R   0.062200 0.275460 0.939530 -0.539079
O13   O     O_R   0.087350 0.441340 0.093710 -0.541488
O14   O     O_R   0.912650 0.941340 0.906290 -0.541426
C53   C     C_R   0.114415 0.610489 0.116811 0.688853
C54   C     C_R   0.885566 0.110489 0.883207 0.688880
O15   O     O_R   0.939820 0.446010 0.069950 -0.535975
O16   O     O_R   0.060180 0.946010 0.930050 -0.536028
O17   O     O_R   0.913690 0.271230 0.915700 -0.537838
O18   O     O_R   0.086310 0.771230 0.084300 -0.537862
C55   C     C_R   0.919419 0.614374 0.085351 0.699976
C56   C     C_R   0.080627 0.114345 0.914693 0.699793
O19   O     O_3   0.991670 0.603050 0.949510 -0.373599
O20   O     O_3   0.008330 0.103050 0.050490 -0.373612
V3    V     V_3+5 0.001550 0.329940 0.009370 1.400810
V4    V     V_3+5 0.998450 0.829940 0.990630 1.400842
C57   C     C_3   0.237971 0.176293 0.995235 -0.372015
C58   C     C_3   0.279233 0.995485 0.029230 -0.759866
H19   H     H_    0.242120 0.872196 0.011151 0.228259
H20   H     H_    0.327320 0.974839 0.008342 0.230263
H21   H     H_    0.298983 0.001403 0.094737 0.221866
H22   H     H_    0.273033 0.302279 0.014190 0.161593
H23   H     H_    0.194239 0.195491 0.022624 0.175295
C59   C     C_3   0.761998 0.672981 0.004646 -0.372382
C60   C     C_3   0.721766 0.490919 0.970657 -0.758889
H24   H     H_    0.701475 0.497509 0.905155 0.221689
H25   H     H_    0.759740 0.369151 0.988241 0.228258
H26   H     H_    0.674137 0.467243 0.992026 0.229954
H27   H     H_    0.726288 0.797794 0.985596 0.161598
H28   H     H_    0.805699 0.694215 0.977367 0.175060
C61   C     C_3   0.052741 0.925655 0.626026 -0.337818
C62   C     C_3   0.992826 0.071778 0.591029 -0.772441
H29   H     H_    0.987357 0.169040 0.637640 0.224887
H30   H     H_    0.005591 0.156158 0.544618 0.229152
H31   H     H_    0.939531 0.999436 0.564069 0.218604
H32   H     H_    0.052737 0.818256 0.580895 0.178906
H33   H     H_    0.038647 0.840454 0.671428 0.168358
C63   C     C_3   0.949767 0.444196 0.376629 -0.335819
C64   C     C_3   0.007528 0.597201 0.408445 -0.774314
H34   H     H_    0.012458 0.688179 0.359688 0.224944
H35   H     H_    0.992739 0.687249 0.451995 0.230742
H36   H     H_    0.061622 0.531018 0.438031 0.218971
H37   H     H_    0.951583 0.341330 0.424012 0.178568
H38   H     H_    0.964824 0.355651 0.332784 0.167520
C65   C     C_3   0.146887 0.998110 0.523340 -0.809510
H39   H     H_    0.171656 0.867588 0.508687 0.208653
H40   H     H_    0.086725 0.986072 0.498084 0.219455
H41   H     H_    0.161207 0.119427 0.491707 0.203098
C66   C     C_3   0.854820 0.517185 0.478334 -0.809665
H42   H     H_    0.832291 0.385355 0.494937 0.208766
H43   H     H_    0.915161 0.512568 0.503707 0.219293
H44   H     H_    0.838445 0.638811 0.508191 0.202680
C67   C     C_3   0.631500 0.682760 0.742599 -0.296434
C68   C     C_3   0.600791 0.781011 0.801967 -0.768616
H45   H     H_    0.645268 0.817521 0.856887 0.231327
H46   H     H_    0.571450 0.911216 0.775293 0.225727
H47   H     H_    0.561386 0.686715 0.817483 0.213300
H48   H     H_    0.585875 0.664861 0.686942 0.214683
H49   H     H_    0.649857 0.539148 0.764478 0.181651
C69   C     C_3   0.368074 0.181696 0.257677 -0.296792
C70   C     C_3   0.399321 0.279965 0.198771 -0.768965
H50   H     H_    0.355119 0.317525 0.143751 0.231702
H51   H     H_    0.428858 0.409500 0.225891 0.226044
H52   H     H_    0.438673 0.185302 0.183333 0.213504
H53   H     H_    0.413475 0.162578 0.313428 0.215029
H54   H     H_    0.349427 0.038546 0.235414 0.181724
C71   C     C_3   0.477763 0.262401 0.755254 -0.812680
H55   H     H_    0.504756 0.172343 0.807271 0.198950
H56   H     H_    0.511573 0.251444 0.715311 0.201470
H57   H     H_    0.479272 0.411256 0.774541 0.211068
C72   C     C_3   0.521803 0.757605 0.244342 -0.813016
H58   H     H_    0.519729 0.905766 0.224053 0.211039
H59   H     H_    0.495052 0.665588 0.192930 0.199021
H60   H     H_    0.488158 0.747753 0.284492 0.201174

loop_
_geom_bond_atom_site_label_1
_geom_bond_atom_site_label_2
_ccdc_geom_bond_type
C70   H52   S    
C44   C46   A    
C26   C72   S    
C41   C43   A    
C19   H9    S    
C2    C23   S    
C35   H15   S    
C20   H10   S    
O1    C3    A    
C66   H44   S    
O2    C4    A    
C2    O7    A    
C62   H29   S    
O19   V4    S    
O18   V4    S    
C67   C68   S    
C25   C27   A    
C49   C56   S    
C59   H28   S    
O5    C3    A    
C17   H7    S    
C18   H8    S    
O12   V3    S    
C7    C9    A    
C26   C28   A    
C71   H56   S    
C33   H13   S    
O14   C54   A    
C35   C37   A    
C32   C46   A    
C59   C60   S    
C36   C38   A    
C70   H50   S    
O11   C55   A    
C34   H14   S    
C38   C40   A    
C47   C49   A    
C20   C69   S    
C13   C54   S    
C40   C42   A    
C17   C19   S    
C61   H33   S    
C21   C31   A    
C25   C71   S    
C22   C24   A    
C43   C45   A    
O11   V4    S    
O20   V4    S    
C28   C30   A    
C60   H24   S    
C15   C17   S    
C72   H59   S    
C18   C20   S    
C36   H16   S    
C23   C25   A    
C57   H22   S    
O6    V2    S    
C44   C63   S    
C53   O18   A    
C11   C13   A    
C60   H25   S    
C52   H18   S    
C68   H47   S    
O14   V4    S    
C51   H17   S    
C30   C32   A    
O16   C56   A    
C59   H27   S    
O13   C53   A    
C21   H11   S    
C67   H48   S    
C57   H23   S    
C24   C26   A    
C3    C8    S    
C37   C39   A    
C48   C50   A    
C69   H54   S    
C68   H46   S    
C48   C59   S    
C71   H57   S    
C19   C67   S    
C49   C51   A    
C63   H37   S    
C41   C51   A    
C27   C29   A    
C27   C33   A    
C58   H21   S    
C17   H5    S    
O15   V3    S    
C29   C31   A    
C42   C44   A    
O4    V2    S    
C46   C66   S    
C65   H40   S    
C45   C65   S    
C57   C58   S    
O10   V1    S    
C54   O17   A    
C38   C48   A    
O6    C4    A    
O20   V3    S    
C58   H20   S    
O1    V2    S    
O12   C56   A    
O17   V3    S    
C72   H60   S    
O2    V1    S    
C21   C23   A    
C64   H34   S    
C63   H38   S    
C37   C47   A    
C50   C55   S    
C47   C57   S    
C50   C52   A    
C8    C10   A    
C12   C14   A    
C33   C35   A    
C5    C15   A    
C60   H26   S    
C10   H2    S    
O4    C2    A    
C6    C16   A    
C65   H39   S    
O3    C1    A    
O3    V1    S    
C63   C64   S    
C61   C62   S    
C70   H51   S    
C9    C11   A    
C18   H6    S    
C43   C61   S    
C69   H53   S    
C39   C41   A    
C68   H45   S    
C66   H43   S    
C62   H30   S    
O19   V3    S    
C11   H3    S    
C1    C24   S    
C12   H4    S    
C9    H1    S    
C72   H58   S    
C65   H41   S    
C1    O8    A    
C13   C15   A    
C30   C40   A    
C71   H55   S    
C14   C16   A    
C29   C39   A    
C4    C7    S    
O5    V1    S    
C58   H19   S    
C5    C7    A    
C34   C36   A    
C6    C8    A    
O15   C55   A    
C31   C45   A    
C28   C34   A    
C64   H35   S    
C62   H31   S    
O13   V3    S    
C61   H32   S    
C22   C32   A    
C67   H49   S    
C10   C12   A    
O9    V2    S    
C64   H36   S    
C42   C52   A    
C69   C70   S    
O8    V2    S    
C5    C19   S    
C22   H12   S    
C14   C53   S    
C6    C20   S    
O16   V4    S    
C66   H42   S    
O7    V1    S    
C16   C18   S    
