data_str_m9_o16_o18_f0_sra.sym.10
_audit_creation_date              2012-12-11T15:08:29-0500
_audit_creation_method            fapswitch 2.2
_symmetry_space_group_name_H-M    P1
_symmetry_Int_Tables_number       1
_space_group_crystal_system       triclinic
_cell_length_a                    26.794927
_cell_length_b                    7.075131
_cell_length_c                    11.952798
_cell_angle_alpha                 89.704347
_cell_angle_beta                  103.23941
_cell_angle_gamma                 88.936668
_cell_volume                      2205.2738572

loop_
_atom_site_label
_atom_site_type_symbol
_atom_type_description
_atom_site_fract_x
_atom_site_fract_y
_atom_site_fract_z
_atom_type_partial_charge
O1    O     O_R   0.437360 0.505910 0.042120 -0.537762
O2    O     O_R   0.562640 0.005910 0.957880 -0.540037
O3    O     O_R   0.542480 0.176660 0.157100 -0.543965
O4    O     O_R   0.457520 0.676660 0.842900 -0.535972
C1    C     C_R   0.556561 0.342836 0.198142 0.702660
C2    C     C_R   0.443560 0.846204 0.801892 0.703064
O5    O     O_R   0.436520 0.176250 0.054800 -0.542280
O6    O     O_R   0.563480 0.676250 0.945200 -0.540361
O7    O     O_R   0.455920 0.005040 0.854840 -0.542194
O8    O     O_R   0.544080 0.505040 0.145160 -0.534654
C3    C     C_R   0.417530 0.346290 0.063979 0.698991
C4    C     C_R   0.582536 0.843199 0.936107 0.697894
O9    O     O_3   0.506490 0.338900 0.934520 -0.373921
O10   O     O_3   0.493510 0.838900 0.065480 -0.372228
V1    V     V_3+5 0.498800 0.064400 0.012150 1.440101
V2    V     V_3+5 0.501200 0.564400 0.987850 1.461598
C5    C     C_R   0.682498 0.799760 0.759411 -0.196094
C6    C     C_R   0.317959 0.426446 0.238551 -0.196642
H1    H     H_    0.776408 0.790084 0.723784 0.151589
H2    H     H_    0.224102 0.451061 0.273998 0.149081
H3    H     H_    0.684412 0.773070 0.671109 0.136809
H4    H     H_    0.316272 0.461459 0.325957 0.136596
C7    C     C_R   0.631828 0.844997 0.901448 -0.085447
C8    C     C_R   0.368210 0.360484 0.098068 -0.084873
C9    C     C_R   0.867099 0.888572 0.210725 -0.225695
C10   C     C_R   0.132614 0.325558 0.790109 -0.226951
C11   C     C_R   0.820972 0.894669 0.245708 0.013619
C12   C     C_R   0.178692 0.310831 0.755316 0.012906
C13   C     C_R   0.774403 0.883070 0.164650 -0.210761
C14   C     C_R   0.225371 0.321459 0.836108 -0.210570
C15   C     C_R   0.772922 0.864039 0.045916 0.067153
C16   C     C_R   0.227007 0.348629 0.954330 0.067156
C17   C     C_R   0.820510 0.853103 0.011415 0.064522
C18   C     C_R   0.179520 0.368214 0.988547 0.063967
C19   C     C_R   0.725881 0.852696 0.960499 0.079155
C20   C     C_R   0.274126 0.361241 0.039302 0.079006
C21   C     C_R   0.727762 0.822212 0.844071 0.119816
C22   C     C_R   0.272501 0.402296 0.154717 0.119603
C23   C     C_R   0.774808 0.811908 0.812648 -0.197841
C24   C     C_R   0.225534 0.421157 0.185875 -0.196445
C25   C     C_R   0.820404 0.828980 0.894546 -0.206464
C26   C     C_R   0.179806 0.402370 0.104612 -0.204979
C27   C     C_R   0.676934 0.868868 0.986346 -0.233173
C28   C     C_R   0.322917 0.335849 0.013934 -0.232608
C29   C     C_R   0.634787 0.807048 0.787735 -0.054479
C30   C     C_R   0.365611 0.409391 0.210489 -0.055423
C31   C     C_R   0.867401 0.867219 0.094701 -0.086026
C32   C     C_R   0.132532 0.354406 0.905620 -0.084794
H5    H     H_    0.672366 0.896380 0.072055 0.106426
H6    H     H_    0.327237 0.298704 0.929293 0.106018
H7    H     H_    0.903044 0.899691 0.274133 0.106342
H8    H     H_    0.096557 0.316516 0.726860 0.105737
H9    H     H_    0.740141 0.886748 0.197438 0.116130
H10   H     H_    0.259605 0.311893 0.803389 0.116283
H11   H     H_    0.855744 0.820558 0.865320 0.133644
H12   H     H_    0.144516 0.417894 0.133542 0.132294
C33   C     C_R   0.091620 0.851389 0.310859 -0.033590
C34   C     C_R   0.908548 0.368329 0.688418 -0.034191
C35   C     C_R   0.408977 0.861143 0.687886 -0.043316
C36   C     C_R   0.590971 0.343527 0.312714 -0.043963
C37   C     C_R   0.106858 0.774658 0.512849 -0.148923
C38   C     C_R   0.893307 0.427230 0.484253 -0.150923
C39   C     C_R   0.073049 0.800474 0.406427 -0.168801
C40   C     C_R   0.927064 0.410433 0.591364 -0.166670
C41   C     C_R   0.144217 0.874677 0.321262 -0.202716
C42   C     C_R   0.855990 0.344398 0.678543 -0.204103
C43   C     C_R   0.179651 0.846930 0.428210 0.107333
C44   C     C_R   0.820545 0.364579 0.570895 0.107777
C45   C     C_R   0.159754 0.796848 0.524490 0.156534
C46   C     C_R   0.840426 0.406111 0.473305 0.156995
C47   C     C_R   0.233850 0.867403 0.442870 0.063398
C48   C     C_R   0.766298 0.346689 0.556986 0.063773
C49   C     C_R   0.267170 0.835073 0.553728 0.062700
C50   C     C_R   0.732926 0.372945 0.445537 0.063525
C51   C     C_R   0.245132 0.786734 0.646511 -0.187838
C52   C     C_R   0.754971 0.412951 0.351525 -0.188220
C53   C     C_R   0.192611 0.769128 0.631921 -0.191056
C54   C     C_R   0.807533 0.428015 0.365402 -0.191803
C55   C     C_R   0.255779 0.921179 0.350840 -0.187782
C56   C     C_R   0.744352 0.302100 0.650506 -0.188724
C57   C     C_R   0.308119 0.946267 0.366559 -0.199533
C58   C     C_R   0.691938 0.280661 0.635887 -0.199390
C59   C     C_R   0.340962 0.917060 0.473923 0.122018
C60   C     C_R   0.659053 0.303694 0.528028 0.121915
C61   C     C_R   0.321326 0.856862 0.568674 0.081420
C62   C     C_R   0.678700 0.354014 0.431452 0.081851
C63   C     C_R   0.393454 0.951009 0.487579 -0.131872
C64   C     C_R   0.606526 0.272335 0.515732 -0.131926
C65   C     C_R   0.427010 0.927073 0.594505 -0.128971
C66   C     C_R   0.572982 0.287797 0.408305 -0.124809
C67   C     C_R   0.356854 0.824381 0.675083 -0.220499
C68   C     C_R   0.643132 0.378769 0.324201 -0.221455
H13   H     H_    0.177536 0.732877 0.705903 0.131837
H14   H     H_    0.822591 0.458573 0.290565 0.131366
H15   H     H_    0.345449 0.774709 0.750641 0.099045
H16   H     H_    0.654608 0.418999 0.246919 0.099430
H17   H     H_    0.467025 0.960655 0.604534 0.137778
H18   H     H_    0.533022 0.254441 0.399500 0.138660
H19   H     H_    0.323010 0.990664 0.293739 0.139175
H20   H     H_    0.677032 0.243383 0.709960 0.138601
H21   H     H_    0.091676 0.735424 0.586161 0.110144
H22   H     H_    0.908481 0.460080 0.409931 0.110460
H23   H     H_    0.032419 0.779722 0.398366 0.101221
H24   H     H_    0.967617 0.432166 0.598858 0.101394
H25   H     H_    0.155958 0.910549 0.243592 0.098722
H26   H     H_    0.844216 0.316302 0.757215 0.099246
H27   H     H_    0.267284 0.763575 0.732805 0.125461
H28   H     H_    0.732767 0.432080 0.264924 0.125139
H29   H     H_    0.233544 0.948312 0.265045 0.135900
H30   H     H_    0.766626 0.279578 0.736755 0.135821
H31   H     H_    0.408393 0.000058 0.415829 0.124656
H32   H     H_    0.591582 0.230681 0.588959 0.124545
O11   O     O_R   0.955980 0.206520 0.854760 -0.536751
O12   O     O_R   0.044020 0.706520 0.145240 -0.539699
O13   O     O_R   0.063490 0.536770 0.945200 -0.541552
O14   O     O_R   0.936510 0.036770 0.054800 -0.540073
C69   C     C_R   0.082807 0.367066 0.937664 0.687938
C70   C     C_R   0.917119 0.869925 0.062230 0.687347
O15   O     O_R   0.957530 0.536190 0.842880 -0.542107
O16   O     O_R   0.042470 0.036190 0.157120 -0.538932
O17   O     O_R   0.937350 0.707210 0.042130 -0.538972
O18   O     O_R   0.062650 0.207210 0.957870 -0.537092
C71   C     C_R   0.943217 0.369419 0.802396 0.691098
C72   C     C_R   0.056745 0.866105 0.197478 0.691751
O19   O     O_3   0.993540 0.373870 0.065440 -0.373371
O20   O     O_3   0.006460 0.873870 0.934560 -0.372988
V3    V     V_3+5 0.001200 0.648440 0.987860 1.421625
V4    V     V_3+5 0.998800 0.148440 0.012140 1.429828
C73   C     C_1   0.589500 0.772493 0.698874 0.264568
N1    N     N_1   0.553392 0.743744 0.627354 -0.358268
C74   C     C_1   0.411205 0.445173 0.298186 0.264388
N2    N     N_1   0.447559 0.475019 0.368778 -0.358443
C75   C     C_1   0.821385 0.910891 0.366071 0.306110
N3    N     N_1   0.821686 0.923093 0.462737 -0.357631
C76   C     C_1   0.178111 0.289628 0.635181 0.304620
N4    N     N_1   0.177663 0.273858 0.538645 -0.355684

loop_
_geom_bond_atom_site_label_1
_geom_bond_atom_site_label_2
_ccdc_geom_bond_type
C59   C63   A    
C51   H27   S    
O20   V3    S    
C7    C29   A    
C46   C54   A    
C12   C76   S    
C42   C44   A    
O1    C3    A    
O2    C4    A    
O15   C71   A    
C2    O7    A    
C47   C55   A    
C61   C67   A    
O13   V3    S    
C76   N4    T    
C23   C25   A    
O11   V4    S    
O5    C3    A    
C14   H10   S    
C4    C7    S    
C34   C71   S    
C50   C52   A    
C16   C20   A    
C19   C21   A    
C52   C54   A    
O17   V3    S    
H2    C24   S    
C63   H31   S    
C37   C45   A    
C3    C8    S    
C68   H16   S    
C7    C27   A    
C11   C13   A    
C38   C46   A    
C35   C65   A    
C37   C39   A    
C25   H11   S    
C38   C40   A    
C26   H12   S    
C45   C53   A    
C34   C42   A    
C31   C70   S    
C41   C43   A    
C18   C26   A    
O19   V4    S    
C15   C17   A    
C19   C27   A    
C9    C31   A    
C10   C32   A    
O12   C72   A    
O6    V2    S    
O5    V1    S    
C52   H28   S    
C22   C24   A    
O18   V4    S    
C49   C51   A    
C42   H26   S    
C6    C30   A    
C41   H25   S    
C57   C59   A    
C33   C39   A    
C36   C68   A    
C34   C40   A    
C55   H29   S    
C11   C75   S    
C48   C50   A    
C33   C41   A    
C30   C74   S    
C47   C49   A    
C27   H5    S    
C35   C67   A    
C57   H19   S    
O13   C69   A    
C5    H3    S    
C48   C56   A    
C65   H17   S    
C44   C48   A    
C43   C45   A    
C70   O17   A    
C16   C18   A    
O4    V2    S    
C37   H21   S    
C69   O18   A    
C9    H7    S    
C10   H8    S    
O11   C71   A    
O6    C4    A    
O1    V2    S    
C5    C21   A    
C50   C62   A    
O2    V1    S    
C51   C53   A    
C49   C61   A    
H1    C23   S    
C39   H23   S    
C59   C61   A    
C64   C66   A    
C58   C60   A    
C63   C65   A    
C75   N3    T    
C17   C31   A    
C15   C19   A    
C20   C28   A    
O4    C2    A    
C18   C32   A    
C74   N2    T    
O3    V1    S    
C55   C57   A    
C73   N1    T    
C28   H6    S    
C40   H24   S    
O20   V4    S    
C1    C36   S    
C6    H4    S    
C58   H20   S    
C2    C35   S    
C60   C64   A    
C5    C29   A    
C24   C26   A    
O3    C1    A    
O16   V4    S    
C32   C69   S    
C36   C66   A    
C9    C11   A    
C10   C12   A    
C8    C30   A    
C12   C14   A    
O7    V1    S    
C17   C25   A    
C1    O8    A    
C21   C23   A    
O8    V2    S    
C33   C72   S    
C14   C16   A    
O12   V3    S    
C13   H9    S    
C54   H14   S    
C8    C28   A    
C29   C73   S    
C53   H13   S    
C56   C58   A    
O14   C70   A    
C43   C47   A    
C6    C22   A    
C20   C22   A    
C67   H15   S    
C64   H32   S    
C13   C15   A    
O14   V4    S    
O9    V2    S    
C56   H30   S    
O19   V3    S    
C44   C46   A    
O10   V1    S    
C60   C62   A    
C62   C68   A    
C66   H18   S    
O16   C72   A    
C38   H22   S    
O15   V3    S    
