data_str_m9_o4_o18_f0_sra.sym.66
_audit_creation_date              2012-12-11T17:02:18-0500
_audit_creation_method            fapswitch 2.2
_symmetry_space_group_name_H-M    P1
_symmetry_Int_Tables_number       1
_space_group_crystal_system       triclinic
_cell_length_a                    21.648908
_cell_length_b                    7.060612
_cell_length_c                    14.825663
_cell_angle_alpha                 90.007643
_cell_angle_beta                  106.43971
_cell_angle_gamma                 90.005958
_cell_volume                      2173.5244315

loop_
_atom_site_label
_atom_site_type_symbol
_atom_type_description
_atom_site_fract_x
_atom_site_fract_y
_atom_site_fract_z
_atom_type_partial_charge
O1    O     O_R   0.585850 0.505770 0.002130 -0.536612
O2    O     O_R   0.414150 0.005770 0.997870 -0.536650
O3    O     O_R   0.467530 0.173560 0.861970 -0.536947
O4    O     O_R   0.532470 0.673560 0.138030 -0.536919
C1    C     C_R   0.455208 0.343957 0.825010 0.686280
C2    C     C_R   0.544797 0.843999 0.174981 0.686088
O5    O     O_R   0.588690 0.175900 0.993250 -0.546868
O6    O     O_R   0.411310 0.675900 0.006750 -0.546867
O7    O     O_R   0.536170 0.007950 0.130090 -0.536747
O8    O     O_R   0.463830 0.507950 0.869910 -0.536700
C3    C     C_R   0.615106 0.344735 0.997824 0.693792
C4    C     C_R   0.384894 0.844724 0.002180 0.693596
O9    O     O_3   0.482630 0.339970 0.044740 -0.372421
O10   O     O_3   0.517370 0.839970 0.955260 -0.372345
V1    V     V_3+5 0.503220 0.064200 0.991700 1.425599
V2    V     V_3+5 0.496780 0.564200 0.008300 1.425613
C5    C     C_R   0.276804 0.006786 0.957496 0.102571
C6    C     C_R   0.723267 0.506504 0.042788 0.102173
C7    C     C_R   0.315665 0.852890 0.998257 -0.102381
C8    C     C_R   0.684336 0.352893 0.001751 -0.101982
C9    C     C_R   0.285427 0.701632 0.031074 -0.149871
C10   C     C_R   0.714523 0.201770 0.968734 -0.148463
H1    H     H_    0.312996 0.578528 0.062056 0.139871
H2    H     H_    0.686917 0.078785 0.937606 0.139820
C11   C     C_R   0.220212 0.713077 0.030034 -0.122630
C12   C     C_R   0.779740 0.213215 0.969774 -0.123050
H3    H     H_    0.199669 0.597879 0.060075 0.132387
H4    H     H_    0.800239 0.098170 0.939559 0.132528
C13   C     C_R   0.183202 0.876235 0.996200 -0.072800
C14   C     C_R   0.816808 0.376199 0.003842 -0.072981
C15   C     C_R   0.212379 0.018244 0.956489 0.089416
C16   C     C_R   0.787697 0.517919 0.043842 0.089700
C17   C     C_3   0.216790 0.226153 0.974597 -0.393690
C18   C     C_3   0.783433 0.726042 0.026344 -0.393027
C19   C     C_3   0.287097 0.213637 0.975644 -0.386521
C20   C     C_3   0.713097 0.713547 0.025184 -0.385974
H5    H     H_    0.210131 0.263055 0.044092 0.212230
H6    H     H_    0.790168 0.763755 0.957002 0.213037
H7    H     H_    0.186779 0.308627 0.914117 0.159103
H8    H     H_    0.813470 0.807827 0.087091 0.158716
H9    H     H_    0.321246 0.243033 0.045801 0.191022
H10   H     H_    0.678995 0.743634 0.955082 0.191610
H11   H     H_    0.297596 0.288835 0.915752 0.154963
H12   H     H_    0.702610 0.788143 0.085251 0.154499
C21   C     C_R   0.928173 0.883772 0.722610 -0.060679
C22   C     C_R   0.071766 0.384177 0.277419 -0.061825
C23   C     C_R   0.573941 0.845687 0.276927 -0.040788
C24   C     C_R   0.426063 0.345395 0.723048 -0.041245
C25   C     C_R   0.941113 0.914904 0.566840 -0.159512
C26   C     C_R   0.059023 0.420106 0.433083 -0.158728
C27   C     C_R   0.967502 0.916725 0.664120 -0.169377
C28   C     C_R   0.032597 0.420308 0.335811 -0.169053
C29   C     C_R   0.862674 0.845107 0.683607 -0.094781
C30   C     C_R   0.137141 0.344022 0.316545 -0.094465
C31   C     C_R   0.835792 0.827881 0.585501 0.134108
C32   C     C_R   0.164034 0.328649 0.414731 0.134415
C33   C     C_R   0.875354 0.876132 0.527304 0.139046
C34   C     C_R   0.124667 0.380009 0.472740 0.139205
C35   C     C_R   0.769538 0.781689 0.543587 -0.072628
C36   C     C_R   0.230180 0.281460 0.456806 -0.072135
C37   C     C_R   0.741140 0.828308 0.446597 0.021525
C38   C     C_R   0.258765 0.329838 0.553542 0.021954
C39   C     C_R   0.782363 0.877834 0.391360 -0.147758
C40   C     C_R   0.217733 0.382475 0.608568 -0.147580
C41   C     C_R   0.848447 0.893661 0.430641 -0.192377
C42   C     C_R   0.151686 0.399457 0.569286 -0.191917
C43   C     C_R   0.730317 0.690034 0.593310 0.434356
C44   C     C_R   0.269117 0.187229 0.407466 0.433984
C45   C     C_R   0.663488 0.695100 0.556710 -0.227351
C46   C     C_R   0.335965 0.191226 0.443922 -0.227462
C47   C     C_R   0.634415 0.760823 0.465991 0.054526
C48   C     C_R   0.365264 0.258353 0.534315 0.054621
C49   C     C_R   0.672735 0.820034 0.407836 0.088563
C50   C     C_R   0.327153 0.320234 0.592281 0.088691
C51   C     C_R   0.567072 0.752190 0.430430 -0.121634
C52   C     C_R   0.432586 0.248383 0.569831 -0.121698
C53   C     C_R   0.537180 0.791843 0.336242 -0.159525
C54   C     C_R   0.462629 0.289113 0.663857 -0.158931
C55   C     C_R   0.640800 0.864997 0.312757 -0.184414
C56   C     C_R   0.359256 0.366231 0.687191 -0.184578
H13   H     H_    0.878262 0.930539 0.385527 0.119284
H14   H     H_    0.122022 0.438797 0.614243 0.119248
H15   H     H_    0.666384 0.906078 0.263243 0.086666
H16   H     H_    0.333811 0.408984 0.736621 0.086957
H17   H     H_    0.485581 0.773019 0.308627 0.122861
H18   H     H_    0.514172 0.269049 0.691497 0.123356
H19   H     H_    0.633815 0.633215 0.596977 0.171707
H20   H     H_    0.365440 0.127331 0.403899 0.171598
H21   H     H_    0.971789 0.948119 0.522499 0.122877
H22   H     H_    0.028494 0.455821 0.477297 0.122659
H23   H     H_    0.018217 0.947885 0.693822 0.108046
H24   H     H_    0.981999 0.452862 0.306013 0.108237
H25   H     H_    0.832838 0.837660 0.730603 0.162104
H26   H     H_    0.166925 0.334327 0.269552 0.162206
H27   H     H_    0.765337 0.903318 0.316852 0.113568
H28   H     H_    0.234880 0.409732 0.682907 0.113532
H29   H     H_    0.537675 0.705720 0.474516 0.123965
H30   H     H_    0.461821 0.199892 0.525893 0.123925
O11   O     O_R   0.036080 0.231270 0.130120 -0.527584
O12   O     O_R   0.963920 0.731270 0.869880 -0.527800
O13   O     O_R   0.911300 0.558970 0.006750 -0.536357
O14   O     O_R   0.088700 0.058970 0.993250 -0.536451
C57   C     C_R   0.884742 0.389908 0.001424 0.698265
C58   C     C_R   0.115262 0.889921 0.998597 0.699955
O15   O     O_R   0.032450 0.561140 0.138040 -0.544428
O16   O     O_R   0.967550 0.061140 0.861960 -0.544289
O17   O     O_R   0.085870 0.728910 0.002130 -0.548648
O18   O     O_R   0.914130 0.228910 0.997870 -0.548612
C59   C     C_R   0.045053 0.392636 0.175267 0.696075
C60   C     C_R   0.954941 0.892582 0.824738 0.696157
O19   O     O_3   0.017320 0.394650 0.955270 -0.375135
O20   O     O_3   0.982680 0.894650 0.044730 -0.375050
V3    V     V_3+5 0.996780 0.670490 0.008300 1.438783
V4    V     V_3+5 0.003220 0.170490 0.991700 1.438930
S1    S     S_3+6 0.760144 0.525069 0.686498 -0.043719
O21   O     O_2   0.760553 0.615402 0.778483 -0.375128
O22   O     O_2   0.716205 0.355830 0.671052 -0.331263
O23   O     O_3   0.834682 0.450147 0.690583 -0.511504
H31   H     H_    0.848416 0.371211 0.748076 0.354777
S2    S     S_3+6 0.238811 0.020587 0.315186 -0.043867
O24   O     O_2   0.238506 0.108260 0.222672 -0.374554
O25   O     O_2   0.282347 0.850429 0.331467 -0.331653
O26   O     O_3   0.164128 0.947919 0.311679 -0.511677
H32   H     H_    0.150315 0.866703 0.255012 0.355264

loop_
_geom_bond_atom_site_label_1
_geom_bond_atom_site_label_2
_ccdc_geom_bond_type
C14   C16   A    
C39   C41   A    
O12   C60   A    
C31   C35   A    
S1    O22   D    
C20   H10   S    
O1    C3    A    
C23   C55   A    
C56   H16   S    
C46   H20   S    
O11   V4    S    
O20   V4    S    
O26   H32   S    
O5    C3    A    
C17   H7    S    
O16   V4    S    
C18   H8    S    
O15   V3    S    
C7    C9    A    
C52   C54   A    
C17   C19   S    
C21   C27   A    
O18   V4    S    
S1    O21   D    
O11   C59   A    
C39   H27   S    
C51   H29   S    
C25   C33   A    
C36   C38   A    
C24   C54   A    
C45   C47   A    
C43   S1    S    
O23   H31   S    
O17   V3    S    
C38   C40   A    
C35   C43   A    
C34   C42   A    
C25   C27   A    
C26   H22   S    
C14   C57   S    
C26   C28   A    
C15   C17   S    
C57   O18   A    
C19   H11   S    
C18   C20   S    
C45   H19   S    
S2    O26   S    
C48   C52   A    
C27   H23   S    
C54   H18   S    
O5    V1    S    
O2    C4    A    
O6    V2    S    
C50   C56   A    
C2    O7    A    
O20   V3    S    
S2    O25   D    
C22   C59   S    
C29   C31   A    
C11   C13   A    
C1    C24   S    
C30   C32   A    
C3    C8    S    
C35   C37   A    
C2    C23   S    
C29   H25   S    
C26   C34   A    
C40   H28   S    
C48   C50   A    
C25   H21   S    
C47   C49   A    
C21   C60   S    
C37   C49   A    
C21   C29   A    
C17   H5    S    
C32   C36   A    
C13   C58   S    
C43   C45   A    
C40   C42   A    
O4    V2    S    
O14   V4    S    
C42   H14   S    
C41   H13   S    
O6    C4    A    
S1    O23   S    
C22   C30   A    
C37   C39   A    
C49   C55   A    
O19   V3    S    
O1    V2    S    
O14   C58   A    
O2    V1    S    
C51   C53   A    
O4    C2    A    
C8    C10   A    
C12   C14   A    
C31   C33   A    
C5    C15   A    
C10   H2    S    
C28   H24   S    
C6    C16   A    
C23   C53   A    
O3    V1    S    
S2    O24   D    
O16   C60   A    
C9    C11   A    
C18   H6    S    
O12   V3    S    
C33   C41   A    
O3    C1    A    
C11   H3    S    
C12   H4    S    
C24   C56   A    
C9    H1    S    
O7    V1    S    
C1    O8    A    
C13   C15   A    
O8    V2    S    
C44   S2    S    
C22   C28   A    
C47   C51   A    
C6    C20   S    
O15   C59   A    
C4    C7    S    
C5    C7    A    
C32   C34   A    
O19   V4    S    
C6    C8    A    
O13   V3    S    
C19   H9    S    
C30   H26   S    
C20   H12   S    
C53   H17   S    
C55   H15   S    
C36   C44   A    
O13   C57   A    
C10   C12   A    
O9    V2    S    
C44   C46   A    
O10   V1    S    
C38   C50   A    
C46   C48   A    
C5    C19   S    
C52   H30   S    
C58   O17   A    
C16   C18   S    
