data_str_m3_o5_o28_f0_pcu.sym.49
_audit_creation_date              2012-12-10T20:50:28-0500
_audit_creation_method            fapswitch 2.2
_symmetry_space_group_name_H-M    P1
_symmetry_Int_Tables_number       1
_space_group_crystal_system       triclinic
_cell_length_a                    23.543956
_cell_length_b                    8.92796
_cell_length_c                    8.086576
_cell_angle_alpha                 89.924372
_cell_angle_beta                  90.000149
_cell_angle_gamma                 89.999781
_cell_volume                      1699.79273018

loop_
_atom_site_label
_atom_site_type_symbol
_atom_type_description
_atom_site_fract_x
_atom_site_fract_y
_atom_site_fract_z
_atom_type_partial_charge
C1    C     C_R   0.499957 0.217928 0.500068 0.938310
C2    C     C_R   0.792838 0.500046 0.500010 0.209363
C3    C     C_R   0.389110 0.500000 0.500000 0.891732
C4    C     C_R   0.611165 0.500002 0.500000 0.890355
C5    C     C_R   0.296878 0.589626 0.615461 0.100109
C6    C     C_R   0.704275 0.436790 0.635405 0.106478
C7    C     C_R   0.296876 0.410406 0.384525 0.100120
C8    C     C_R   0.704272 0.563260 0.364607 0.106468
C9    C     C_R   0.326976 0.500009 0.499997 -0.072076
C10   C     C_R   0.673778 0.500015 0.500002 -0.082611
C11   C     C_R   0.881876 0.633145 0.482457 0.509632
C12   C     C_R   0.499957 0.782072 0.499931 0.938306
C13   C     C_R   0.119561 0.368484 0.528529 0.512074
C14   C     C_R   0.881875 0.366947 0.517548 0.509630
C15   C     C_R   0.119562 0.631597 0.471443 0.512076
C16   C     C_R   0.941141 0.364700 0.521980 -0.013390
C17   C     C_R   0.060290 0.634788 0.473443 -0.013373
C18   C     C_R   0.941141 0.635391 0.478018 -0.013389
C19   C     C_R   0.060290 0.365296 0.526538 -0.013371
C20   C     C_R   0.970889 0.500045 0.499997 -0.021665
C21   C     C_R   0.030544 0.500043 0.499993 -0.022007
C22   C     C_R   0.971162 0.230798 0.547384 -0.162776
C23   C     C_1   0.499921 0.065186 0.500098 -0.192603
C24   C     C_R   0.030254 0.768819 0.449075 -0.163298
C25   C     C_R   0.971163 0.769291 0.452610 -0.162776
C26   C     C_R   0.030253 0.231267 0.550911 -0.163298
C27   C     C_3   0.326412 0.691903 0.736768 -0.824349
C28   C     C_3   0.675669 0.360613 0.780178 -0.823403
C29   C     C_3   0.326407 0.308107 0.263230 -0.824338
C30   C     C_3   0.675661 0.639427 0.219832 -0.823407
C31   C     C_1   0.499921 0.934814 0.499902 -0.192604
C32   C     C_R   0.237722 0.586800 0.614856 -0.090520
C33   C     C_R   0.763428 0.441098 0.634551 -0.093447
C34   C     C_R   0.237719 0.413260 0.385115 -0.090515
C35   C     C_R   0.763425 0.558984 0.365469 -0.093454
C36   C     C_R   0.208386 0.500036 0.499982 0.208945
H1    H     H_    0.949125 0.125719 0.566156 0.190643
H2    H     H_    0.348882 0.624684 0.831963 0.255546
H3    H     H_    0.357111 0.765070 0.670699 0.235497
H4    H     H_    0.706771 0.303850 0.862436 0.233395
H5    H     H_    0.652827 0.444407 0.856434 0.250068
H6    H     H_    0.645708 0.273663 0.735171 0.245365
H7    H     H_    0.295855 0.234173 0.197762 0.238261
H8    H     H_    0.348882 0.375311 0.168030 0.255541
H9    H     H_    0.357101 0.234933 0.329311 0.235491
H10   H     H_    0.706758 0.696209 0.137579 0.233395
H11   H     H_    0.652826 0.555623 0.143572 0.250070
H12   H     H_    0.052257 0.873609 0.427904 0.189886
H13   H     H_    0.645693 0.726359 0.264840 0.245365
H14   H     H_    0.949126 0.874371 0.433841 0.190642
H15   H     H_    0.052257 0.126477 0.572079 0.189886
H16   H     H_    0.213933 0.652836 0.703370 0.163076
H17   H     H_    0.787238 0.396916 0.738452 0.161795
H18   H     H_    0.213929 0.347233 0.296596 0.163074
H19   H     H_    0.787232 0.603177 0.261569 0.161801
H20   H     H_    0.295862 0.765843 0.802239 0.238258
N1    N     N_R   0.853537 0.500047 0.500006 -0.349326
N2    N     N_R   0.147797 0.500040 0.499984 -0.349682
N3    N     N_1   0.500000 0.500000 0.073640 -0.038365
N4    N     N_1   0.500000 0.500000 0.926360 -0.038365
O1    O     O_R   0.500000 0.285350 0.636850 -0.614739
O2    O     O_2   0.148862 0.241610 0.559930 -0.542583
O3    O     O_2   0.852719 0.237139 0.529100 -0.538361
O4    O     O_2   0.148863 0.758470 0.440040 -0.542582
O5    O     O_R   0.500000 0.714650 0.363150 -0.614740
O6    O     O_R   0.500000 0.714650 0.636850 -0.614353
O7    O     O_R   0.500000 0.285350 0.363150 -0.614352
O8    O     O_R   0.416160 0.500000 0.636910 -0.618753
O9    O     O_R   0.583840 0.500000 0.363090 -0.618975
O10   O     O_R   0.583840 0.500000 0.636910 -0.618975
O11   O     O_R   0.416160 0.500000 0.363090 -0.618751
O12   O     O_2   0.852719 0.762953 0.470904 -0.538363
Zn1   Zn    Zn3+2 0.500000 0.500000 0.682780 0.981641
Zn2   Zn    Zn3+2 0.500000 0.500000 0.317220 0.981641

loop_
_geom_bond_atom_site_label_1
_geom_bond_atom_site_label_2
_ccdc_geom_bond_type
C2    C35   A    
C6    C10   A    
O11   Zn2   S    
C3    O11   A    
C15   O4    S    
C14   N1    A    
C11   C18   A    
C5    C9    A    
C3    C9    S    
C13   O2    S    
C11   O12   S    
C17   C21   A    
C12   O5    A    
N4    Zn1   S    
C34   C36   A    
C3    O8    A    
C6    C33   A    
C16   C20   A    
C5    C32   A    
C8    C30   S    
C20   C21   A    
O10   Zn1   S    
C4    O10   A    
C2    N1    S    
O9    Zn2   S    
C29   H8    S    
O7    Zn2   S    
C5    C27   S    
C26   H15   S    
C29   H7    S    
O6    Zn1   S    
N3    Zn2   S    
C18   C25   A    
C7    C29   S    
C14   O3    S    
C32   C36   A    
C2    C33   A    
C28   H6    S    
C4    O9    A    
C1    O7    A    
C30   H13   S    
C34   H18   S    
C1    C23   S    
C36   N2    S    
C12   C31   S    
C33   H17   S    
C15   N2    A    
C14   C16   A    
C24   C25   A    
C17   C24   A    
C28   H4    S    
C27   H2    S    
C35   H19   S    
C24   H12   S    
C7    C9    A    
C30   H11   S    
N3    N4    T    
C1    O1    A    
C7    C34   A    
C18   C20   A    
C8    C10   A    
C22   C26   A    
C28   H5    S    
C29   H9    S    
C15   C17   A    
C19   C26   A    
C13   C19   A    
C27   H20   S    
C32   H16   S    
C16   C22   A    
C13   N2    A    
O1    Zn1   S    
O8    Zn1   S    
C11   N1    A    
C22   H1    S    
C12   O6    A    
C25   H14   S    
C30   H10   S    
C6    C28   S    
O5    Zn2   S    
C4    C10   S    
C27   H3    S    
C19   C21   A    
C8    C35   A    
C23   C31   T    
