data_str_m3_o10_o15_f0_pcu.sym.15
_audit_creation_date              2012-12-10T16:50:56-0500
_audit_creation_method            fapswitch 2.2
_symmetry_space_group_name_H-M    P1
_symmetry_Int_Tables_number       1
_space_group_crystal_system       triclinic
_cell_length_a                    8.042459
_cell_length_b                    8.546761
_cell_length_c                    10.545505
_cell_angle_alpha                 90.988975
_cell_angle_beta                  88.18862
_cell_angle_gamma                 92.776512
_cell_volume                      723.563567636

loop_
_atom_site_label
_atom_site_type_symbol
_atom_type_description
_atom_site_fract_x
_atom_site_fract_y
_atom_site_fract_z
_atom_type_partial_charge
C1    C     C_R   0.544122 0.793101 0.497033 0.941688
C2    C     C_R   0.936785 0.507287 0.076531 -0.064025
C3    C     C_R   0.069639 0.598799 0.027248 -0.142994
C4    C     C_R   0.930313 0.400709 0.972619 -0.143032
C5    C     C_R   0.210574 0.612094 0.101084 -0.217832
C6    C     C_R   0.789354 0.387424 0.898805 -0.217811
C7    C     C_R   0.351913 0.536311 0.060850 0.095434
C8    C     C_R   0.648027 0.463202 0.939070 0.095458
C9    C     C_R   0.352445 0.457320 0.943764 0.087925
C10   C     C_R   0.647511 0.542196 0.056148 0.087898
C11   C     C_R   0.498516 0.553885 0.125352 -0.245128
C12   C     C_R   0.455878 0.206899 0.502965 0.941561
C13   C     C_R   0.501436 0.445714 0.874563 -0.245172
C14   C     C_2   0.566828 0.957010 0.495163 -0.382389
C15   C     C_2   0.433172 0.042989 0.504836 -0.382356
C16   C     C_R   0.501108 0.479078 0.738587 0.872255
C17   C     C_R   0.498873 0.520805 0.261377 0.872147
C18   C     C_R   0.202214 0.409795 0.891585 -0.200259
C19   C     C_R   0.797761 0.589735 0.108281 -0.200216
C20   C     C_R   0.063173 0.492225 0.923334 -0.063942
H1    H     H_    0.960739 0.281703 0.995983 0.148532
H2    H     H_    0.991169 0.618055 0.595233 0.186769
H3    H     H_    0.213399 0.693677 0.181015 0.160025
H4    H     H_    0.786512 0.305924 0.818826 0.160010
H5    H     H_    0.039220 0.717806 0.003877 0.148507
H6    H     H_    0.196383 0.325927 0.813060 0.158362
H7    H     H_    0.803664 0.673705 0.186736 0.158389
H8    H     H_    0.033431 0.550351 0.835897 0.166149
H9    H     H_    0.966509 0.449158 0.163968 0.166134
H10   H     H_    0.693754 0.006370 0.485722 0.182659
H11   H     H_    0.306246 0.993630 0.514278 0.182660
H12   H     H_    0.008831 0.381946 0.404766 0.186772
N1    N     N_2   0.950330 0.457950 0.466250 -0.192278
N2    N     N_2   0.049670 0.542050 0.533750 -0.192288
O1    O     O_R   0.389250 0.738570 0.508280 -0.609398
O2    O     O_R   0.610750 0.261430 0.491720 -0.609432
O3    O     O_R   0.678390 0.711630 0.486650 -0.632193
O4    O     O_R   0.321610 0.288370 0.513350 -0.632243
O5    O     O_R   0.355430 0.513480 0.694040 -0.615038
O6    O     O_R   0.644570 0.486520 0.305960 -0.615032
O7    O     O_R   0.644570 0.486540 0.672410 -0.618454
O8    O     O_R   0.355430 0.513460 0.327590 -0.618439
Zn1   Zn    Zn3+2 0.306940 0.517990 0.514440 0.920308
Zn2   Zn    Zn3+2 0.693060 0.482010 0.485560 0.920309

loop_
_geom_bond_atom_site_label_1
_geom_bond_atom_site_label_2
_ccdc_geom_bond_type
C2    C4    A    
C5    C7    A    
C15   H11   S    
C8    C13   A    
C12   O2    A    
O1    Zn1   S    
C18   H6    S    
C12   C15   S    
C1    O3    A    
C10   C19   A    
C6    H4    S    
H12   N1    S    
O3    Zn2   S    
C2    C3    A    
C3    C20   A    
C7    C11   A    
C4    H1    S    
C14   H10   S    
C2    H9    S    
C6    C8    A    
C4    C6    A    
N1    N2    D    
C18   C20   A    
C12   O4    A    
H2    N2    S    
O7    Zn2   S    
O4    Zn1   S    
O2    Zn2   S    
C10   C11   A    
C16   O5    A    
C4    C20   A    
C9    C18   A    
O6    Zn2   S    
C3    H5    S    
C19   H7    S    
C1    O1    A    
C8    C10   A    
O8    Zn1   S    
C13   C16   S    
C7    C9    A    
C9    C13   A    
C17   O8    A    
C11   C17   S    
O5    Zn1   S    
C1    C14   S    
C20   H8    S    
C2    C19   A    
C14   C15   D    
N1    Zn2   S    
C16   O7    A    
N2    Zn1   S    
C3    C5    A    
C17   O6    A    
C5    H3    S    
