data_str_m2_o1_o22_f0_pcu.sym.173
_audit_creation_date              2012-12-10T17:59:17-0500
_audit_creation_method            fapswitch 2.2
_symmetry_space_group_name_H-M    P1
_symmetry_Int_Tables_number       1
_space_group_crystal_system       triclinic
_cell_length_a                    10.817675
_cell_length_b                    9.5094
_cell_length_c                    10.788199
_cell_angle_alpha                 90.249776
_cell_angle_beta                  91.392742
_cell_angle_gamma                 90.008584
_cell_volume                      1109.43926852

loop_
_atom_site_label
_atom_site_type_symbol
_atom_type_description
_atom_site_fract_x
_atom_site_fract_y
_atom_site_fract_z
_atom_type_partial_charge
C1    C     C_R   0.262151 0.500020 0.502475 0.862390
C2    C     C_3   0.638018 0.514245 0.941869 0.710898
C3    C     C_R   0.064072 0.372512 0.509558 -0.191723
C4    C     C_R   0.063878 0.627776 0.498370 -0.102871
C5    C     C_R   0.936254 0.372461 0.508092 -0.112516
C6    C     C_R   0.936067 0.627748 0.497157 -0.117805
C7    C     C_R   0.871799 0.500059 0.501461 0.001367
C8    C     C_R   0.128325 0.500116 0.503900 -0.009336
C9    C     C_R   0.406733 0.074107 0.442222 0.027967
C10   C     C_R   0.407095 0.925342 0.441509 0.008563
C11   C     C_R   0.592557 0.925979 0.559235 -0.006880
C12   C     C_R   0.592607 0.074761 0.559193 -0.010726
C13   C     C_R   0.487501 0.499618 0.260343 0.929780
C14   C     C_R   0.737931 0.500015 0.499787 0.866376
C15   C     C_R   0.505066 0.500179 0.740429 0.902432
C16   C     C_3   0.413811 0.628548 0.064574 0.277209
C17   C     C_3   0.439837 0.354313 0.064900 0.308381
C18   C     C_3   0.417364 0.621077 0.921936 -0.457430
C19   C     C_3   0.439552 0.362615 0.922305 -0.446340
C20   C     C_3   0.622697 0.516121 0.085458 -0.595653
C21   C     C_3   0.484738 0.498787 0.122366 -0.219954
C22   C     C_3   0.503700 0.500145 0.878697 -0.196134
Cu1   Cu    Cu3+1 0.500020 0.640660 0.500000 1.020158
Cu2   Cu    Cu3+1 0.500020 0.359340 0.500000 1.017604
H1    H     H_    0.465957 0.724640 0.093573 0.168023
H2    H     H_    0.511691 0.275701 0.091659 0.161008
H3    H     H_    0.666692 0.870545 0.606748 0.170899
H4    H     H_    0.666600 0.130914 0.606980 0.168093
H5    H     H_    0.323206 0.603220 0.881151 0.190878
H6    H     H_    0.344123 0.361078 0.882205 0.223358
H7    H     H_    0.444346 0.724592 0.884760 0.243765
H8    H     H_    0.483202 0.266572 0.884495 0.231794
H9    H     H_    0.659925 0.615506 0.126629 0.226964
H10   H     H_    0.679574 0.432182 0.130473 0.218362
H11   H     H_    0.112293 0.272778 0.514369 0.153932
H12   H     H_    0.111909 0.727543 0.494142 0.156962
H13   H     H_    0.888211 0.272692 0.512181 0.159641
H14   H     H_    0.887877 0.727502 0.492390 0.156607
H15   H     H_    0.331439 0.129821 0.396916 0.173372
H16   H     H_    0.332703 0.869380 0.394316 0.176113
N1    N     N_R   0.500030 0.852070 0.500030 -0.180394
N2    N     N_R   0.500030 0.147930 0.500030 -0.180638
O1    O     O_R   0.319660 0.618740 0.499990 -0.587922
O2    O     O_R   0.319660 0.381260 0.499990 -0.594789
O3    O     O_R   0.499990 0.618790 0.317690 -0.578456
O4    O     O_R   0.499990 0.381210 0.317690 -0.563389
O5    O     O_R   0.680370 0.618830 0.500010 -0.583922
O6    O     O_R   0.680370 0.381170 0.500010 -0.587149
O7    O     O_R   0.500030 0.618780 0.682310 -0.562623
O8    O     O_R   0.500030 0.381220 0.682310 -0.570962
S1    S     S_3+6 0.257905 0.663272 0.112941 0.058294
O9    O     O_2   0.247479 0.651830 0.250730 -0.266584
O10   O     O_2   0.225811 0.811621 0.076686 -0.251725
O11   O     O_3   0.155201 0.553577 0.043995 -0.423340
H17   H     H_    0.116191 0.607777 0.975318 0.379713
S2    S     S_3+6 0.298447 0.275446 0.120042 0.055997
O12   O     O_2   0.198316 0.272515 0.020934 -0.240247
O13   O     O_2   0.327272 0.126126 0.155410 -0.287112
O14   O     O_3   0.244334 0.359262 0.244499 -0.490000
H18   H     H_    0.165983 0.310624 0.262922 0.373038
S3    S     S_3+6 0.719139 0.674111 0.897886 0.024108
O15   O     O_2   0.841278 0.681182 0.967154 -0.206192
O16   O     O_2   0.743560 0.672004 0.761501 -0.313172
O17   O     O_3   0.640055 0.820514 0.933129 -0.574744
H19   H     H_    0.684341 0.897921 0.891993 0.395773
S4    S     S_3+6 0.739982 0.368524 0.901963 0.016035
O18   O     O_2   0.694134 0.230700 0.950539 -0.341422
O19   O     O_2   0.751871 0.357708 0.763911 -0.320087
O20   O     O_3   0.881281 0.397219 0.965705 -0.442938
H20   H     H_    0.934930 0.324379 0.929126 0.399320

loop_
_geom_bond_atom_site_label_1
_geom_bond_atom_site_label_2
_ccdc_geom_bond_type
C2    C22   S    
S3    O17   S    
S4    O19   D    
C11   C12   A    
C4    H12   S    
C16   C21   S    
C14   O5    A    
Cu1   O3    S    
C5    H13   S    
C7    C14   S    
C1    C8    S    
Cu2   N2    S    
C9    C10   A    
C1    O2    A    
Cu1   N1    S    
S2    O14   S    
C3    H11   S    
Cu1   Cu2   S    
S1    O11   S    
C20   H10   S    
O17   H19   S    
C6    H14   S    
S4    O18   D    
C13   C21   S    
O14   H18   S    
C18   H5    S    
S2    O12   D    
C10   N1    A    
C13   O3    A    
C17   S2    S    
C9    N2    A    
C13   O4    A    
C12   H4    S    
C17   H2    S    
C4    C6    A    
C17   C19   S    
S2    O13   D    
C11   H3    S    
C11   N1    A    
C6    C7    A    
C5    C7    A    
O20   H20   S    
C15   O7    A    
Cu2   O8    S    
S3    O15   D    
Cu2   O2    S    
Cu1   O7    S    
S4    O20   S    
Cu1   O5    S    
C20   H9    S    
S1    O10   D    
C2    C20   S    
S1    O9    D    
Cu2   O6    S    
C3    C5    A    
C9    H15   S    
C19   C22   S    
Cu1   O1    S    
C20   C21   S    
C16   C18   S    
C3    C8    A    
C15   O8    A    
C16   H1    S    
S3    O16   D    
C14   O6    A    
C10   H16   S    
O11   H17   S    
C16   S1    S    
C12   N2    A    
C18   H7    S    
C4    C8    A    
C18   C22   S    
C19   H6    S    
C19   H8    S    
C1    O1    A    
C15   C22   S    
C17   C21   S    
Cu2   O4    S    
C2    S4    S    
C2    S3    S    
