data_str_m2_o10_o29_f0_pcu.sym.44
_audit_creation_date              2012-10-26T20:17:38-0400
_audit_creation_method            fapswitch 2.2
_symmetry_space_group_name_H-M    P1
_symmetry_Int_Tables_number       1
_space_group_crystal_system       triclinic
_cell_length_a                    27.773901
_cell_length_b                    8.727335
_cell_length_c                    7.429218
_cell_angle_alpha                 103.009813
_cell_angle_beta                  93.927915
_cell_angle_gamma                 92.614823
_cell_volume                      1746.9843184

loop_
_atom_site_label
_atom_site_type_symbol
_atom_type_description
_atom_site_fract_x
_atom_site_fract_y
_atom_site_fract_z
_atom_type_partial_charge
C1    C     C_R   0.495876 0.200023 0.453819 0.576373
C2    C     C_R   0.869193 0.359981 0.442557 0.024791
C3    C     C_R   0.354702 0.500430 0.509669 0.002276
C4    C     C_R   0.645370 0.501289 0.490721 0.011834
C5    C     C_R   0.971504 0.356476 0.457278 0.018704
C6    C     C_R   0.028651 0.647683 0.544345 0.018671
C7    C     C_R   0.977336 0.648096 0.535237 0.019253
C8    C     C_R   0.022816 0.356062 0.466412 0.019236
C9    C     C_R   0.949112 0.502489 0.492252 0.034755
C10   C     C_R   0.051042 0.501667 0.509357 0.034573
C11   C     C_R   0.941458 0.215315 0.413688 -0.146062
C12   C     C_R   0.499119 0.799385 0.546669 0.572696
C13   C     C_R   0.058701 0.788837 0.587892 -0.146265
C14   C     C_R   0.891456 0.217448 0.406843 -0.111603
C15   C     C_R   0.108705 0.786693 0.594651 -0.112348
C16   C     C_R   0.407505 0.500057 0.502932 0.515686
C17   C     C_R   0.592512 0.500358 0.497146 0.555523
C18   C     C_R   0.047202 0.214465 0.434276 -0.145621
C19   C     C_R   0.952947 0.789687 0.567411 -0.145494
C20   C     C_2   0.489503 0.032253 0.427331 0.225241
C21   C     C_2   0.494115 0.965578 0.574267 0.226917
C22   C     C_R   0.175865 0.360187 0.486916 0.398936
C23   C     C_R   0.102357 0.501250 0.516999 -0.026858
C24   C     C_R   0.824274 0.643915 0.514489 0.399770
C25   C     C_R   0.181493 0.641104 0.562640 0.400778
C26   C     C_R   0.818667 0.362998 0.438674 0.402468
C27   C     C_R   0.274526 0.478411 0.350781 -0.057436
C28   C     C_R   0.725546 0.524600 0.650053 -0.051718
C29   C     C_R   0.324534 0.478797 0.344919 -0.148317
C30   C     C_R   0.675514 0.523141 0.655588 -0.129978
C31   C     C_R   0.333915 0.522138 0.680330 -0.154069
C32   C     C_R   0.666244 0.480896 0.320328 -0.132797
C33   C     C_R   0.283818 0.522171 0.685730 -0.057767
C34   C     C_R   0.897795 0.502893 0.484537 -0.026739
C35   C     C_R   0.716366 0.481909 0.315244 -0.050182
C36   C     C_R   0.254106 0.500080 0.520942 0.248835
C37   C     C_R   0.746032 0.503863 0.480108 0.246110
C38   C     C_3   0.429915 0.913329 0.210088 -0.106445
C39   C     C_3   0.446982 0.054969 0.807183 -0.096305
C40   C     C_R   0.125234 0.357933 0.482025 0.024334
C41   C     C_R   0.874911 0.646200 0.519502 0.024040
C42   C     C_R   0.097277 0.215793 0.441788 -0.116686
C43   C     C_R   0.902869 0.788347 0.559838 -0.116156
C44   C     C_R   0.130966 0.644153 0.558898 0.025465
Cu1   Cu    Cu3+1 0.505380 0.517380 0.684380 1.001395
Cu2   Cu    Cu3+1 0.494620 0.482620 0.315620 0.982817
H1    H     H_    0.356276 0.539261 0.809432 0.118399
H2    H     H_    0.339488 0.461937 0.211479 0.122953
H3    H     H_    0.748475 0.541218 0.777709 0.127399
H4    H     H_    0.251561 0.461705 0.223190 0.125096
H5    H     H_    0.870243 0.105960 0.373471 0.173750
H6    H     H_    0.129921 0.898173 0.627975 0.172969
H7    H     H_    0.955116 0.099790 0.383400 0.106049
H8    H     H_    0.045042 0.904362 0.618185 0.106003
H9    H     H_    0.028908 0.099204 0.402384 0.103545
H10   H     H_    0.971242 0.904950 0.599378 0.103551
H11   H     H_    0.411500 0.024167 0.211679 0.094797
H12   H     H_    0.643927 0.463916 0.191172 0.137862
H13   H     H_    0.414187 0.851126 0.309994 0.107591
H14   H     H_    0.422497 0.834812 0.070187 0.149216
H15   H     H_    0.430127 0.933982 0.791408 0.108817
H16   H     H_    0.424407 0.121674 0.725644 0.079642
H17   H     H_    0.447432 0.115604 0.955233 0.171769
H18   H     H_    0.460197 0.386117 0.949836 0.232381
H19   H     H_    0.539083 0.617229 0.050612 0.256797
H20   H     H_    0.268053 0.539055 0.817604 0.121485
H21   H     H_    0.732184 0.465764 0.183534 0.125756
H22   H     H_    0.114014 0.104002 0.415023 0.163851
H23   H     H_    0.886128 0.900132 0.586617 0.164303
H24   H     H_    0.660518 0.539224 0.788877 0.135045
N1    N     N_R   0.202720 0.500460 0.525663 -0.401842
N2    N     N_R   0.797428 0.503622 0.475604 -0.403102
N3    N     N_2   0.486510 0.456430 0.038510 -0.247486
N4    N     N_2   0.513490 0.543570 0.961490 -0.235614
O1    O     O_R   0.503500 0.286120 0.619780 -0.477135
O2    O     O_2   0.801996 0.780560 0.548732 -0.469751
O3    O     O_2   0.790959 0.226698 0.400174 -0.465352
O4    O     O_2   0.209210 0.777378 0.601029 -0.476860
O5    O     O_3   0.480453 0.943827 0.246838 -0.549672
O6    O     O_3   0.494959 0.052537 0.755478 -0.538236
O7    O     O_R   0.496500 0.713880 0.380220 -0.486072
O8    O     O_R   0.494410 0.256780 0.308360 -0.476153
O9    O     O_R   0.505590 0.743220 0.691640 -0.467598
O10   O     O_R   0.434810 0.514700 0.655690 -0.531886
O11   O     O_R   0.565190 0.485300 0.344310 -0.506278
O12   O     O_R   0.425720 0.485350 0.344280 -0.528589
O13   O     O_R   0.574280 0.514650 0.655720 -0.502555
O14   O     O_2   0.198133 0.223520 0.452688 -0.477476

loop_
_geom_bond_atom_site_label_1
_geom_bond_atom_site_label_2
_ccdc_geom_bond_type
C19   H10   S    
C16   O12   A    
C27   C29   A    
C26   N2    A    
N3    N4    D    
C32   H12   S    
Cu1   Cu2   S    
C17   O11   A    
Cu1   O13   S    
C15   C44   A    
C5    C11   A    
C18   C42   A    
C11   C14   A    
C38   O5    S    
C23   C40   A    
Cu2   O7    S    
C16   O10   A    
C33   C36   A    
C3    C29   A    
Cu2   O8    S    
H18   N3    S    
C31   C33   A    
C25   N1    A    
C22   O14   S    
C11   H7    S    
C27   H4    S    
Cu2   O11   S    
C2    C34   A    
C40   C42   A    
C43   H23   S    
C31   H1    S    
C42   H22   S    
C24   C41   A    
C41   C43   A    
Cu1   O9    S    
C34   C41   A    
C25   C44   A    
C30   H24   S    
C19   C43   A    
C33   H20   S    
C39   H15   S    
C26   O3    S    
C29   H2    S    
C25   O4    S    
C1    O1    A    
C32   C35   A    
C24   O2    S    
C1    O8    A    
C12   C21   S    
C8    C18   A    
H19   N4    S    
C12   O9    A    
Cu1   N4    S    
C5    C9    A    
C38   H11   S    
C28   H3    S    
C14   H5    S    
C35   H21   S    
C22   C40   A    
C2    C26   A    
C15   H6    S    
C3    C31   A    
C4    C32   A    
C18   H9    S    
C38   H14   S    
C4    C17   S    
C7    C19   A    
C13   C15   A    
C9    C34   A    
C10   C23   A    
Cu1   O10   S    
C22   N1    A    
C24   N2    A    
C13   H8    S    
C7    C9    A    
C39   H16   S    
C1    C20   S    
C20   O5    S    
C35   C37   A    
C17   O13   A    
C6    C10   A    
C5    C8    A    
C36   N1    S    
C6    C7    A    
C27   C36   A    
C39   H17   S    
Cu1   O1    S    
C39   O6    S    
C28   C30   A    
C6    C13   A    
C28   C37   A    
C21   O6    S    
C12   O7    A    
C2    C14   A    
C23   C44   A    
C38   H13   S    
C20   C21   D    
C8    C10   A    
C37   N2    S    
Cu2   N3    S    
C4    C30   A    
C3    C16   S    
Cu2   O12   S    
