data_str_m3_o5_o29_f0_pcu.sym.66
_audit_creation_date              2013-03-05T16:48:43-0500
_audit_creation_method            fapswitch 2.2
_symmetry_space_group_name_H-M    P1
_symmetry_Int_Tables_number       1
_space_group_crystal_system       triclinic
_cell_length_a                    27.503128
_cell_length_b                    8.945442
_cell_length_c                    8.125801
_cell_angle_alpha                 89.82918
_cell_angle_beta                  89.6549
_cell_angle_gamma                 89.560499
_cell_volume                      1999.06792387

loop_
_atom_site_label
_atom_site_type_symbol
_atom_site_description
_atom_site_fract_x
_atom_site_fract_y
_atom_site_fract_z
_atom_type_partial_charge
O1    O     O_R   0.500000 0.285350 0.636850 -0.618678
O2    O     O_R   0.500000 0.714650 0.363150 -0.608408
O3    O     O_R   0.500000 0.714650 0.636850 -0.622039
O4    O     O_R   0.500000 0.285350 0.363150 -0.614112
C1    C     C_R   0.500059 0.218046 0.500152 0.932972
C2    C     C_R   0.500006 0.781950 0.499842 0.949178
O5    O     O_R   0.428760 0.500000 0.636860 -0.577121
O6    O     O_R   0.571240 0.500000 0.363140 -0.606926
O7    O     O_R   0.571240 0.500000 0.636860 -0.605694
O8    O     O_R   0.428760 0.500000 0.363140 -0.562950
C3    C     C_R   0.405581 0.497232 0.500128 1.020849
C4    C     C_R   0.594163 0.501985 0.499184 1.087732
Zn1   Zn    Zn3+2 0.500000 0.500000 0.682780 1.068449
Zn2   Zn    Zn3+2 0.500000 0.500000 0.317220 1.078827
C5    C     C_R   0.172263 0.362081 0.461257 0.535240
C6    C     C_R   0.823499 0.687477 0.431924 0.573578
C7    C     C_R   0.179750 0.626078 0.426033 0.593759
C8    C     C_R   0.819141 0.436898 0.333890 0.582261
O9    O     O_2   0.193056 0.228857 0.497089 -0.586279
O10   O     O_2   0.801533 0.809594 0.496019 -0.524483
O11   O     O_2   0.208215 0.748178 0.419615 -0.547490
O12   O     O_2   0.792060 0.320272 0.285084 -0.550868
N1    N     N_R   0.199881 0.488435 0.455991 -0.290848
N2    N     N_R   0.797125 0.561552 0.398840 -0.302452
C9    C     C_R   0.273367 0.539471 0.616450 0.356713
C10   C     C_R   0.728995 0.438383 0.543377 0.370101
C11   C     C_R   0.279496 0.407208 0.354139 0.362662
C12   C     C_R   0.713393 0.658212 0.369581 0.385898
C13   C     C_R   0.323954 0.543816 0.625939 0.492798
C14   C     C_R   0.678179 0.421090 0.564368 0.373506
C15   C     C_R   0.330203 0.415467 0.362636 0.431297
C16   C     C_R   0.663875 0.645894 0.402771 0.410103
C17   C     C_R   0.251341 0.476123 0.477182 -0.041645
C18   C     C_R   0.746102 0.554749 0.439512 -0.039198
C19   C     C_R   0.100720 0.511670 0.403416 -0.058698
C20   C     C_R   0.897380 0.554827 0.358151 -0.058185
C21   C     C_R   0.122411 0.370738 0.430186 -0.042478
C22   C     C_R   0.873850 0.688587 0.403861 -0.063968
C23   C     C_R   0.129615 0.640713 0.402541 -0.065525
C24   C     C_R   0.869691 0.427798 0.322387 -0.046262
C25   C     C_R   0.093945 0.242189 0.426323 -0.153965
C26   C     C_R   0.901329 0.817617 0.428391 -0.146047
C27   C     C_R   0.107946 0.780698 0.377092 -0.147394
C28   C     C_R   0.892998 0.293191 0.282218 -0.144594
C29   C     C_R   0.352546 0.484421 0.497793 -0.447394
C30   C     C_R   0.646312 0.524747 0.493445 -0.398557
H1    H     H_    0.109669 0.132947 0.449364 0.177914
H2    H     H_    0.884040 0.922441 0.462268 0.186800
H3    H     H_    0.129697 0.880887 0.370085 0.186388
H4    H     H_    0.872474 0.194304 0.252380 0.181370
C31   C     C_R   0.971653 0.405261 0.335308 0.043116
C32   C     C_R   0.027742 0.666806 0.371794 0.043291
C33   C     C_R   0.976376 0.677494 0.376733 0.044669
C34   C     C_R   0.021942 0.392345 0.366029 0.045229
C35   C     C_R   0.948635 0.546344 0.354471 0.082441
C36   C     C_R   0.050037 0.523633 0.379170 0.074948
C37   C     C_R   0.943238 0.281193 0.290958 -0.224897
C38   C     C_R   0.057715 0.793891 0.363929 -0.217854
C39   C     C_R   0.951729 0.813127 0.411528 -0.218676
C40   C     C_R   0.044626 0.252516 0.392602 -0.211719
H5    H     H_    0.959139 0.173941 0.260693 0.140195
H6    H     H_    0.043139 0.904267 0.343179 0.131536
H7    H     H_    0.970774 0.915425 0.436833 0.134314
H8    H     H_    0.024332 0.150170 0.396944 0.126638
C41   C     C_1   0.500069 0.065176 0.500211 -0.131223
C42   C     C_1   0.500052 0.934814 0.499767 -0.123144
N3    N     N_1   0.500000 0.500000 0.073640 0.001129
N4    N     N_1   0.500000 0.500000 0.926360 -0.002432
F1    F     F_    0.357593 0.361265 0.236286 -0.631814
F2    F     F_    0.632570 0.750279 0.341708 -0.633321
F3    F     F_    0.344873 0.612673 0.756063 -0.594837
F4    F     F_    0.659110 0.300588 0.642895 -0.664183
O13   O     O_3   0.256352 0.351399 0.216406 -0.640464
C43   C     C_3   0.267912 0.198594 0.192421 0.176335
H9    H     H_    0.271567 0.136286 0.311044 0.173687
H10   H     H_    0.302302 0.188262 0.120886 0.209343
C44   C     C_3   0.227412 0.126822 0.092477 -0.411241
H11   H     H_    0.192926 0.129513 0.164528 0.250933
H12   H     H_    0.221818 0.191353 0.977108 0.229807
C45   C     C_3   0.239789 0.965473 0.047647 -0.807625
H13   H     H_    0.273736 0.960514 0.972980 0.284316
H14   H     H_    0.209776 0.918391 0.973859 0.265313
H15   H     H_    0.244527 0.896830 0.160503 0.296163
O14   O     O_3   0.730309 0.776493 0.275863 -0.552163
C46   C     C_3   0.719194 0.754696 0.108049 0.185277
H16   H     H_    0.711947 0.866351 0.053072 0.181622
H17   H     H_    0.685809 0.687398 0.086734 0.151074
C47   C     C_3   0.762510 0.682271 0.019710 -0.472054
H18   H     H_    0.796185 0.745767 0.045597 0.248064
H19   H     H_    0.767360 0.565984 0.065047 0.232315
C48   C     C_3   0.754253 0.677805 0.835058 -0.880310
H20   H     H_    0.719823 0.619049 0.808962 0.243401
H21   H     H_    0.785040 0.617828 0.775154 0.286120
H22   H     H_    0.751707 0.792308 0.783190 0.293729
O15   O     O_3   0.245637 0.612407 0.734490 -0.568890
C49   C     C_3   0.222580 0.506433 0.837556 0.109122
H23   H     H_    0.246096 0.485730 0.945700 0.225622
H24   H     H_    0.215951 0.396925 0.776615 0.134302
C50   C     C_3   0.173658 0.569989 0.895781 -0.324769
H25   H     H_    0.179880 0.667920 0.976347 0.233501
H26   H     H_    0.152196 0.607423 0.787548 0.228788
C51   C     C_3   0.144344 0.453997 0.991038 -0.938654
H27   H     H_    0.136338 0.356526 0.911532 0.267045
H28   H     H_    0.109390 0.504465 0.032670 0.272432
H29   H     H_    0.164857 0.415552 0.100500 0.288208
O16   O     O_3   0.764028 0.341195 0.607992 -0.605112
C52   C     C_3   0.750769 0.270153 0.756520 0.200376
H30   H     H_    0.730555 0.166462 0.727213 0.230100
H31   H     H_    0.728539 0.343920 0.838269 0.148431
C53   C     C_3   0.797192 0.227356 0.848665 -0.409490
H32   H     H_    0.824661 0.181897 0.760709 0.256694
H33   H     H_    0.812604 0.328524 0.907293 0.226222
C54   C     C_3   0.787236 0.109134 0.979691 -0.821096
H34   H     H_    0.757245 0.145391 0.062812 0.305816
H35   H     H_    0.820520 0.088022 0.052702 0.269497
H36   H     H_    0.776981 0.003353 0.919620 0.248669

loop_
_geom_bond_atom_site_label_1
_geom_bond_atom_site_label_2
_geom_bond_distance
_ccdc_geom_bond_type
C38   H6    1.076001 S    
C12   O14   1.383618 S    
O13   C43   1.414802 S    
O15   C49   1.414327 S    
O3    C2    1.264073 A    
C10   O16   1.396563 S    
C33   C39   1.413742 A    
C34   C40   1.410133 A    
C44   H11   1.111764 S    
C11   C17   1.402248 A    
C5    O9    1.349642 S    
C7    N1    1.367928 A    
C2    C42   1.367449 S    
C43   H10   1.110584 S    
O1    C1    1.265017 A    
C19   C21   1.407474 A    
C22   C26   1.399901 A    
C46   C47   1.528049 S    
O16   C52   1.409661 S    
C49   C50   1.529587 S    
C51   H29   1.108578 S    
C7    C23   1.398251 A    
C37   H5    1.079757 S    
O7    Zn1   1.992325 S    
C53   H32   1.112404 S    
C5    C21   1.397168 A    
C20   C24   1.404823 A    
C8    C24   1.394623 A    
C27   C38   1.390369 A    
C10   C18   1.419420 A    
N1    C17   1.430156 S    
C43   C44   1.528870 S    
C49   H24   1.115694 S    
Zn2   N3    1.979283 S    
C31   C37   1.411191 A    
O3    Zn1   1.954981 S    
O6    C4    1.276130 A    
C54   H36   1.105318 S    
C44   H12   1.110356 S    
C12   C18   1.406792 A    
C6    N2    1.372599 A    
C21   C25   1.396618 A    
C52   H31   1.114479 S    
O2    C2    1.264969 A    
C45   H15   1.109886 S    
O5    C3    1.284679 A    
C33   C35   1.416988 A    
C9    C13   1.394742 A    
C34   C36   1.415421 A    
C43   H9    1.116680 S    
C46   H17   1.116463 S    
C11   C15   1.399261 A    
N3    N4    1.196767 T    
C12   C16   1.391869 A    
O14   C46   1.413669 S    
C1    C41   1.367486 S    
O8    Zn2   1.992328 S    
C48   H20   1.108441 S    
C27   H3    1.082524 S    
C16   F2    1.359965 S    
C46   H16   1.110073 S    
N2    C18   1.441428 S    
C13   C29   1.404277 A    
C19   C23   1.406446 A    
C48   H21   1.109677 S    
C15   F1    1.358209 S    
C50   H25   1.110126 S    
C47   C48   1.519570 S    
O5    Zn1   1.996743 S    
C28   C37   1.387338 A    
C6    O10   1.348707 S    
C49   H23   1.108549 S    
C25   H1    1.081857 S    
C26   H2    1.083640 S    
C51   H28   1.110300 S    
C53   C54   1.523543 S    
C32   C38   1.410438 A    
C4    C30   1.450650 S    
C50   H26   1.111535 S    
C47   H19   1.109862 S    
C10   C14   1.416546 A    
C52   C53   1.529592 S    
C8    N2    1.370368 A    
C3    C29   1.464224 S    
O1    Zn1   1.957166 S    
C52   H30   1.112202 S    
C32   C33   1.415571 A    
C54   H34   1.110062 S    
C44   C45   1.525090 S    
C28   H4    1.081888 S    
O6    Zn2   1.996741 S    
C19   C36   1.412157 A    
C8    O12   1.348488 S    
C16   C30   1.396294 A    
C14   C30   1.396599 A    
C25   C40   1.387779 A    
C45   H13   1.111061 S    
C26   C39   1.392376 A    
C14   F4    1.358202 S    
C9    O15   1.383702 S    
C39   H7    1.078809 S    
C40   H8    1.076281 S    
C31   C34   1.410730 A    
C20   C22   1.405830 A    
C20   C35   1.411288 A    
C48   H22   1.108312 S    
O4    C1    1.264051 A    
C5    N1    1.367055 A    
C45   H14   1.109551 S    
C31   C35   1.416172 A    
O4    Zn2   1.954982 S    
C51   H27   1.110909 S    
O2    Zn2   1.957165 S    
O7    C4    1.280971 A    
C53   H33   1.111986 S    
O8    C3    1.279699 A    
C24   C28   1.398330 A    
C50   C51   1.525212 S    
C47   H18   1.111647 S    
C23   C27   1.398032 A    
C41   C42   1.166162 T    
C15   C29   1.407926 A    
C9    C17   1.409298 A    
C54   H35   1.108529 S    
C11   O13   1.387000 S    
C32   C36   1.416985 A    
C6    C22   1.402207 A    
C13   F3    1.358323 S    
Zn1   N4    1.979283 S    
C7    O11   1.349412 S    
