data_str_m3_o5_o29_f0_pcu.sym.39
_audit_creation_date              2013-03-05T16:48:42-0500
_audit_creation_method            fapswitch 2.2
_symmetry_space_group_name_H-M    P1
_symmetry_Int_Tables_number       1
_space_group_crystal_system       triclinic
_cell_length_a                    27.769991
_cell_length_b                    8.916205
_cell_length_c                    8.097885
_cell_angle_alpha                 90.020839
_cell_angle_beta                  89.999745
_cell_angle_gamma                 90.00002
_cell_volume                      2005.05994125

loop_
_atom_site_label
_atom_site_type_symbol
_atom_site_description
_atom_site_fract_x
_atom_site_fract_y
_atom_site_fract_z
_atom_type_partial_charge
O1    O     O_R   0.500000 0.285350 0.636850 -0.613848
O2    O     O_R   0.500000 0.714650 0.363150 -0.613847
O3    O     O_R   0.500000 0.714650 0.636850 -0.613753
O4    O     O_R   0.500000 0.285350 0.363150 -0.613754
C1    C     C_R   0.500000 0.217994 0.499981 0.946776
C2    C     C_R   0.500000 0.782006 0.500019 0.946776
O5    O     O_R   0.428760 0.500000 0.636860 -0.623822
O6    O     O_R   0.571240 0.500000 0.363140 -0.623818
O7    O     O_R   0.571240 0.500000 0.636860 -0.623817
O8    O     O_R   0.428760 0.500000 0.363140 -0.623821
C3    C     C_R   0.405755 0.500000 0.500000 0.871962
C4    C     C_R   0.594246 0.500000 0.500000 0.871941
Zn1   Zn    Zn3+2 0.500000 0.500000 0.682780 0.996740
Zn2   Zn    Zn3+2 0.500000 0.500000 0.317220 0.996740
C5    C     C_R   0.177786 0.368901 0.529311 0.506507
C6    C     C_R   0.822202 0.631051 0.470471 0.506567
C7    C     C_R   0.177785 0.631098 0.470699 0.506506
C8    C     C_R   0.822202 0.368939 0.529521 0.506567
O9    O     O_2   0.202821 0.241556 0.556994 -0.533962
O10   O     O_2   0.797162 0.758336 0.442515 -0.533921
O11   O     O_2   0.202820 0.758444 0.443017 -0.533962
O12   O     O_2   0.797162 0.241654 0.557474 -0.533921
N1    N     N_R   0.201643 0.500000 0.500004 -0.361059
N2    N     N_R   0.798350 0.499995 0.499995 -0.361126
C9    C     C_R   0.277804 0.495620 0.649847 -0.096721
C10   C     C_R   0.722200 0.502618 0.350055 -0.096943
C11   C     C_R   0.277804 0.504381 0.350159 -0.096722
C12   C     C_R   0.722200 0.497374 0.649938 -0.096946
C13   C     C_R   0.327826 0.495792 0.650085 -0.205232
C14   C     C_R   0.672177 0.502460 0.349819 -0.205041
C15   C     C_R   0.327826 0.504208 0.349919 -0.205232
C16   C     C_R   0.672178 0.497535 0.650177 -0.205041
C17   C     C_R   0.252885 0.500000 0.500004 0.320740
C18   C     C_R   0.747113 0.499995 0.499996 0.321279
C19   C     C_R   0.101799 0.499999 0.500005 -0.050154
C20   C     C_R   0.898189 0.499996 0.499999 -0.050127
C21   C     C_R   0.127426 0.366392 0.529845 -0.021352
C22   C     C_R   0.872562 0.633570 0.469965 -0.021405
C23   C     C_R   0.127426 0.633607 0.470166 -0.021352
C24   C     C_R   0.872562 0.366421 0.530030 -0.021405
C25   C     C_R   0.102480 0.233519 0.559308 -0.137819
C26   C     C_R   0.897507 0.766408 0.440308 -0.137865
C27   C     C_R   0.102480 0.766479 0.440703 -0.137820
C28   C     C_R   0.897507 0.233585 0.559690 -0.137866
C29   C     C_R   0.353159 0.500000 0.500001 -0.040902
C30   C     C_R   0.646843 0.499999 0.499999 -0.040886
H1    H     H_    0.346576 0.507481 0.232660 0.164248
H2    H     H_    0.653429 0.495679 0.767515 0.164203
H3    H     H_    0.346576 0.492520 0.767343 0.164248
H4    H     H_    0.653429 0.504318 0.232482 0.164203
H5    H     H_    0.258333 0.507550 0.234296 0.137645
H6    H     H_    0.741674 0.495575 0.765867 0.137395
H7    H     H_    0.258333 0.492451 0.765710 0.137645
H8    H     H_    0.741674 0.504416 0.234126 0.137395
H9    H     H_    0.121441 0.129423 0.582592 0.191318
H10   H     H_    0.878546 0.870470 0.416836 0.191370
H11   H     H_    0.121441 0.870576 0.417420 0.191318
H12   H     H_    0.878546 0.129522 0.583161 0.191370
C31   C     C_R   0.974453 0.363907 0.530382 0.048429
C32   C     C_R   0.025534 0.636102 0.469705 0.048440
C33   C     C_R   0.974453 0.636087 0.469622 0.048429
C34   C     C_R   0.025534 0.363894 0.530303 0.048440
C35   C     C_R   0.949269 0.499997 0.500001 0.070455
C36   C     C_R   0.050718 0.499998 0.500004 0.070432
C37   C     C_R   0.947372 0.231957 0.559981 -0.220323
C38   C     C_R   0.052615 0.768099 0.440370 -0.220274
C39   C     C_R   0.947372 0.768037 0.440022 -0.220323
C40   C     C_R   0.052615 0.231898 0.559639 -0.220275
C41   C     C_1   0.500000 0.065221 0.499973 -0.182713
C42   C     C_1   0.500000 0.934779 0.500027 -0.182713
N3    N     N_1   0.500000 0.500000 0.073640 -0.035340
N4    N     N_1   0.500000 0.500000 0.926360 -0.035340
H13   H     H_    0.963268 0.124319 0.584359 0.136680
H14   H     H_    0.036719 0.875781 0.416244 0.136560
H15   H     H_    0.963268 0.875676 0.415646 0.136679
H16   H     H_    0.036719 0.124215 0.583765 0.136561

loop_
_geom_bond_atom_site_label_1
_geom_bond_atom_site_label_2
_geom_bond_distance
_ccdc_geom_bond_type
Zn2   N3    1.972483 S    
C19   C23   1.408618 A    
O3    C2    1.260519 A    
C13   H3    1.083346 S    
C11   C17   1.397423 A    
O5    C3    1.279221 A    
C7    N1    1.364466 A    
C8    N2    1.364395 A    
C19   C21   1.408618 A    
C9    H7    1.083277 S    
C22   C26   1.393054 A    
O7    Zn1   2.012974 S    
C38   H14   1.074710 S    
C37   H13   1.074730 S    
C7    C23   1.398668 A    
C33   C35   1.422047 A    
C8    C24   1.398661 A    
C25   H9    1.083691 S    
C20   C24   1.408638 A    
C34   C36   1.422042 A    
C26   H10   1.083700 S    
C10   C18   1.397678 A    
C5    C21   1.398666 A    
C28   H12   1.083700 S    
N1    C17   1.423009 S    
C1    C41   1.362158 S    
C19   C36   1.418497 A    
C20   C35   1.418488 A    
O3    Zn1   1.949801 S    
C6    O10   1.350164 S    
C5    N1    1.364468 A    
C14   H4    1.083616 S    
C32   C38   1.416796 A    
C6    N2    1.364395 A    
C15   H1    1.083346 S    
C21   C25   1.393054 A    
C16   H2    1.083616 S    
C28   C37   1.384829 A    
O2    C2    1.260406 A    
C10   H8    1.083534 S    
C11   H5    1.083278 S    
C25   C40   1.384826 A    
C9    C13   1.389110 A    
C11   C15   1.389110 A    
C12   C16   1.389115 A    
C4    C30   1.460627 S    
O8    Zn2   2.012977 S    
C23   C27   1.393053 A    
C7    O11   1.350184 S    
C13   C29   1.404794 A    
C32   C33   1.418502 A    
C5    O9    1.350184 S    
C33   C39   1.416813 A    
O5    Zn1   2.012980 S    
O6    C4    1.279232 A    
C10   C14   1.389115 A    
C26   C39   1.384829 A    
O1    C1    1.260406 A    
C3    C29   1.460588 S    
C39   H15   1.074732 S    
C2    C42   1.362158 S    
C31   C34   1.418502 A    
O6    Zn2   2.012977 S    
C8    O12   1.350164 S    
C16   C30   1.405148 A    
C14   C30   1.405149 A    
O4    C1    1.260519 A    
Zn1   N4    1.972483 S    
C40   H16   1.074710 S    
C31   C35   1.422047 A    
C34   C40   1.416797 A    
C32   C36   1.422041 A    
C20   C22   1.408637 A    
N3    N4    1.192656 T    
C31   C37   1.416813 A    
C12   H6    1.083535 S    
C27   C38   1.384826 A    
O4    Zn2   1.949802 S    
C41   C42   1.163049 T    
O2    Zn2   1.949536 S    
O7    C4    1.279232 A    
N2    C18   1.422857 S    
O8    C3    1.279221 A    
C27   H11   1.083691 S    
C12   C18   1.397679 A    
C24   C28   1.393053 A    
O1    Zn1   1.949536 S    
C15   C29   1.404793 A    
C9    C17   1.397422 A    
C6    C22   1.398661 A    
