data_str_m12_o4_o22_f0_bcu.sym.98
_audit_creation_date              2013-03-05T15:54:22-0500
_audit_creation_method            fapswitch 2.2
_symmetry_space_group_name_H-M    P1
_symmetry_Int_Tables_number       1
_space_group_crystal_system       triclinic
_cell_length_a                    15.0762
_cell_length_b                    14.883119
_cell_length_c                    14.845585
_cell_angle_alpha                 109.578973
_cell_angle_beta                  108.901243
_cell_angle_gamma                 110.068149
_cell_volume                      2559.78304564

loop_
_atom_site_label
_atom_site_type_symbol
_atom_site_description
_atom_site_fract_x
_atom_site_fract_y
_atom_site_fract_z
_atom_type_partial_charge
C1    C     C_R   0.926334 0.738122 0.017819 -0.024566
H1    H     H_    0.865908 0.738523 0.041568 0.099457
N1    N     N_R   0.995640 0.706130 0.053910 -0.021805
C2    C     C_R   0.780840 0.254727 0.686090 -0.091499
H2    H     H_    0.805074 0.250836 0.624828 0.120958
N2    N     N_R   0.848310 0.293860 0.791110 -0.053529
C3    C     C_R   0.105449 0.593287 0.798932 0.016009
N3    N     N_R   0.054010 0.556790 0.847890 -0.066533
C4    C     C_R   0.711060 0.408888 0.021182 0.224754
N4    N     N_R   0.789940 0.443190 0.997130 -0.122490
C5    C     C_R   0.007919 0.410558 0.700835 -0.129625
H3    H     H_    0.983241 0.326056 0.647527 0.135279
N5    N     N_R   0.997630 0.443170 0.791110 -0.055379
C6    C     C_R   0.803172 0.591326 0.113521 0.181089
N6    N     N_R   0.846320 0.556810 0.053910 -0.115191
C7    C     C_R   0.686801 0.251948 0.775686 -0.080144
H4    H     H_    0.623006 0.244662 0.795589 0.148455
N7    N     N_R   0.791080 0.293860 0.847890 -0.043310
C8    C     C_R   0.024737 0.748139 0.932882 -0.070417
H5    H     H_    0.059312 0.762850 0.882452 0.118152
N8    N     N_R   0.052880 0.706130 0.997130 -0.059668
C9    C     C_R   0.945222 0.769188 0.945039 0.022798
C10   C     C_R   0.678087 0.225188 0.672843 0.035836
C11   C     C_R   0.075464 0.503655 0.703351 0.063737
C12   C     C_R   0.713616 0.500729 0.090487 -0.104486
C13   C     C_R   0.067906 0.593466 0.313672 0.003918
H6    H     H_    0.125897 0.678892 0.373632 0.125916
N9    N     N_R   0.002370 0.556830 0.208890 -0.051241
C14   C     C_R   0.223329 0.407632 0.950619 0.340101
N10   N     N_R   0.153680 0.443190 0.946090 -0.081291
C15   C     C_R   0.298945 0.803248 0.206180 -0.158184
H7    H     H_    0.344687 0.830338 0.168523 0.142134
N11   N     N_R   0.208920 0.706140 0.152110 -0.052600
C16   C     C_R   0.895524 0.194048 0.988805 -0.024791
N12   N     N_R   0.947120 0.293870 0.002870 -0.059027
C17   C     C_R   0.992309 0.192349 0.903650 -0.047498
H8    H     H_    0.013375 0.159889 0.842425 0.180234
N13   N     N_R   0.004360 0.293870 0.946090 -0.067016
C18   C     C_R   0.210902 0.806286 0.300406 -0.004649
H9    H     H_    0.180986 0.836984 0.353687 0.160139
N14   N     N_R   0.151690 0.706140 0.208890 -0.060870
C19   C     C_R   0.974473 0.409193 0.224187 -0.020777
H10   H     H_    0.944761 0.324225 0.203822 0.118395
N15   N     N_R   0.945990 0.443210 0.152110 -0.052724
C20   C     C_R   0.315496 0.593838 0.046824 -0.205193
H11   H     H_    0.377221 0.680263 0.092694 0.158924
N16   N     N_R   0.210060 0.556810 0.002870 -0.064048
Ni1   Ni    Ni4+2 0.999010 0.630300 0.130220 0.322624
Ni2   Ni    Ni4+2 0.000990 0.369700 0.869780 0.251098
Ni3   Ni    Ni4+2 0.130280 0.630280 0.000000 0.204788
Ni4   Ni    Ni4+2 0.869720 0.369720 0.000000 0.277772
C21   C     C_R   0.051397 0.502908 0.327196 0.014632
C22   C     C_R   0.327245 0.501550 0.015824 -0.137689
C23   C     C_R   0.303931 0.868511 0.300475 0.056941
C24   C     C_R   0.926003 0.129192 0.931041 -0.002485
C25   C     C_3   0.538146 0.457206 0.951143 -0.469519
H12   H     H_    0.523997 0.374625 0.898214 0.175344
H13   H     H_    0.578627 0.513864 0.925503 0.174172
C26   C     C_3   0.428543 0.447628 0.929510 -0.342326
H14   H     H_    0.408109 0.485766 0.878789 0.166292
H15   H     H_    0.366616 0.358660 0.880052 0.218775
H16   H     H_    0.378741 0.369318 0.077286 0.215823
C27   C     C_3   0.549457 0.433298 0.117279 -0.089931
C28   C     C_3   0.634837 0.623395 0.138755 -0.360948
C29   C     C_3   0.611512 0.502509 0.075650 0.293426
H17   H     H_    0.678529 0.656745 0.228941 0.215121
H18   H     H_    0.684796 0.679844 0.118825 0.176952
C30   C     C_3   0.431279 0.504950 0.039838 0.369948
C31   C     C_3   0.451471 0.448744 0.109466 -0.480753
C32   C     C_3   0.528653 0.625242 0.108343 -0.398449
H19   H     H_    0.522079 0.668310 0.060010 0.205328
H20   H     H_    0.530363 0.673108 0.185469 0.170837
H21   H     H_    0.606128 0.465571 0.205275 0.173271
H22   H     H_    0.469379 0.502010 0.193898 0.170191
C33   C     C_R   0.578585 0.115214 0.468964 0.104973
C34   C     C_R   0.578450 0.165342 0.567319 0.038680
C35   C     C_R   0.477289 0.140291 0.562017 -0.171104
H23   H     H_    0.472470 0.181501 0.634194 0.143549
C36   C     C_R   0.381644 0.049066 0.467307 -0.056178
H24   H     H_    0.306788 0.022419 0.470290 0.167722
C37   C     C_R   0.387246 0.984794 0.377241 0.011633
C38   C     C_R   0.483706 0.029324 0.373683 0.060389
C39   C     C_3   0.542491 0.975977 0.334010 0.093484
C40   C     C_3   0.646072 0.068145 0.440627 -0.314243
H25   H     H_    0.517255 0.892062 0.324055 0.072609
H26   H     H_    0.709616 0.122952 0.430817 0.210221
C41   C     C_R   0.158388 0.606953 0.532725 -0.004029
C42   C     C_R   0.099908 0.507227 0.432362 0.053917
C43   C     C_R   0.074929 0.409017 0.436778 -0.114673
H27   H     H_    0.037854 0.330518 0.363421 0.161284
C44   C     C_R   0.081649 0.408823 0.533139 -0.150667
H28   H     H_    0.048027 0.329990 0.529564 0.155423
C45   C     C_R   0.115231 0.507309 0.625775 0.072230
C46   C     C_R   0.168518 0.607028 0.628503 0.084640
C47   C     C_3   0.172323 0.715411 0.676600 -0.587775
C48   C     C_3   0.159714 0.715532 0.571440 0.485649
H29   H     H_    0.101946 0.708573 0.689164 0.210544
H30   H     H_    0.253120 0.782028 0.749604 0.232609
C49   C     C_R   0.878717 0.897005 0.981119 -0.070799
C50   C     C_R   0.905365 0.835353 0.911969 0.100632
C51   C     C_R   0.906459 0.852540 0.824295 0.016312
C52   C     C_R   0.900283 0.944015 0.821357 -0.170232
H31   H     H_    0.912749 0.964490 0.761369 0.141137
C53   C     C_R   0.890589 0.014935 0.903627 0.047401
C54   C     C_R   0.865075 0.981189 0.973741 0.036093
C55   C     C_3   0.908890 0.045983 0.096431 0.000985
C56   C     C_3   0.930213 0.956135 0.104618 0.105426
H32   H     H_    0.982673 0.129179 0.140261 0.122818
H33   H     H_    0.884183 0.911199 0.135769 0.135703
N17   N     N_R   0.192158 0.299149 0.872343 0.200281
O1    O     O_R   0.123867 0.257027 0.769119 -0.428052
O2    O     O_R   0.220709 0.237231 0.904171 -0.442161
N18   N     N_3   0.789369 0.153036 0.978009 -0.154901
H34   H     H_    0.796427 0.169918 0.054630 0.198152
H35   H     H_    0.739965 0.067902 0.923182 0.165793
N19   N     N_3   0.512178 0.315284 0.055519 -0.141291
H36   H     H_    0.445952 0.277385 0.977003 0.183075
H37   H     H_    0.485347 0.277038 0.096614 0.179719
N20   N     N_3   0.209971 0.692122 0.862413 -0.207536
H38   H     H_    0.268619 0.670542 0.888673 0.138155
H39   H     H_    0.215544 0.746050 0.933361 0.125903
N21   N     N_R   0.544667 0.981166 0.237878 0.265198
O3    O     O_R   0.561105 0.069867 0.231043 -0.318640
O4    O     O_R   0.533486 0.897368 0.159609 -0.386888
N22   N     N_3   0.688125 0.027872 0.512575 -0.206022
H40   H     H_    0.716339 0.979608 0.475735 0.152891
H41   H     H_    0.625715 0.976900 0.519498 0.141190
N23   N     N_R   0.057002 0.709097 0.510280 0.220919
O5    O     O_R   0.058114 0.792416 0.498983 -0.297541
O6    O     O_R   0.964271 0.625528 0.477301 -0.376080
N24   N     N_R   0.681549 0.311876 0.031059 0.238276
O7    O     O_R   0.715413 0.321173 0.128028 -0.358600
O8    O     O_R   0.619064 0.214013 0.943963 -0.404900
N25   N     N_R   0.255443 0.807206 0.589898 0.227654
O9    O     O_R   0.316566 0.788359 0.550138 -0.431004
O10   O     O_R   0.282241 0.908981 0.649906 -0.331772
N26   N     N_3   0.922306 0.783920 0.744285 -0.213596
H42   H     H_    0.993009 0.834170 0.747509 0.154196
H43   H     H_    0.856943 0.750189 0.666423 0.148675
N27   N     N_R   0.824720 0.047508 0.124744 0.236420
O11   O     O_R   0.852171 0.126604 0.218602 -0.383798
O12   O     O_R   0.725024 0.964739 0.063320 -0.342737
N28   N     N_R   0.046857 0.994982 0.161534 0.249253
O13   O     O_R   0.087378 0.982328 0.245063 -0.345716
O14   O     O_R   0.111284 0.044391 0.131387 -0.384593
N29   N     N_R   0.870372 0.689739 0.220110 0.238518
O15   O     O_R   0.953159 0.774396 0.238511 -0.384483
O16   O     O_R   0.861025 0.687987 0.303654 -0.329289

loop_
_geom_bond_atom_site_label_1
_geom_bond_atom_site_label_2
_geom_bond_distance
_ccdc_geom_bond_type
C26   H14   1.113648 S    
C41   C42   1.403194 A    
C27   C29   1.567830 S    
C45   C46   1.403593 A    
C5    C11   1.389450 A    
C47   C48   1.511033 S    
C10   C34   1.458060 S    
N23   O5    1.301176 A    
C37   C38   1.403079 A    
C47   H30   1.112250 S    
C4    C12   1.387101 A    
C3    N3    1.328676 A    
C18   N14   1.344701 A    
N13   Ni2   1.848953 S    
C35   H23   1.081740 S    
C25   H12   1.112534 S    
C16   N18   1.434377 S    
N26   H43   1.045378 S    
C13   H6    1.071292 S    
N3    N5    1.373544 A    
C55   H32   1.113456 S    
C17   H8    1.076287 S    
C8    N8    1.341713 A    
N27   O12   1.302550 A    
C16   N12   1.322739 A    
N4    N6    1.373544 A    
C33   C40   1.507278 S    
C18   C23   1.389888 A    
C55   C56   1.511591 S    
C25   C29   1.556580 S    
C41   C46   1.379575 A    
N1    Ni1   1.848955 S    
N19   H36   1.045252 S    
C48   N23   1.469856 S    
C1    H1    1.079205 S    
C4    N24   1.430872 S    
C22   C30   1.469982 S    
N17   O1    1.300896 A    
N8    Ni3   1.881993 S    
N18   H34   1.039236 S    
C27   C31   1.545478 S    
C25   H13   1.113938 S    
C7    H4    1.076155 S    
C15   N11   1.321241 A    
C32   H19   1.114142 S    
C28   C32   1.528910 S    
C43   C44   1.402069 A    
C4    N4    1.335283 A    
C35   C36   1.401081 A    
C20   C22   1.387765 A    
C1    C9    1.380604 A    
C6    C12   1.378557 A    
C56   H33   1.113284 S    
C52   H31   1.082722 S    
C19   N15   1.341742 A    
N6    Ni1   1.879073 S    
N2    N7    1.387867 A    
N4    Ni4   1.882754 S    
C53   C54   1.400304 A    
C51   C52   1.410039 A    
N7    Ni4   1.848715 S    
N16   Ni3   1.882754 S    
N29   O16   1.300449 A    
C20   N16   1.319864 A    
C49   C54   1.370512 A    
C26   H15   1.104507 S    
C9    C50   1.452855 S    
C28   H18   1.112369 S    
C3    N20   1.432855 S    
C14   N17   1.430410 S    
C21   C42   1.461928 S    
C8    C9    1.388454 A    
C12   C29   1.493662 S    
N27   O11   1.300499 A    
C2    N2    1.327414 A    
C18   H9    1.080816 S    
C36   C37   1.407610 A    
C2    C10   1.381682 A    
C51   N26   1.431522 S    
C30   C31   1.552841 S    
N25   O10   1.301417 A    
C27   H21   1.114433 S    
N11   Ni3   1.848714 S    
C20   H11   1.079410 S    
C24   C53   1.454205 S    
N9    N15   1.373545 A    
H16   C31   1.104768 S    
C1    N1    1.324844 A    
C28   H17   1.109819 S    
C33   C34   1.400532 A    
C14   N10   1.321605 A    
C13   C21   1.379242 A    
C26   C30   1.551702 S    
C44   C45   1.408790 A    
N10   N16   1.373544 A    
C55   N27   1.465041 S    
C39   C40   1.516225 S    
C25   C26   1.522415 S    
N20   H38   1.045192 S    
C41   C48   1.513305 S    
N12   N13   1.387991 A    
C3    C11   1.378145 A    
C31   H22   1.113723 S    
C34   C35   1.408377 A    
C52   C53   1.408780 A    
N20   H39   1.044234 S    
N5    Ni2   1.848731 S    
C27   N19   1.466601 S    
N15   Ni4   1.848532 S    
C7    N7    1.340437 A    
C39   H25   1.113619 S    
N10   Ni2   1.879070 S    
C7    C10   1.390507 A    
N12   Ni4   1.881992 S    
N22   H40   1.045535 S    
N1    N8    1.387989 A    
C19   H10   1.076339 S    
N21   O4    1.300607 A    
N24   O7    1.301535 A    
N3    Ni3   1.848533 S    
C44   H28   1.081219 S    
N29   O15   1.299651 A    
C54   C55   1.513259 S    
C40   N22   1.467377 S    
N28   O14   1.302510 A    
N9    Ni1   1.848731 S    
C15   H7    1.077349 S    
C40   H26   1.112671 S    
C2    H2    1.076322 S    
N24   O8    1.299125 A    
N23   O6    1.302401 A    
C15   C23   1.370823 A    
C48   N25   1.470164 S    
C5    H3    1.080488 S    
C47   H29   1.112536 S    
C33   C38   1.379635 A    
N25   O9    1.301957 A    
C49   C56   1.505390 S    
N26   H42   1.045787 S    
C6    N29   1.437111 S    
C13   N9    1.326397 A    
C49   C50   1.395013 A    
N11   N14   1.387866 A    
C28   C29   1.568773 S    
C8    H5    1.079121 S    
C17   N13   1.346238 A    
C43   H27   1.080791 S    
C17   C24   1.386677 A    
C11   C45   1.468211 S    
C5    N5    1.343936 A    
C14   C22   1.397519 A    
C50   C51   1.412073 A    
N14   Ni1   1.878356 S    
N19   H37   1.046157 S    
C39   N21   1.464990 S    
C46   C47   1.501054 S    
N17   O2    1.300016 A    
C36   H24   1.081592 S    
C16   C24   1.372295 A    
C42   C43   1.408918 A    
C30   C32   1.550288 S    
C38   C39   1.506779 S    
N22   H41   1.047104 S    
C6    N6    1.329603 A    
C32   H20   1.113877 S    
N21   O3    1.302324 A    
C56   N28   1.467266 S    
C23   C37   1.459630 S    
N2    Ni2   1.878356 S    
N28   O13   1.300396 A    
C19   C21   1.392944 A    
N18   H35   1.044545 S    
