data_str_m9_o17_o17_f0_sra.sym.75
_audit_creation_date              2012-12-11T15:17:44-0500
_audit_creation_method            fapswitch 2.2
_symmetry_space_group_name_H-M    P1
_symmetry_Int_Tables_number       1
_space_group_crystal_system       triclinic
_cell_length_a                    7.088865
_cell_length_b                    18.881676
_cell_length_c                    23.250636
_cell_angle_alpha                 89.999887
_cell_angle_beta                  90.562041
_cell_angle_gamma                 89.999899
_cell_volume                      3111.93981039

loop_
_atom_site_label
_atom_site_type_symbol
_atom_type_description
_atom_site_fract_x
_atom_site_fract_y
_atom_site_fract_z
_atom_type_partial_charge
O1    O     O_R   0.620180 0.810610 0.187990 -0.525092
O2    O     O_R   0.379820 0.189390 0.812010 -0.525128
O3    O     O_R   0.379820 0.189390 0.687990 -0.537664
O4    O     O_R   0.620180 0.810610 0.312010 -0.537689
O5    O     O_R   0.120180 0.689390 0.312010 -0.537613
O6    O     O_R   0.879820 0.310610 0.687990 -0.537644
O7    O     O_R   0.879820 0.310610 0.812010 -0.525129
O8    O     O_R   0.120180 0.689390 0.187990 -0.525145
O9    O     O_R   0.290420 0.818570 0.311590 -0.531494
O10   O     O_R   0.709580 0.181430 0.688410 -0.531644
O11   O     O_R   0.709580 0.181430 0.811590 -0.539760
O12   O     O_R   0.290420 0.818570 0.188410 -0.539789
O13   O     O_R   0.790420 0.681430 0.188410 -0.539753
O14   O     O_R   0.209580 0.318570 0.811590 -0.539755
O15   O     O_R   0.209580 0.318570 0.688410 -0.531679
O16   O     O_R   0.790420 0.681430 0.311590 -0.531619
C1    C     C_R   0.459560 0.834701 0.331476 0.696160
C2    C     C_R   0.540440 0.165304 0.668520 0.695916
C3    C     C_R   0.542003 0.166481 0.832384 0.709512
C4    C     C_R   0.457997 0.833522 0.167619 0.709523
C5    C     C_R   0.957998 0.666482 0.167616 0.709509
C6    C     C_R   0.042002 0.333518 0.832384 0.709526
C7    C     C_R   0.040440 0.334696 0.668521 0.695894
C8    C     C_R   0.959560 0.665298 0.331474 0.696109
H1    H     H_    0.870724 0.458211 0.663692 0.137676
H2    H     H_    0.129302 0.541781 0.336296 0.137682
H3    H     H_    0.781434 0.544526 0.153745 0.147557
H4    H     H_    0.218580 0.455473 0.846258 0.147563
H5    H     H_    0.718561 0.044525 0.846258 0.147560
H6    H     H_    0.281399 0.955476 0.153744 0.147550
H7    H     H_    0.629382 0.958211 0.336301 0.137670
H8    H     H_    0.370678 0.041796 0.663685 0.137678
O17   O     O_3   0.453640 0.707610 0.250000 -0.370189
O18   O     O_3   0.546360 0.292390 0.750000 -0.370168
O19   O     O_3   0.953640 0.792390 0.250000 -0.370171
O20   O     O_3   0.046360 0.207610 0.750000 -0.370165
V1    V     V_3+5 0.178800 0.757860 0.250000 1.448408
V2    V     V_3+5 0.821200 0.242140 0.750000 1.448243
V3    V     V_3+5 0.678800 0.742140 0.250000 1.448320
V4    V     V_3+5 0.321200 0.257860 0.750000 1.448213
C9    C     C_R   0.116299 0.363642 0.565525 0.309234
C10   C     C_R   0.883639 0.636328 0.434453 0.309136
C11   C     C_R   0.077913 0.637512 0.068465 0.311514
C12   C     C_R   0.922083 0.362488 0.931536 0.311530
C13   C     C_R   0.422109 0.137518 0.931538 0.311542
C14   C     C_R   0.577910 0.862498 0.068472 0.311493
C15   C     C_R   0.383606 0.863691 0.434443 0.308999
C16   C     C_R   0.616318 0.136353 0.565528 0.309211
C17   C     C_R   0.029069 0.381833 0.617777 -0.130293
C18   C     C_R   0.970926 0.618151 0.382210 -0.130208
C19   C     C_R   0.965689 0.619929 0.116314 -0.138106
C20   C     C_R   0.034313 0.380071 0.883687 -0.138127
C21   C     C_R   0.534317 0.119931 0.883688 -0.138137
C22   C     C_R   0.465683 0.880078 0.116318 -0.138079
C23   C     C_R   0.470937 0.881856 0.382207 -0.130144
C24   C     C_R   0.529065 0.118167 0.617777 -0.130274
C25   C     C_R   0.929793 0.445278 0.622234 -0.246801
C26   C     C_R   0.070204 0.554707 0.377751 -0.246880
C27   C     C_R   0.868060 0.555879 0.116800 -0.243345
C28   C     C_R   0.131950 0.444119 0.883202 -0.243329
C29   C     C_R   0.631943 0.055881 0.883203 -0.243330
C30   C     C_R   0.368040 0.944125 0.116802 -0.243354
C31   C     C_R   0.570253 0.945291 0.377753 -0.246857
C32   C     C_R   0.429763 0.054727 0.622229 -0.246796
C33   C     C_R   0.918942 0.493402 0.576076 0.018483
C34   C     C_R   0.081011 0.506574 0.423904 0.018517
C35   C     C_R   0.892387 0.505368 0.072930 0.026356
C36   C     C_R   0.107622 0.494631 0.927072 0.026351
C37   C     C_R   0.607626 0.005373 0.927076 0.026364
C38   C     C_R   0.392373 0.994636 0.072932 0.026370
C39   C     C_R   0.581045 0.993426 0.423905 0.018521
C40   C     C_R   0.418910 0.006604 0.576071 0.018483
C41   C     C_R   0.004351 0.475607 0.523128 -0.053612
C42   C     C_R   0.995579 0.524365 0.476850 -0.053588
C43   C     C_R   0.993604 0.524396 0.023008 -0.051529
C44   C     C_R   0.006404 0.475603 0.976994 -0.051530
C45   C     C_R   0.506409 0.024402 0.976998 -0.051535
C46   C     C_R   0.493605 0.975610 0.023012 -0.051523
C47   C     C_R   0.495577 0.975641 0.476847 -0.053563
C48   C     C_R   0.504344 0.024397 0.523127 -0.053610
C49   C     C_R   0.094584 0.408414 0.516240 -0.008237
C50   C     C_R   0.905328 0.591555 0.483736 -0.008319
C51   C     C_R   0.079191 0.592658 0.018964 -0.005918
C52   C     C_R   0.920813 0.407341 0.981038 -0.005911
C53   C     C_R   0.420824 0.092664 0.981040 -0.005911
C54   C     C_R   0.579195 0.907348 0.018970 -0.005934
C55   C     C_R   0.405296 0.908459 0.483728 -0.008313
C56   C     C_R   0.594601 0.091584 0.516242 -0.008245
C57   C     C_R   0.830273 0.560208 0.583171 0.315810
C58   C     C_R   0.169653 0.439764 0.416805 0.315770
C59   C     C_R   0.818119 0.436053 0.078807 0.321263
C60   C     C_R   0.181883 0.563947 0.921194 0.321266
C61   C     C_R   0.681899 0.936058 0.921202 0.321267
C62   C     C_R   0.318093 0.063950 0.078806 0.321280
C63   C     C_R   0.669707 0.060232 0.416812 0.315785
C64   C     C_R   0.330221 0.939801 0.583160 0.315808
C65   C     C_R   0.840936 0.612195 0.539612 0.033816
C66   C     C_R   0.158955 0.387773 0.460360 0.033771
C67   C     C_R   0.840032 0.385406 0.034531 0.031879
C68   C     C_R   0.159968 0.614594 0.965470 0.031881
C69   C     C_R   0.659977 0.885411 0.965479 0.031884
C70   C     C_R   0.340031 0.114599 0.034532 0.031864
C71   C     C_R   0.658990 0.112224 0.460365 0.033802
C72   C     C_R   0.340886 0.887817 0.539600 0.033861
O21   O     O_3   0.730604 0.575421 0.632240 -0.663095
H9    H     H_    0.651481 0.533736 0.641403 0.286177
O22   O     O_3   0.269320 0.424552 0.367735 -0.663094
H10   H     H_    0.348497 0.466229 0.358590 0.286176
O23   O     O_3   0.720291 0.417478 0.127385 -0.658275
H11   H     H_    0.799901 0.430152 0.161125 0.275603
O24   O     O_3   0.279702 0.582523 0.872615 -0.658274
H12   H     H_    0.200089 0.569845 0.838877 0.275604
O25   O     O_3   0.779751 0.917485 0.872628 -0.658272
H13   H     H_    0.700142 0.930149 0.838885 0.275597
O26   O     O_3   0.220202 0.082519 0.127376 -0.658275
H14   H     H_    0.299764 0.069849 0.161128 0.275601
O27   O     O_3   0.769416 0.075442 0.367751 -0.663098
H15   H     H_    0.848565 0.033759 0.358600 0.286187
O28   O     O_3   0.230530 0.924589 0.632225 -0.663097
H16   H     H_    0.151418 0.966278 0.641387 0.286181
C73   C     C_3   0.787027 0.689826 0.551330 -0.280161
C74   C     C_3   0.790759 0.719155 0.613448 -0.300194
C75   C     C_3   0.782646 0.800386 0.612797 -0.808349
H17   H     H_    0.909562 0.823855 0.593751 0.244330
H18   H     H_    0.665224 0.819331 0.585332 0.238811
H19   H     H_    0.766559 0.821030 0.657194 0.232557
H20   H     H_    0.669192 0.700259 0.638411 0.244037
H21   H     H_    0.917148 0.701812 0.637652 0.225129
H22   H     H_    0.890404 0.722920 0.527990 0.200997
H23   H     H_    0.645510 0.699753 0.532531 0.203495
C76   C     C_3   0.212828 0.310142 0.448634 -0.280059
C77   C     C_3   0.209069 0.280819 0.386514 -0.300304
C78   C     C_3   0.217161 0.199587 0.387159 -0.808331
H24   H     H_    0.334602 0.180634 0.414612 0.238814
H25   H     H_    0.090249 0.176120 0.406210 0.244363
H26   H     H_    0.233212 0.178949 0.342759 0.232559
H27   H     H_    0.082680 0.298170 0.362315 0.225133
H28   H     H_    0.330634 0.299712 0.361549 0.244051
H29   H     H_    0.354348 0.300209 0.467427 0.203537
H30   H     H_    0.109450 0.277051 0.471976 0.201076
C79   C     C_3   0.790548 0.306879 0.044278 -0.277918
C80   C     C_3   0.791403 0.276009 0.105888 -0.329414
C81   C     C_3   0.786781 0.194761 0.104348 -0.786486
H31   H     H_    0.666041 0.175600 0.078404 0.232832
H32   H     H_    0.913030 0.172460 0.083766 0.255719
H33   H     H_    0.776722 0.173416 0.148708 0.233135
H34   H     H_    0.916527 0.293672 0.130691 0.214608
H35   H     H_    0.667288 0.293452 0.130341 0.247741
H36   H     H_    0.652659 0.296001 0.023489 0.199420
H37   H     H_    0.898751 0.275338 0.021871 0.196400
C82   C     C_3   0.209440 0.693121 0.955724 -0.277939
C83   C     C_3   0.208590 0.723992 0.894114 -0.329392
C84   C     C_3   0.213212 0.805240 0.895655 -0.786501
H38   H     H_    0.086961 0.827540 0.916235 0.255713
H39   H     H_    0.333946 0.824400 0.921602 0.232831
H40   H     H_    0.223280 0.826586 0.851296 0.233134
H41   H     H_    0.332707 0.706548 0.869663 0.247744
H42   H     H_    0.083465 0.706329 0.869310 0.214607
H43   H     H_    0.101227 0.724659 0.978129 0.196400
H44   H     H_    0.347321 0.704004 0.976515 0.199413
C85   C     C_3   0.709453 0.806884 0.955734 -0.277953
C86   C     C_3   0.708593 0.776013 0.894124 -0.329401
C87   C     C_3   0.713208 0.694766 0.895663 -0.786488
H45   H     H_    0.833952 0.675603 0.921605 0.232833
H46   H     H_    0.586962 0.672466 0.916247 0.255696
H47   H     H_    0.723257 0.673421 0.851303 0.233132
H48   H     H_    0.583470 0.793679 0.869321 0.214595
H49   H     H_    0.832707 0.793455 0.869670 0.247734
H50   H     H_    0.847338 0.796003 0.976525 0.199409
H51   H     H_    0.601246 0.775345 0.978141 0.196369
C88   C     C_3   0.290548 0.193125 0.044280 -0.277902
C89   C     C_3   0.291400 0.223993 0.105891 -0.329443
C90   C     C_3   0.286783 0.305241 0.104353 -0.786484
H52   H     H_    0.413031 0.327541 0.083772 0.255703
H53   H     H_    0.166044 0.324404 0.078409 0.232834
H54   H     H_    0.276725 0.326584 0.148714 0.233134
H55   H     H_    0.167283 0.206550 0.130343 0.247738
H56   H     H_    0.416523 0.206326 0.130695 0.214595
H57   H     H_    0.398759 0.224666 0.021877 0.196425
H58   H     H_    0.152664 0.204007 0.023489 0.199417
C91   C     C_3   0.712866 0.189855 0.448641 -0.280070
C92   C     C_3   0.709085 0.219177 0.386520 -0.300291
C93   C     C_3   0.717136 0.300409 0.387161 -0.808336
H59   H     H_    0.590221 0.323868 0.406217 0.244345
H60   H     H_    0.834582 0.319371 0.414607 0.238816
H61   H     H_    0.733155 0.321046 0.342759 0.232564
H62   H     H_    0.830654 0.200291 0.361554 0.244043
H63   H     H_    0.582703 0.201816 0.362322 0.225121
H64   H     H_    0.609501 0.222948 0.471987 0.201042
H65   H     H_    0.854393 0.199785 0.467430 0.203532
C94   C     C_3   0.286974 0.810186 0.551313 -0.280220
C95   C     C_3   0.290745 0.780856 0.613432 -0.300142
C96   C     C_3   0.282682 0.699625 0.612785 -0.808363
H66   H     H_    0.165240 0.680667 0.585335 0.238810
H67   H     H_    0.409594 0.676166 0.593727 0.244315
H68   H     H_    0.266658 0.678983 0.657185 0.232559
H69   H     H_    0.417125 0.798210 0.637633 0.225123
H70   H     H_    0.169180 0.799743 0.638399 0.244015
H71   H     H_    0.145444 0.800267 0.532521 0.203501
H72   H     H_    0.390324 0.777090 0.527961 0.200879
O29   O     O_3   0.234127 0.305392 0.563423 -0.668659
H73   H     H_    0.184074 0.267414 0.588339 0.290797
O30   O     O_3   0.765788 0.694571 0.436534 -0.668673
H74   H     H_    0.816163 0.732603 0.411734 0.290746
O31   O     O_3   0.195674 0.695690 0.071189 -0.666537
H75   H     H_    0.126461 0.735274 0.089358 0.292131
O32   O     O_3   0.804302 0.304315 0.928810 -0.666524
H76   H     H_    0.873489 0.264729 0.910636 0.292133
O33   O     O_3   0.304368 0.195701 0.928816 -0.666532
H77   H     H_    0.373564 0.235279 0.910633 0.292150
O34   O     O_3   0.695658 0.804319 0.071206 -0.666500
H78   H     H_    0.626353 0.764725 0.089322 0.292108
O35   O     O_3   0.265663 0.805479 0.436500 -0.668530
H79   H     H_    0.316416 0.767391 0.411826 0.290626
O36   O     O_3   0.734181 0.194592 0.563435 -0.668617
H80   H     H_    0.684026 0.232591 0.588313 0.290758

loop_
_geom_bond_atom_site_label_1
_geom_bond_atom_site_label_2
_ccdc_geom_bond_type
C89   H55   S    
C81   H33   S    
C88   C89   S    
O5    V1    S    
C11   O31   S    
C11   C51   A    
C41   C42   A    
C64   O28   S    
C37   C45   A    
C87   H45   S    
C10   C50   A    
C73   H23   S    
C43   C44   A    
C43   C51   A    
C44   C52   A    
C47   C55   A    
C85   C86   S    
C14   C54   A    
C79   H36   S    
C75   H17   S    
C34   C58   A    
C45   C46   A    
C63   O27   S    
C33   C57   A    
O11   C3    A    
O17   V3    S    
O12   C4    A    
O18   V4    S    
C6    C20   S    
C38   C46   A    
C87   H46   S    
C94   H71   S    
C58   O22   S    
C86   C87   S    
C37   C61   A    
C93   H60   S    
C62   O26   S    
C7    C17   S    
C39   C63   A    
C49   C66   A    
C77   H28   S    
O26   H14   S    
C34   C42   A    
O12   V1    S    
C33   C41   A    
C30   C38   A    
O3    C2    A    
C16   C24   A    
O29   H73   S    
C41   C49   A    
C74   H20   S    
C92   C93   S    
C65   C73   S    
C76   H30   S    
C20   C28   A    
C27   C35   A    
C91   H64   S    
C26   C34   A    
O24   H12   S    
C77   C78   S    
C96   H67   S    
O9    V1    S    
C23   C31   A    
C66   C76   S    
C78   H26   S    
C82   C83   S    
C16   C56   A    
C95   H70   S    
C84   H39   S    
C1    C23   S    
C47   C48   A    
C2    C24   S    
C85   H50   S    
C46   C54   A    
O15   C7    A    
C16   O36   S    
C45   C53   A    
O16   C8    A    
C90   H52   S    
O14   C6    A    
C88   H57   S    
C10   O30   S    
H1    C25   S    
C42   C50   A    
C9    C17   A    
C63   C71   A    
C79   H37   S    
O8    C5    A    
C83   H42   S    
H4    C28   S    
C68   C82   S    
C8    C18   S    
O10   C2    A    
H5    C29   S    
O32   H76   S    
C18   C26   A    
H7    C31   S    
O20   V4    S    
C87   H47   S    
C76   H29   S    
C94   H72   S    
H8    C32   S    
C4    C22   S    
C93   H61   S    
C61   C69   A    
C75   H19   S    
C92   H63   S    
C22   C30   A    
C77   H27   S    
C91   C92   S    
C72   C94   S    
O14   V4    S    
C12   O32   S    
C13   O33   S    
C39   C47   A    
C55   C72   A    
C57   C65   A    
C15   C55   A    
O11   V2    S    
O19   V3    S    
O36   H80   S    
C93   H59   S    
C80   H35   S    
C91   H65   S    
O34   H78   S    
O4    V3    S    
O35   H79   S    
O22   H10   S    
C96   H68   S    
C9    C49   A    
C14   C22   A    
C35   C59   A    
O33   H77   S    
O13   C5    A    
C61   O25   S    
C95   H69   S    
C84   H40   S    
H2    C26   S    
C62   C70   A    
C73   C74   S    
C90   H53   S    
C10   C18   A    
C86   H49   S    
O4    C1    A    
O9    C1    A    
C31   C39   A    
O3    V4    S    
C51   C68   A    
H6    C30   S    
C78   H24   S    
C50   C65   A    
C88   H58   S    
C19   C27   A    
O8    V1    S    
C85   H51   S    
C21   C29   A    
C76   C77   S    
C5    C19   S    
C56   C71   A    
C89   C90   S    
C60   C68   A    
C15   C23   A    
O25   H13   S    
C90   H54   S    
C89   H56   S    
C70   C88   S    
C81   H32   S    
O31   H75   S    
C83   H41   S    
O1    C4    A    
O19   V1    S    
O2    C3    A    
O18   V2    S    
C52   C67   A    
C80   H34   S    
C67   C79   S    
C73   H22   S    
C12   C52   A    
C12   C20   A    
C17   C25   A    
O28   H16   S    
C60   O24   S    
C38   C62   A    
O7    C6    A    
C71   C91   S    
O21   H9    S    
O27   H15   S    
C13   C53   A    
O10   V2    S    
C29   C37   A    
C95   C96   S    
C59   O23   S    
C64   C72   A    
C81   H31   S    
C84   H38   S    
C40   C48   A    
H3    C27   S    
C79   C80   S    
C82   H44   S    
O20   V2    S    
C36   C44   A    
C3    C21   S    
C24   C32   A    
O5    C8    A    
C11   C19   A    
O6    C7    A    
C15   O35   S    
C69   C85   S    
C36   C60   A    
O7    V2    S    
C92   H62   S    
C32   C40   A    
C74   H21   S    
C94   C95   S    
O17   V1    S    
O15   V4    S    
O13   V3    S    
C75   H18   S    
O1    V3    S    
O16   V3    S    
C13   C21   A    
C86   H48   S    
C40   C64   A    
O2    V4    S    
C35   C43   A    
C83   C84   S    
C28   C36   A    
C48   C56   A    
C96   H66   S    
O6    V2    S    
C57   O21   S    
C78   H25   S    
C80   C81   S    
O30   H74   S    
C59   C67   A    
C74   C75   S    
O23   H11   S    
C54   C69   A    
C9    O29   S    
C58   C66   A    
C53   C70   A    
C14   O34   S    
C82   H43   S    
C25   C33   A    
