data_str_m9_o13_o16_f0_sra.sym.34
_audit_creation_date              2012-12-11T14:43:32-0500
_audit_creation_method            fapswitch 2.2
_symmetry_space_group_name_H-M    P1
_symmetry_Int_Tables_number       1
_space_group_crystal_system       triclinic
_cell_length_a                    20.839698
_cell_length_b                    7.096093
_cell_length_c                    16.387134
_cell_angle_alpha                 88.574922
_cell_angle_beta                  92.380751
_cell_angle_gamma                 88.35254
_cell_volume                      2419.41963012

loop_
_atom_site_label
_atom_site_type_symbol
_atom_type_description
_atom_site_fract_x
_atom_site_fract_y
_atom_site_fract_z
_atom_type_partial_charge
O1    O     O_R   0.564840 0.505290 0.579830 -0.531741
O2    O     O_R   0.435160 0.005290 0.420170 -0.543074
O3    O     O_R   0.556720 0.179930 0.409350 -0.535827
O4    O     O_R   0.443280 0.679930 0.590650 -0.537780
C1    C     C_R   0.570467 0.345053 0.380898 0.772493
C2    C     C_R   0.429688 0.844847 0.619074 0.775691
O5    O     O_R   0.572280 0.175810 0.578530 -0.544747
O6    O     O_R   0.427720 0.675810 0.421470 -0.534689
O7    O     O_R   0.450830 0.001920 0.590540 -0.528693
O8    O     O_R   0.549170 0.501920 0.409460 -0.532749
C3    C     C_R   0.590736 0.340099 0.604515 0.707341
C4    C     C_R   0.410027 0.848918 0.395102 0.704877
O9    O     O_3   0.460130 0.338030 0.503750 -0.376426
O10   O     O_3   0.539870 0.838030 0.496250 -0.377799
V1    V     V_3+5 0.507400 0.064560 0.499310 1.480802
V2    V     V_3+5 0.492600 0.564560 0.500690 1.484526
C5    C     C_R   0.143869 0.886989 0.166734 -0.053326
C6    C     C_R   0.853604 0.433384 0.834903 -0.054862
C7    C     C_R   0.356027 0.879154 0.333290 -0.067313
C8    C     C_R   0.646580 0.332359 0.664981 -0.066029
C9    C     C_R   0.298306 0.094715 0.234869 -0.181124
C10   C     C_R   0.716684 0.145403 0.761776 -0.187376
C11   C     C_R   0.351465 0.050146 0.287124 -0.114611
C12   C     C_R   0.662174 0.162610 0.709040 -0.122872
C13   C     C_R   0.306251 0.751084 0.324535 -0.221780
C14   C     C_R   0.686936 0.486281 0.675960 -0.210518
C15   C     C_R   0.252068 0.796259 0.272432 0.158465
C16   C     C_R   0.742508 0.468902 0.728408 0.160114
C17   C     C_R   0.247888 0.969838 0.227430 0.139679
C18   C     C_R   0.757668 0.296861 0.771527 0.142237
C19   C     C_R   0.193713 0.014914 0.175279 -0.214634
C20   C     C_R   0.813230 0.279492 0.823987 -0.203143
C21   C     C_R   0.148374 0.716371 0.213078 -0.150082
C22   C     C_R   0.838028 0.603090 0.790821 -0.159872
C23   C     C_R   0.201586 0.671583 0.265165 -0.193134
C24   C     C_R   0.783513 0.620329 0.738115 -0.193520
H1    H     H_    0.191381 0.145920 0.139650 0.127663
H2    H     H_    0.824059 0.148210 0.857656 0.131095
H3    H     H_    0.110805 0.614825 0.208172 0.169768
H4    H     H_    0.868022 0.724346 0.797307 0.161186
H5    H     H_    0.296390 0.228060 0.200991 0.141145
H6    H     H_    0.726961 0.012853 0.794616 0.132317
H7    H     H_    0.203439 0.538364 0.299138 0.123672
H8    H     H_    0.773263 0.752867 0.705253 0.119725
H9    H     H_    0.388913 0.152254 0.292280 0.187899
H10   H     H_    0.632181 0.041310 0.702529 0.173277
H11   H     H_    0.308605 0.619927 0.360056 0.123032
H12   H     H_    0.676096 0.617587 0.642319 0.124674
C25   C     C_R   0.379850 0.891179 0.836661 -0.172204
C26   C     C_R   0.621044 0.357686 0.162159 -0.169360
H13   H     H_    0.299043 0.927930 0.956108 0.138243
H14   H     H_    0.702065 0.371272 0.042036 0.139401
H15   H     H_    0.402856 0.904789 0.896703 0.166948
H16   H     H_    0.598396 0.353063 0.101497 0.167369
C27   C     C_R   0.389535 0.855110 0.691086 -0.124777
C28   C     C_R   0.610766 0.354846 0.308881 -0.123560
C29   C     C_R   0.075970 0.890738 0.729446 -0.018468
C30   C     C_R   0.923059 0.413904 0.271499 -0.013406
C31   C     C_R   0.112441 0.867082 0.660500 -0.147573
C32   C     C_R   0.886244 0.415589 0.340887 -0.145846
C33   C     C_R   0.179251 0.862431 0.666100 -0.184466
C34   C     C_R   0.819695 0.405029 0.334927 -0.184940
C35   C     C_R   0.213107 0.880918 0.741676 0.103908
C36   C     C_R   0.786525 0.392855 0.258533 0.103421
C37   C     C_R   0.176539 0.903831 0.812986 0.049279
C38   C     C_R   0.823379 0.396379 0.186711 0.050041
C39   C     C_R   0.282082 0.876169 0.748805 0.090093
C40   C     C_R   0.717933 0.378250 0.251153 0.090399
C41   C     C_R   0.312568 0.893706 0.827259 0.062317
C42   C     C_R   0.687973 0.371032 0.171925 0.061170
C43   C     C_R   0.275894 0.914681 0.896127 -0.160535
C44   C     C_R   0.724829 0.376836 0.102599 -0.160180
C45   C     C_R   0.209204 0.919794 0.889287 -0.180725
C46   C     C_R   0.791242 0.388699 0.109696 -0.179097
C47   C     C_R   0.322148 0.855977 0.681048 -0.285728
C48   C     C_R   0.677791 0.369299 0.319344 -0.285297
C49   C     C_R   0.418177 0.873086 0.769355 0.380884
C50   C     C_R   0.582599 0.349941 0.229768 0.380696
C51   C     C_R   0.107980 0.908381 0.806848 -0.159823
C52   C     C_R   0.891684 0.407467 0.193219 -0.160281
H17   H     H_    0.302745 0.843695 0.619506 0.109941
H18   H     H_    0.696904 0.371837 0.381399 0.109416
H19   H     H_    0.202947 0.843737 0.609604 0.120781
H20   H     H_    0.795652 0.406483 0.391807 0.121173
H21   H     H_    0.088987 0.853496 0.600768 0.168461
H22   H     H_    0.909337 0.421746 0.401202 0.166933
H23   H     H_    0.183455 0.936771 0.944790 0.099829
H24   H     H_    0.817212 0.391538 0.053835 0.099343
O11   O     O_R   0.950790 0.256670 0.090520 -0.523141
O12   O     O_R   0.049210 0.756670 0.909480 -0.536005
O13   O     O_R   0.927720 0.590370 0.921470 -0.545589
O14   O     O_R   0.072280 0.090370 0.078530 -0.525021
C53   C     C_R   0.909454 0.425650 0.895321 0.695269
C54   C     C_R   0.089807 0.916931 0.105024 0.698420
O15   O     O_R   0.943270 0.586180 0.090640 -0.543431
O16   O     O_R   0.056730 0.086180 0.909360 -0.531631
O17   O     O_R   0.064850 0.759970 0.079840 -0.545186
O18   O     O_R   0.935150 0.259970 0.920160 -0.523446
C55   C     C_R   0.930404 0.417372 0.119263 0.739910
C56   C     C_R   0.069576 0.917749 0.880915 0.746103
O19   O     O_3   0.039850 0.428050 0.996240 -0.372454
O20   O     O_3   0.960150 0.928050 0.003760 -0.372909
V3    V     V_3+5 0.992610 0.701540 0.000700 1.469564
V4    V     V_3+5 0.007390 0.201540 0.999300 1.506520
C57   C     C_2   0.004519 0.895624 0.717680 0.726122
O21   O     O_2   0.970581 0.975851 0.765940 -0.571519
O22   O     O_R   0.975916 0.810993 0.649646 -0.659619
H25   H     H_    0.927282 0.823666 0.648032 0.296222
C58   C     C_2   0.994241 0.417489 0.283846 0.715346
O23   O     O_2   0.029396 0.343551 0.235200 -0.572524
O24   O     O_R   0.021191 0.501011 0.353181 -0.659513
H26   H     H_    0.069897 0.493186 0.355447 0.293998
Cl1   Cl    Cl    0.502336 0.873888 0.785029 -0.659572
Cl2   Cl    Cl    0.498901 0.334809 0.213244 -0.673651

loop_
_geom_bond_atom_site_label_1
_geom_bond_atom_site_label_2
_ccdc_geom_bond_type
C29   C57   S    
C35   C37   A    
C28   C48   A    
C15   C17   A    
C30   C58   S    
C29   C51   A    
C1    C28   S    
O24   H26   S    
O1    C3    A    
C2    C27   S    
O2    C4    A    
C2    O7    A    
C37   C45   A    
C37   C51   A    
O5    C3    A    
C57   O22   S    
C26   H16   S    
H13   C43   S    
O11   C55   A    
C11   H9    S    
C36   C40   A    
C58   O24   S    
C27   C49   A    
O15   C55   A    
C29   C31   A    
C30   C32   A    
C38   C46   A    
C28   C50   A    
C32   C34   A    
C41   C43   A    
C45   H23   S    
C34   C36   A    
C8    C12   A    
O22   H25   S    
C20   H2    S    
C23   H7    S    
C13   H11   S    
C22   C24   A    
C14   H12   S    
C27   C47   A    
O5    V1    S    
O6    V2    S    
C25   C41   A    
C17   C19   A    
C50   Cl2   S    
C5    C21   A    
C49   Cl1   S    
C26   C50   A    
O12   C56   A    
O15   V3    S    
C35   C39   A    
C3    C8    S    
C31   C33   A    
C51   C56   S    
O4    C2    A    
C33   H19   S    
C48   H18   S    
C43   C45   A    
C32   H22   S    
C47   H17   S    
C54   O17   A    
C15   C23   A    
C9    C17   A    
C19   H1    S    
C39   C41   A    
C36   C38   A    
O4    V2    S    
C7    C11   A    
C31   H21   S    
H14   C44   S    
O13   C53   A    
O6    C4    A    
O14   C54   A    
O1    V2    S    
C21   H3    S    
O20   V4    S    
O2    V1    S    
C6    C22   A    
O17   V3    S    
C9    H5    S    
C44   C46   A    
O19   V4    S    
C9    C11   A    
O11   V4    S    
C13   C15   A    
C5    C19   A    
C22   H4    S    
C24   H8    S    
C6    C20   A    
O3    V1    S    
C6    C53   S    
C34   H20   S    
C10   C18   A    
C33   C35   A    
O13   V3    S    
O3    C1    A    
C30   C52   A    
C40   C48   A    
C38   C52   A    
C57   O21   D    
C14   C16   A    
C12   H10   S    
O16   V4    S    
C26   C42   A    
C1    O8    A    
C52   C55   S    
O8    V2    S    
C58   O23   D    
C18   C20   A    
C10   H6    S    
C8    C14   A    
C25   H15   S    
O16   C56   A    
C4    C7    S    
C16   C18   A    
C21   C23   A    
C25   C49   A    
C10   C12   A    
O7    V1    S    
O20   V3    S    
C7    C13   A    
O12   V3    S    
O14   V4    S    
C39   C47   A    
C16   C24   A    
O19   V3    S    
O9    V2    S    
C40   C42   A    
O10   V1    S    
C42   C44   A    
C5    C54   S    
C46   H24   S    
C53   O18   A    
O18   V4    S    
