data_str_m9_o13_o2_f0_sra.sym.68
_audit_creation_date              2012-12-11T14:57:59-0500
_audit_creation_method            fapswitch 2.2
_symmetry_space_group_name_H-M    P1
_symmetry_Int_Tables_number       1
_space_group_crystal_system       triclinic
_cell_length_a                    6.937752
_cell_length_b                    16.658381
_cell_length_c                    17.128054
_cell_angle_alpha                 100.419081
_cell_angle_beta                  90.572207
_cell_angle_gamma                 90.618772
_cell_volume                      1946.62189338

loop_
_atom_site_label
_atom_site_type_symbol
_atom_type_description
_atom_site_fract_x
_atom_site_fract_y
_atom_site_fract_z
_atom_type_partial_charge
O1    O     O_R   0.506180 0.438940 0.579430 -0.521693
O2    O     O_R   0.170520 0.406230 0.413590 -0.538705
O3    O     O_R   0.005180 0.561060 0.420570 -0.547952
C1    C     C_R   0.338847 0.382804 0.385439 0.679520
O4    O     O_R   0.176140 0.429310 0.578370 -0.539944
O5    O     O_R   0.010830 0.584300 0.586530 -0.544465
C2    C     C_R   0.345660 0.414646 0.606043 0.793902
O6    O     O_R   0.500520 0.415700 0.413470 -0.539758
O7    O     O_3   0.340830 0.550820 0.502480 -0.372031
V1    V     V_3+5 0.064040 0.490570 0.499540 1.432221
O8    O     O_R   0.681400 0.593770 0.586410 -0.528901
C3    C     C_R   0.852000 0.616617 0.614641 0.711573
O9    O     O_R   0.675790 0.570690 0.421630 -0.532386
C4    C     C_R   0.845252 0.586537 0.394968 0.729736
V2    V     V_3+5 0.564650 0.509430 0.500460 1.464818
O10   O     O_3   0.837730 0.449180 0.497520 -0.368722
C5    C     C_R   0.903280 0.867715 0.171593 -0.172608
C6    C     C_R   0.864452 0.637571 0.332258 -0.140886
C7    C     C_R   0.047639 0.667139 0.219378 -0.174651
C8    C     C_R   0.005498 0.616533 0.273851 -0.269265
C9    C     C_R   0.760719 0.710528 0.334042 0.390621
C10   C     C_R   0.811332 0.764285 0.281400 -0.012737
C11   C     C_R   0.953871 0.741661 0.223086 0.094472
C12   C     C_R   0.999400 0.793446 0.168865 -0.214229
C13   C     C_R   0.770169 0.892421 0.233135 0.451003
C14   C     C_R   0.724321 0.840750 0.286539 -0.212643
H1    H     H_    0.619487 0.861160 0.331971 0.171619
C15   C     C_R   0.786047 0.909779 0.731645 -0.154241
C16   C     C_R   0.720803 0.924858 0.658515 -0.148933
C17   C     C_R   0.703365 0.861291 0.593973 -0.119368
C18   C     C_R   0.750960 0.782167 0.602132 -0.131660
C19   C     C_R   0.815188 0.764736 0.675952 0.057026
C20   C     C_R   0.832417 0.829725 0.742232 0.060251
C21   C     C_R   0.868523 0.684686 0.683706 -0.141667
C22   C     C_R   0.939003 0.669604 0.757771 0.013389
C23   C     C_R   0.937599 0.732506 0.826049 -0.098954
C24   C     C_R   0.894999 0.813929 0.817221 -0.162626
C25   C     C_R   0.005402 0.591585 0.765774 -0.179788
C26   C     C_R   0.063667 0.574904 0.838885 -0.334694
C27   C     C_R   0.042477 0.633456 0.908344 0.449516
C28   C     C_R   0.971286 0.710729 0.901841 0.373988
H2    H     H_    0.012287 0.541757 0.715888 0.161452
H3    H     H_    0.116049 0.514440 0.840674 0.138673
H4    H     H_    0.525988 0.493651 0.150492 0.114227
C29   C     C_R   0.261217 0.212575 0.396446 -0.197161
C30   C     C_R   0.233368 0.131428 0.404818 -0.238728
C31   C     C_R   0.266130 0.067373 0.340709 0.491806
C32   C     C_R   0.317908 0.086779 0.267936 -0.189594
C33   C     C_R   0.349926 0.168217 0.257955 -0.020160
C34   C     C_R   0.320134 0.232651 0.323521 0.056673
C35   C     C_R   0.414227 0.185310 0.184167 -0.163553
C36   C     C_R   0.446434 0.267504 0.175903 0.068856
C37   C     C_R   0.414604 0.332290 0.241237 0.075432
C38   C     C_R   0.351603 0.315086 0.315327 -0.162521
C39   C     C_R   0.506470 0.286925 0.102760 -0.145163
C40   C     C_R   0.535346 0.367778 0.094129 -0.121612
C41   C     C_R   0.504319 0.430932 0.157652 -0.131203
C42   C     C_R   0.444247 0.413774 0.230353 -0.148047
H5    H     H_    0.337227 0.036146 0.219481 0.168497
H6    H     H_    0.531190 0.240005 0.051430 0.093978
C43   C     C_R   0.397386 0.135193 0.831343 -0.114569
C44   C     C_R   0.362985 0.365334 0.670530 -0.268397
C45   C     C_R   0.547232 0.335075 0.783615 -0.287161
C46   C     C_R   0.501985 0.388637 0.731451 0.392115
C47   C     C_R   0.251428 0.293406 0.669515 0.323323
C48   C     C_R   0.299544 0.238666 0.721897 -0.038950
C49   C     C_R   0.450554 0.260264 0.778757 -0.011244
C50   C     C_R   0.500489 0.207980 0.831975 -0.182978
C51   C     C_R   0.249827 0.113426 0.774736 -0.266087
C52   C     C_R   0.203694 0.162411 0.718594 0.490915
H7    H     H_    0.165744 0.058360 0.775357 0.130620
O11   O     O_R   0.265840 0.084300 0.086750 -0.543550
O12   O     O_R   0.589750 0.070740 0.921690 -0.548466
O13   O     O_R   0.755020 0.915730 0.913400 -0.541716
C53   C     C_R   0.419454 0.086176 0.895036 0.703710
O14   O     O_R   0.595830 0.093740 0.086480 -0.534522
O15   O     O_R   0.761150 0.938890 0.079360 -0.519984
C54   C     C_R   0.427438 0.117544 0.114246 0.705874
O16   O     O_R   0.259710 0.061140 0.920790 -0.542085
O17   O     O_3   0.425260 0.949200 0.997610 -0.366959
V3    V     V_3+5 0.702060 0.009430 0.000450 1.445462
O18   O     O_R   0.090530 0.929220 0.078150 -0.536158
C55   C     C_R   0.921597 0.915438 0.106369 0.801370
O19   O     O_R   0.084440 0.906220 0.913360 -0.535476
C56   C     C_R   0.913547 0.882921 0.885519 0.785710
V4    V     V_3+5 0.201450 0.990520 0.999290 1.451038
O20   O     O_3   0.928380 0.050800 0.002390 -0.379480
H8    H     H_    0.103002 0.774301 0.122435 0.182830
H9    H     H_    0.654235 0.873427 0.537079 0.134414
H10   H     H_    0.738601 0.735183 0.549718 0.138953
O21   O     O_3   0.916142 0.761443 0.970754 -0.560950
C57   C     C_3   0.724112 0.740447 0.986539 -0.217323
H11   H     H_    0.712212 0.676360 0.996476 0.144462
H12   H     H_    0.624005 0.750009 0.937914 0.127632
H13   H     H_    0.676002 0.780198 0.041607 0.160954
H14   H     H_    0.235611 0.259340 0.447808 0.158686
H15   H     H_    0.184042 0.119352 0.461204 0.147333
O22   O     O_3   0.235426 0.985099 0.343040 -0.553351
C58   C     C_3   0.286837 0.965131 0.416944 -0.262145
H16   H     H_    0.165635 0.978113 0.458709 0.124528
H17   H     H_    0.422298 0.996445 0.442179 0.129733
H18   H     H_    0.312070 0.898491 0.408327 0.171901
O23   O     O_3   0.674098 0.965461 0.239113 -0.558874
C59   C     C_3   0.794300 0.028136 0.280302 -0.207828
H19   H     H_    0.924925 0.036357 0.245486 0.128185
H20   H     H_    0.834208 0.016586 0.340406 0.152739
H21   H     H_    0.715628 0.086501 0.288542 0.155984
H22   H     H_    0.581251 0.381501 0.037692 0.103776
H23   H     H_    0.419496 0.465175 0.277516 0.094234
H24   H     H_    0.612221 0.226022 0.876622 0.117955
H25   H     H_    0.661346 0.351424 0.827424 0.130958
O24   O     O_3   0.052471 0.139268 0.665649 -0.537646
C60   C     C_3   0.098378 0.066473 0.613741 -0.236578
H26   H     H_    0.089512 0.012964 0.643965 0.134461
H27   H     H_    0.243471 0.070267 0.587250 0.120514
H28   H     H_    0.990136 0.056421 0.564761 0.156277
O25   O     O_3   0.599052 0.462789 0.736245 -0.551248
C61   C     C_3   0.588986 0.509021 0.813848 -0.250818
H29   H     H_    0.708188 0.492486 0.851279 0.134804
H30   H     H_    0.448731 0.501873 0.842848 0.126737
H31   H     H_    0.605898 0.574600 0.810577 0.170227
O26   O     O_3   0.104522 0.274603 0.613793 -0.542089
C62   C     C_3   0.931318 0.306842 0.648421 -0.074331
H32   H     H_    0.940964 0.374123 0.668542 0.124818
H33   H     H_    0.890107 0.277622 0.699361 0.143116
H34   H     H_    0.813939 0.294193 0.603258 0.144812
H35   H     H_    0.157776 0.648860 0.175547 0.143958
H36   H     H_    0.086088 0.560739 0.271044 0.139837
O27   O     O_3   0.623837 0.732716 0.391890 -0.576468
C63   C     C_3   0.440591 0.708152 0.359013 -0.240491
H37   H     H_    0.433015 0.641296 0.335762 0.141902
H38   H     H_    0.400633 0.742215 0.311193 0.141546
H39   H     H_    0.331608 0.721996 0.406356 0.164904
O28   O     O_3   0.092878 0.620499 0.984141 -0.544796
C64   C     C_3   0.067984 0.538529 0.993318 -0.279088
H40   H     H_    0.190922 0.501070 0.967275 0.136973
H41   H     H_    0.927753 0.512222 0.968130 0.121019
H42   H     H_    0.067347 0.536476 0.057672 0.168813
H43   H     H_    0.799641 0.961745 0.779469 0.107810
H44   H     H_    0.684949 0.986366 0.651791 0.131878

loop_
_geom_bond_atom_site_label_1
_geom_bond_atom_site_label_2
_ccdc_geom_bond_type
C64   H42   S    
C39   C40   A    
C6    C9    A    
C4    C6    S    
O2    C1    A    
C7    C8    A    
C1    O6    A    
C59   H20   S    
C62   H32   S    
C48   C52   A    
C37   C38   A    
C43   C53   S    
C15   C16   A    
C14   H1    S    
C34   C38   A    
C31   O22   S    
C24   C56   S    
C23   C24   A    
O19   V4    S    
C25   H2    S    
O5    C3    A    
C17   C18   A    
C62   H33   S    
O15   C55   A    
V2    O10   S    
C42   H23   S    
C40   C41   A    
C21   C22   A    
C51   H7    S    
C61   H29   S    
O24   C60   S    
O11   C54   A    
C60   H26   S    
O8    V2    S    
C40   H22   S    
C58   H16   S    
C33   C35   A    
C44   C46   A    
C11   C12   A    
O1    V2    S    
O7    V1    S    
C36   C39   A    
C60   H28   S    
C39   H6    S    
C48   C49   A    
O9    C4    A    
O12   C53   A    
C23   C28   A    
C15   H43   S    
C17   H9    S    
O12   V3    S    
C59   H19   S    
C45   C49   A    
C5    C12   A    
C35   C36   A    
C64   H40   S    
C22   C25   A    
O19   C56   A    
O21   C57   S    
O4    C2    A    
V4    O20   S    
C13   O23   S    
C62   H34   S    
C26   H3    S    
C13   C14   A    
O18   V4    S    
C27   O28   S    
C57   H13   S    
C20   C24   A    
C46   O25   S    
C49   C50   A    
C5    C55   S    
C61   H31   S    
C19   C21   A    
C63   H38   S    
C2    C44   S    
C16   C17   A    
C31   C32   A    
O15   V3    S    
H4    C41   S    
C37   C42   A    
C18   H10   S    
C57   H12   S    
C50   H24   S    
C47   O26   S    
C59   H21   S    
C12   H8    S    
C9    O27   S    
V3    O20   S    
O3    C4    A    
C52   O24   S    
C27   C28   A    
C28   O21   S    
C30   H15   S    
C15   C20   A    
O22   C58   S    
O6    V2    S    
O9    V2    S    
C33   C34   A    
C63   H39   S    
O13   V3    S    
C3    C21   S    
O2    V1    S    
C26   C27   A    
C36   C37   A    
C7    C11   A    
C32   H5    S    
O27   C63   S    
C43   C51   A    
C64   H41   S    
C16   H44   S    
C30   C31   A    
C32   C33   A    
C44   C47   A    
C1    C38   S    
O1    C2    A    
C18   C19   A    
O14   C54   A    
O17   V3    S    
O14   V3    S    
O5    V1    S    
O11   V4    S    
O8    C3    A    
C8    H36   S    
O28   C64   S    
O17   V4    S    
C5    C13   A    
C19   C20   A    
C63   H37   S    
O7    V2    S    
C35   C54   S    
O4    V1    S    
O3    V1    S    
V1    O10   S    
O25   C61   S    
C43   C50   A    
C41   C42   A    
C25   C26   A    
C29   C34   A    
C7    H35   S    
C57   H11   S    
C6    C8    A    
C47   C48   A    
O13   C56   A    
C45   H25   S    
C51   C52   A    
C61   H30   S    
C45   C46   A    
C29   C30   A    
C58   H18   S    
O18   C55   A    
C10   C14   A    
O23   C59   S    
C10   C11   A    
C22   C23   A    
O26   C62   S    
C9    C10   A    
C29   H14   S    
C53   O16   A    
C58   H17   S    
O16   V4    S    
C60   H27   S    
