data_str_m3_o41_o41_f0_fof.sym.57
_audit_creation_date              2012-12-10T16:39:36-0500
_audit_creation_method            fapswitch 2.2
_symmetry_space_group_name_H-M    P1
_symmetry_Int_Tables_number       1
_space_group_crystal_system       triclinic
_cell_length_a                    16.719167
_cell_length_b                    16.91386
_cell_length_c                    17.038048
_cell_angle_alpha                 67.291181
_cell_angle_beta                  65.556615
_cell_angle_gamma                 65.807014
_cell_volume                      3862.69326477

loop_
_atom_site_label
_atom_site_type_symbol
_atom_type_description
_atom_site_fract_x
_atom_site_fract_y
_atom_site_fract_z
_atom_type_partial_charge
C1    C     C_R   0.327560 0.945686 0.457448 0.044016
C2    C     C_R   0.327554 0.458260 0.945324 0.040474
C3    C     C_R   0.527459 0.406314 0.022333 0.025406
C4    C     C_R   0.972965 0.475300 0.593654 0.030481
C5    C     C_R   0.027038 0.524698 0.406345 0.030482
C6    C     C_R   0.311774 0.865146 0.293245 0.150018
C7    C     C_R   0.251046 0.893180 0.243514 -0.035801
C8    C     C_R   0.248163 0.832895 0.207826 -0.193907
C9    C     C_R   0.305311 0.744313 0.221711 -0.097522
C10   C     C_R   0.364764 0.715578 0.272108 -0.134454
C11   C     C_R   0.368099 0.775671 0.307689 -0.184852
C12   C     C_R   0.688199 0.134873 0.706739 0.150004
C13   C     C_R   0.051628 0.672040 0.545057 0.044494
C14   C     C_R   0.748922 0.106876 0.756465 -0.035851
C15   C     C_R   0.751788 0.167193 0.792125 -0.193901
C16   C     C_R   0.694629 0.255770 0.778214 -0.097500
C17   C     C_R   0.635177 0.284466 0.727824 -0.134483
C18   C     C_R   0.631858 0.224341 0.692274 -0.184836
C19   C     C_R   0.920326 0.273334 0.273109 0.208202
C20   C     C_R   0.827713 0.285273 0.287899 -0.166730
C21   C     C_R   0.804881 0.243832 0.246634 -0.191005
C22   C     C_R   0.874294 0.190186 0.190799 -0.156240
C23   C     C_R   0.966559 0.177175 0.176484 -0.157559
C24   C     C_R   0.948373 0.327960 0.454942 0.044496
C25   C     C_R   0.989857 0.218098 0.217485 0.016906
C26   C     C_R   0.079675 0.726665 0.726890 0.208199
C27   C     C_R   0.172287 0.714723 0.712103 -0.166734
C28   C     C_R   0.195120 0.756162 0.753370 -0.191004
C29   C     C_R   0.125706 0.809810 0.809203 -0.156244
C30   C     C_R   0.033441 0.822824 0.823515 -0.157558
C31   C     C_R   0.010144 0.781902 0.782514 0.016912
C32   C     C_R   0.310207 0.291921 0.867305 0.158752
C33   C     C_R   0.248357 0.242222 0.897057 -0.030286
C34   C     C_R   0.240297 0.209808 0.837402 -0.167487
C35   C     C_R   0.452973 0.987837 0.454725 -0.050200
C36   C     C_R   0.294029 0.226201 0.747919 -0.082793
C37   C     C_R   0.355633 0.275400 0.717830 -0.139845
C38   C     C_R   0.363634 0.308266 0.777154 -0.178389
C39   C     C_R   0.689767 0.708081 0.132711 0.158725
C40   C     C_R   0.751625 0.757765 0.102982 -0.030367
C41   C     C_R   0.759627 0.790219 0.162642 -0.167462
C42   C     C_R   0.705826 0.773887 0.252103 -0.082762
C43   C     C_R   0.644214 0.724704 0.282168 -0.139837
C44   C     C_R   0.636274 0.691793 0.222842 -0.178364
C45   C     C_R   0.547033 0.012144 0.545279 -0.050196
C46   C     C_R   0.990133 0.451979 0.453824 -0.049900
C47   C     C_R   0.009871 0.548019 0.546176 -0.049901
C48   C     C_R   0.451775 0.454953 0.989015 -0.050144
C49   C     C_R   0.548227 0.545045 0.010983 -0.050142
C50   C     C_R   0.963476 0.179056 0.437877 0.889034
C51   C     C_R   0.672443 0.054300 0.542555 0.044013
C52   C     C_R   0.036524 0.820944 0.562123 0.889027
C53   C     C_R   0.179780 0.438803 0.959476 0.916208
C54   C     C_R   0.820220 0.561196 0.040526 0.916205
C55   C     C_R   0.431914 0.975685 0.177388 0.928734
C56   C     C_R   0.568086 0.024311 0.822613 0.928728
C57   C     C_R   0.568190 0.822627 0.024183 0.930376
C58   C     C_R   0.431811 0.177373 0.975813 0.930375
C59   C     C_R   0.021241 0.568603 0.823758 0.903114
C60   C     C_R   0.978760 0.431397 0.176241 0.903108
C61   C     C_R   0.820356 0.039791 0.561625 0.904448
C62   C     C_R   0.001360 0.432990 0.313647 0.037126
C63   C     C_R   0.179644 0.960205 0.438377 0.904441
C64   C     C_R   0.406839 0.974543 0.409319 0.063482
C65   C     C_R   0.593166 0.025441 0.590685 0.063489
C66   C     C_R   0.979076 0.404819 0.407569 0.070391
C67   C     C_R   0.020926 0.595179 0.592430 0.070390
C68   C     C_R   0.405084 0.409686 0.976133 0.064098
C69   C     C_R   0.594919 0.590313 0.023866 0.064096
C70   C     C_R   0.280151 0.937456 0.409176 -0.175387
C71   C     C_R   0.719850 0.062533 0.590827 -0.175385
C72   C     C_R   0.975800 0.393534 0.270047 -0.158402
C73   C     C_R   0.998642 0.567009 0.686352 0.037126
C74   C     C_R   0.024201 0.606465 0.729952 -0.158405
C75   C     C_R   0.395846 0.272574 0.968882 -0.155986
C76   C     C_R   0.604155 0.727426 0.031115 -0.155995
C77   C     C_R   0.602749 0.032243 0.727349 -0.153707
C78   C     C_R   0.397253 0.967747 0.272653 -0.153707
C79   C     C_R   0.719842 0.590353 0.062958 -0.172047
C80   C     C_R   0.280157 0.409646 0.937046 -0.172043
C81   C     C_R   0.053256 0.722945 0.594343 -0.166084
C82   C     C_R   0.946744 0.277055 0.405657 -0.166085
C83   C     C_R   0.490000 0.965784 0.730880 -0.237389
C84   C     C_R   0.433740 0.315389 0.997253 0.029073
C85   C     C_R   0.510001 0.034206 0.269125 -0.237396
C86   C     C_R   0.079647 0.695161 0.450588 -0.234464
C87   C     C_R   0.920350 0.304840 0.549412 -0.234459
C88   C     C_R   0.699683 0.446933 0.076349 -0.245172
C89   C     C_R   0.300317 0.553066 0.923654 -0.245178
C90   C     C_R   0.298266 0.926230 0.551707 -0.237402
C91   C     C_R   0.701735 0.073758 0.448297 -0.237397
C92   C     C_R   0.502212 0.268434 0.041600 -0.235912
C93   C     C_R   0.497791 0.731565 0.958396 -0.235913
C94   C     C_R   0.047677 0.499751 0.267339 -0.238477
C95   C     C_R   0.566264 0.684610 0.002744 0.029064
C96   C     C_R   0.952324 0.500249 0.732660 -0.238473
C97   C     C_R   0.325609 0.929595 0.322889 -0.111357
C98   C     C_R   0.674392 0.070396 0.677113 -0.111339
C99   C     C_R   0.946204 0.316709 0.317266 -0.137513
C100  C     C_R   0.053797 0.683291 0.682734 -0.137514
C101  C     C_R   0.325351 0.322747 0.929792 -0.116668
C102  C     C_R   0.674648 0.677253 0.070209 -0.116639
C103  C     C_R   0.656566 0.059924 0.403505 0.111463
C104  C     C_R   0.343437 0.940062 0.596499 0.111463
C105  C     C_R   0.942946 0.452327 0.687382 0.110282
C106  C     C_R   0.562462 0.006171 0.684589 0.032915
C107  C     C_R   0.057053 0.547674 0.312616 0.110284
C108  C     C_R   0.446712 0.687435 0.952585 0.107899
C109  C     C_R   0.553291 0.312564 0.047413 0.107900
C110  C     C_R   0.560666 0.039293 0.313764 0.107198
C111  C     C_R   0.439337 0.960693 0.686240 0.107217
C112  C     C_R   0.347480 0.598065 0.935096 0.108749
C113  C     C_R   0.652521 0.401934 0.064905 0.108749
C114  C     C_R   0.927364 0.353933 0.595531 0.115601
C115  C     C_R   0.072634 0.646069 0.404468 0.115600
C116  C     C_R   0.689122 0.074374 0.310658 -0.218072
C117  C     C_R   0.437541 0.993816 0.315414 0.032910
C118  C     C_R   0.310878 0.925617 0.689345 -0.218076
C119  C     C_R   0.904907 0.380748 0.734701 -0.212949
C120  C     C_R   0.095086 0.619259 0.265297 -0.212946
C121  C     C_R   0.368741 0.736021 0.923679 -0.208122
C122  C     C_R   0.631262 0.263978 0.076320 -0.208116
C123  C     C_R   0.641793 0.063893 0.266261 -0.213321
C124  C     C_R   0.358207 0.936098 0.733742 -0.213308
C125  C     C_R   0.319400 0.691837 0.915275 -0.224226
C126  C     C_R   0.680602 0.308161 0.084726 -0.224223
C127  C     C_R   0.898554 0.331232 0.689186 -0.216287
C128  C     C_R   0.672447 0.541739 0.054678 0.040473
C129  C     C_R   0.101437 0.668776 0.310812 -0.216276
C130  C     C_R   0.530927 0.018407 0.406953 0.027465
C131  C     C_R   0.469078 0.981575 0.593051 0.027470
C132  C     C_R   0.963770 0.426891 0.547587 0.026386
C133  C     C_R   0.036232 0.573108 0.452412 0.026385
C134  C     C_R   0.423775 0.548809 0.967460 0.028079
C135  C     C_R   0.576228 0.451190 0.032539 0.028077
C136  C     C_R   0.578305 0.029949 0.452035 0.027934
C137  C     C_R   0.421700 0.970032 0.547969 0.027933
C138  C     C_R   0.472544 0.593685 0.977665 0.025407
H1    H     H_    0.329379 0.928764 0.804735 0.123775
H2    H     H_    0.343971 0.807957 0.911280 0.125981
H3    H     H_    0.118167 0.638240 0.192924 0.141894
H4    H     H_    0.881820 0.361770 0.807074 0.141899
H5    H     H_    0.209364 0.962523 0.228676 0.131302
H6    H     H_    0.202635 0.855255 0.168169 0.109085
H7    H     H_    0.303770 0.698022 0.193133 0.135197
H8    H     H_    0.409236 0.647063 0.282540 0.129454
H9    H     H_    0.416240 0.753147 0.344695 0.128495
H10   H     H_    0.790619 0.037541 0.771316 0.131310
H11   H     H_    0.797313 0.144863 0.831777 0.109095
H12   H     H_    0.670618 0.071233 0.195267 0.123776
H13   H     H_    0.696160 0.302086 0.806766 0.135206
H14   H     H_    0.590695 0.352975 0.717374 0.129450
H15   H     H_    0.583720 0.246835 0.655273 0.128523
H16   H     H_    0.773664 0.326606 0.330933 0.121490
H17   H     H_    0.733258 0.253346 0.258105 0.144392
H18   H     H_    0.857251 0.158133 0.158399 0.108793
H19   H     H_    0.020014 0.135391 0.133648 0.094124
H20   H     H_    0.061791 0.207546 0.206174 0.097387
H21   H     H_    0.226337 0.673388 0.669071 0.121487
H22   H     H_    0.266742 0.746646 0.741902 0.144394
H23   H     H_    0.128299 0.725259 0.272642 0.143050
H24   H     H_    0.142749 0.841862 0.841604 0.108793
H25   H     H_    0.979987 0.864608 0.866351 0.094128
H26   H     H_    0.938210 0.792455 0.793823 0.097395
H27   H     H_    0.208641 0.226171 0.966808 0.125915
H28   H     H_    0.193207 0.170997 0.860815 0.109643
H29   H     H_    0.288312 0.200349 0.702027 0.134147
H30   H     H_    0.397652 0.287588 0.648636 0.129158
H31   H     H_    0.412450 0.345388 0.753208 0.127131
H32   H     H_    0.791381 0.773787 0.033243 0.125947
H33   H     H_    0.806720 0.829023 0.139246 0.109652
H34   H     H_    0.871683 0.274756 0.727356 0.143042
H35   H     H_    0.711491 0.799779 0.297997 0.134148
H36   H     H_    0.602139 0.712568 0.351343 0.129146
H37   H     H_    0.587446 0.654689 0.246767 0.127129
H38   H     H_    0.471722 0.935100 0.801491 0.167746
H39   H     H_    0.528274 0.064896 0.198515 0.167751
H40   H     H_    0.110870 0.748813 0.412041 0.172106
H41   H     H_    0.889123 0.251192 0.587958 0.172102
H42   H     H_    0.754975 0.407337 0.105757 0.180196
H43   H     H_    0.245025 0.592662 0.894248 0.180198
H44   H     H_    0.242409 0.897093 0.591417 0.178009
H45   H     H_    0.741285 0.269060 0.105407 0.141156
H46   H     H_    0.757589 0.102899 0.408586 0.178008
H47   H     H_    0.516948 0.197672 0.073828 0.164984
H48   H     H_    0.483054 0.802327 0.926170 0.164982
H49   H     H_    0.079658 0.514301 0.196010 0.180785
H50   H     H_    0.920342 0.485700 0.803989 0.180783
H51   H     H_    0.258716 0.730939 0.894597 0.141156
H52   H     H_    0.247925 0.908117 0.727359 0.141425
H53   H     H_    0.752072 0.091879 0.272644 0.141423
H54   H     H_    0.656031 0.192041 0.088721 0.125979
O1    O     O_R   0.982940 0.138950 0.510160 -0.625399
O2    O     O_R   0.982940 0.510160 0.138950 -0.634853
O3    O     O_R   0.861050 0.017060 0.489840 -0.622674
O4    O     O_R   0.138950 0.982940 0.510160 -0.622671
O5    O     O_R   0.867700 0.025880 0.612340 -0.637077
O6    O     O_R   0.132300 0.974120 0.387660 -0.637081
O7    O     O_R   0.025880 0.612340 0.867700 -0.631983
O8    O     O_R   0.974120 0.387660 0.132300 -0.631986
O9    O     O_R   0.612340 0.867700 0.025880 -0.630245
O10   O     O_R   0.387660 0.132300 0.974120 -0.630270
O11   O     O_R   0.387660 0.974120 0.132300 -0.625467
O12   O     O_R   0.017060 0.861050 0.489840 -0.625400
O13   O     O_R   0.612340 0.025880 0.867700 -0.625469
O14   O     O_R   0.132300 0.387660 0.974120 -0.633697
O15   O     O_R   0.867700 0.612340 0.025880 -0.633712
O16   O     O_R   0.974120 0.132300 0.387660 -0.626737
O17   O     O_R   0.025880 0.867700 0.612340 -0.626739
O18   O     O_R   0.138950 0.510160 0.982940 -0.636919
O19   O     O_R   0.861050 0.489840 0.017060 -0.636914
O20   O     O_R   0.510160 0.982940 0.138950 -0.645791
O21   O     O_R   0.489840 0.017060 0.861050 -0.645797
O22   O     O_R   0.489840 0.861050 0.017060 -0.640417
O23   O     O_R   0.510160 0.138950 0.982940 -0.640416
O24   O     O_R   0.017060 0.489840 0.861050 -0.634846
Zn1   Zn    Zn3+2 0.004880 0.004880 0.583590 0.936208
Zn2   Zn    Zn3+2 0.995120 0.995120 0.416410 0.936210
Zn3   Zn    Zn3+2 0.004880 0.583590 0.004880 0.927925
Zn4   Zn    Zn3+2 0.995120 0.416410 0.995120 0.927940
Zn5   Zn    Zn3+2 0.583590 0.004880 0.004880 0.917543
Zn6   Zn    Zn3+2 0.416410 0.995120 0.995120 0.917539

loop_
_geom_bond_atom_site_label_1
_geom_bond_atom_site_label_2
_ccdc_geom_bond_type
C79   C128  A    
C41   C42   A    
C1    C90   A    
C116  C123  A    
C13   C81   A    
C82   C99   A    
O10   Zn6   S    
C124  H1    S    
C19   C20   A    
C32   C101  S    
C44   H37   S    
O9    Zn5   S    
C108  C121  A    
C96   C105  A    
C6    C7    A    
C20   C21   A    
C40   H32   S    
O4    Zn1   S    
C77   C106  A    
C60   O2    A    
C7    C8    A    
C4    C132  A    
C22   H18   S    
O1    Zn1   S    
O19   Zn4   S    
C41   H33   S    
C89   C112  A    
C50   C82   S    
C26   C27   A    
C37   C38   A    
C20   H16   S    
C39   C102  S    
C57   C76   S    
C48   C134  A    
C36   C37   A    
C15   H11   S    
C46   C66   A    
C2    C68   A    
C93   C108  A    
C46   C132  A    
C30   C31   A    
C43   H36   S    
C83   H38   S    
C109  C122  A    
C60   C72   S    
C27   H21   S    
C15   C16   A    
C14   H10   S    
C3    C48   A    
C28   H22   S    
C104  C137  A    
C17   C18   A    
C51   C65   A    
C9    H7    S    
C88   C113  A    
C24   C82   A    
C87   C114  A    
O22   Zn6   S    
C51   C91   A    
C55   O20   A    
C56   O13   A    
C90   H44   S    
C69   C128  A    
C59   O7    A    
C53   O18   A    
C13   C86   A    
C79   C102  A    
C35   C64   A    
C67   C73   A    
C32   C38   A    
C56   C77   S    
C9    C10   A    
C61   O3    A    
C12   C98   S    
C70   C97   A    
C24   C66   A    
C27   C28   A    
C93   H48   S    
C61   C71   S    
C49   C135  A    
C123  H12   S    
C26   C31   A    
C93   C95   A    
C49   C69   A    
C21   C22   A    
C47   C133  A    
C76   C102  A    
C126  H45   S    
O6    Zn2   S    
C51   C71   A    
C30   H25   S    
C86   H40   S    
O5    Zn1   S    
O23   Zn5   S    
C47   C67   A    
C58   C75   S    
C88   H42   S    
C37   H30   S    
C104  C118  A    
O20   Zn5   S    
C22   C23   A    
C73   C74   A    
O16   Zn2   S    
C71   C98   A    
C130  C136  A    
C94   C107  A    
C62   C66   A    
C129  H23   S    
C120  C129  A    
C68   C84   A    
C6    C97   S    
C53   C80   S    
O7    Zn3   S    
C94   H49   S    
C85   C110  A    
C61   O5    A    
C39   C40   A    
C55   C78   S    
C19   C99   S    
C59   O24   A    
C8    C9    A    
C74   C100  A    
C113  C126  A    
C115  C133  A    
O14   Zn4   S    
C127  H34   S    
C85   H39   S    
C36   H29   S    
C64   C117  A    
O11   Zn6   S    
O12   Zn2   S    
C86   C115  A    
C52   O12   A    
C89   H43   S    
C75   C84   A    
C122  C126  A    
C2    C89   A    
C5    C133  A    
C103  C136  A    
C121  C125  A    
C29   C30   A    
C131  C137  A    
C110  C123  A    
O21   Zn6   S    
C14   C15   A    
C63   C70   S    
C55   O11   A    
C78   C117  A    
C78   C97   A    
C53   O14   A    
C21   H17   S    
C62   C72   A    
C77   C98   A    
C8    H6    S    
C118  C124  A    
C48   C68   A    
C85   C117  A    
C59   C74   S    
C90   C104  A    
C56   O21   A    
C39   C44   A    
C18   H15   S    
C10   H8    S    
C58   O23   A    
C49   C138  A    
C111  C131  A    
C40   C41   A    
C116  H53   S    
C12   C14   A    
C45   C131  A    
C35   C130  A    
C62   C94   A    
C43   C44   A    
C45   C65   A    
C52   O17   A    
O8    Zn4   S    
C83   C111  A    
C17   H14   S    
C42   C43   A    
C12   C18   A    
C1    C64   A    
C107  C120  A    
C6    C11   A    
C121  H2    S    
C38   H31   S    
C115  C129  A    
C54   C79   S    
C13   C67   A    
C4    C105  A    
C31   H26   S    
C28   C29   A    
C45   C136  A    
O18   Zn3   S    
C111  C124  A    
C92   H47   S    
C114  C132  A    
C29   H24   S    
C33   H27   S    
C120  H3    S    
O24   Zn4   S    
C91   C103  A    
C69   C95   A    
C42   H35   S    
C134  C138  A    
C63   O6    A    
C122  H54   S    
O2    Zn3   S    
C81   C100  A    
C5    C46   A    
O15   Zn3   S    
C1    C70   A    
C73   C96   A    
C83   C106  A    
C80   C101  A    
O17   Zn1   S    
C32   C33   A    
C103  C116  A    
C76   C95   A    
C34   H28   S    
C35   C137  A    
C108  C138  A    
C114  C127  A    
C118  H52   S    
C11   H9    S    
C16   C17   A    
C3    C109  A    
C50   O16   A    
C23   H19   S    
O13   Zn5   S    
C50   O1    A    
C34   C36   A    
C33   C34   A    
C110  C130  A    
C16   H13   S    
C3    C135  A    
C23   C25   A    
C54   O19   A    
C52   C81   S    
C92   C109  A    
C24   C87   A    
C2    C80   A    
C10   C11   A    
C60   O8    A    
C19   C25   A    
C87   H41   S    
C5    C107  A    
C57   O22   A    
C58   O10   A    
C88   C128  A    
C54   O15   A    
C113  C135  A    
C57   O9    A    
C25   H20   S    
C75   C101  A    
C119  H4    S    
C63   O4    A    
C105  C119  A    
C125  H51   S    
C84   C92   A    
C65   C106  A    
C112  C125  A    
C91   H46   S    
C112  C134  A    
C96   H50   S    
C4    C47   A    
O3    Zn2   S    
C26   C100  S    
C7    H5    S    
C72   C99   A    
C119  C127  A    
