data_str_m9_o11_o18_f0_sra.sym.125
_audit_creation_date              2012-12-11T14:21:03-0500
_audit_creation_method            fapswitch 2.2
_symmetry_space_group_name_H-M    P1
_symmetry_Int_Tables_number       1
_space_group_crystal_system       triclinic
_cell_length_a                    21.957784
_cell_length_b                    7.206236
_cell_length_c                    14.924854
_cell_angle_alpha                 89.999089
_cell_angle_beta                  107.523444
_cell_angle_gamma                 89.99967
_cell_volume                      2252.01102877

loop_
_atom_site_label
_atom_site_type_symbol
_atom_type_description
_atom_site_fract_x
_atom_site_fract_y
_atom_site_fract_z
_atom_type_partial_charge
O1    O     O_R   0.584770 0.505770 0.002090 -0.539711
O2    O     O_R   0.415230 0.005770 0.997910 -0.539708
O3    O     O_R   0.467060 0.173340 0.861950 -0.536594
O4    O     O_R   0.532940 0.673340 0.138050 -0.536598
C1    C     C_R   0.455076 0.344019 0.825699 0.715068
C2    C     C_R   0.544925 0.844014 0.174301 0.715060
O5    O     O_R   0.587510 0.175890 0.993210 -0.542199
O6    O     O_R   0.412490 0.675890 0.006790 -0.542197
O7    O     O_R   0.536540 0.008150 0.130100 -0.533794
O8    O     O_R   0.463460 0.508150 0.869900 -0.533799
C3    C     C_R   0.612951 0.344972 0.997341 0.728167
C4    C     C_R   0.387049 0.844972 0.002658 0.728177
O9    O     O_3   0.483140 0.340040 0.044760 -0.377091
O10   O     O_3   0.516860 0.840040 0.955240 -0.377095
V1    V     V_3+5 0.503130 0.064190 0.991700 1.473243
V2    V     V_3+5 0.496870 0.564190 0.008300 1.473240
C5    C     C_2   0.214184 0.727706 0.004303 -0.075919
C6    C     C_2   0.785816 0.227707 0.995696 -0.075790
C7    C     C_2   0.180442 0.886812 0.996971 -0.220032
C8    C     C_2   0.819558 0.386813 0.003029 -0.219924
H1    H     H_    0.191112 0.596866 0.010064 0.154168
H2    H     H_    0.808889 0.096867 0.989934 0.154148
H3    H     H_    0.202001 0.019129 0.990261 0.153804
H4    H     H_    0.797998 0.519130 0.009740 0.153770
C9    C     C_2   0.282062 0.714725 0.004098 -0.090435
C10   C     C_2   0.717939 0.214725 0.995903 -0.090469
C11   C     C_2   0.320016 0.861556 0.003876 -0.263307
C12   C     C_2   0.679984 0.361555 0.996123 -0.263317
H5    H     H_    0.301270 0.575712 0.004649 0.146671
H6    H     H_    0.698732 0.075712 0.995355 0.146661
H7    H     H_    0.302082 0.001418 0.004254 0.147794
H8    H     H_    0.697916 0.501417 0.995743 0.147784
C13   C     C_R   0.927193 0.884079 0.723558 -0.078989
C14   C     C_R   0.072804 0.384076 0.276441 -0.078966
C15   C     C_R   0.574093 0.846939 0.276324 -0.137123
C16   C     C_R   0.425909 0.346970 0.723678 -0.137160
C17   C     C_R   0.940941 0.872756 0.569483 -0.008076
C18   C     C_R   0.059059 0.372687 0.430515 -0.008075
C19   C     C_R   0.966901 0.886994 0.666537 -0.144689
C20   C     C_R   0.033097 0.386921 0.333463 -0.144743
C21   C     C_R   0.861467 0.862050 0.683670 -0.059028
C22   C     C_R   0.138532 0.362123 0.316325 -0.058940
C23   C     C_R   0.834563 0.828097 0.586700 0.070643
C24   C     C_R   0.165441 0.328167 0.413294 0.070561
C25   C     C_R   0.874591 0.847418 0.527873 -0.034721
C26   C     C_R   0.125413 0.347423 0.472122 -0.034743
C27   C     C_R   0.768158 0.789385 0.546364 -0.060286
C28   C     C_R   0.231850 0.289513 0.453626 -0.060326
C29   C     C_R   0.739973 0.819989 0.448137 -0.017891
C30   C     C_R   0.260033 0.320081 0.551856 -0.017910
C31   C     C_R   0.780764 0.840485 0.391484 -0.217482
C32   C     C_R   0.219242 0.340553 0.608509 -0.217484
C33   C     C_R   0.847115 0.845220 0.429458 0.458859
C34   C     C_R   0.152892 0.345245 0.570534 0.458924
C35   C     C_R   0.728714 0.718022 0.598922 0.416918
C36   C     C_R   0.271302 0.218253 0.401060 0.416922
C37   C     C_R   0.662432 0.726767 0.560980 -0.139836
C38   C     C_R   0.337582 0.227065 0.438999 -0.139839
C39   C     C_R   0.633606 0.779537 0.467860 -0.091017
C40   C     C_R   0.366402 0.279760 0.532129 -0.091020
C41   C     C_R   0.671960 0.821066 0.409074 0.047019
C42   C     C_R   0.328046 0.321168 0.590921 0.047004
C43   C     C_R   0.566509 0.777010 0.430891 0.718208
C44   C     C_R   0.433499 0.277268 0.569101 0.718296
C45   C     C_R   0.537230 0.807333 0.335415 -0.198227
C46   C     C_R   0.462776 0.307500 0.664583 -0.198231
C47   C     C_R   0.640488 0.859705 0.313086 -0.185363
C48   C     C_R   0.359515 0.359702 0.686916 -0.185380
H9    H     H_    0.665894 0.894409 0.263877 0.118695
H10   H     H_    0.334109 0.394294 0.736131 0.118694
H11   H     H_    0.485819 0.794775 0.306973 0.158935
H12   H     H_    0.514188 0.294984 0.693025 0.158922
H13   H     H_    0.633016 0.679094 0.603110 0.224748
H14   H     H_    0.367002 0.179485 0.396860 0.224751
H15   H     H_    0.973593 0.883291 0.528210 0.222208
H16   H     H_    0.026406 0.383163 0.471789 0.222236
H17   H     H_    0.018036 0.902198 0.697308 0.181660
H18   H     H_    0.981961 0.402082 0.302696 0.181658
H19   H     H_    0.831725 0.875646 0.729021 0.163332
H20   H     H_    0.168269 0.375778 0.270971 0.163306
H21   H     H_    0.762230 0.846063 0.316258 0.171224
H22   H     H_    0.237775 0.346176 0.683733 0.171237
O11   O     O_R   0.036450 0.233070 0.130130 -0.532365
O12   O     O_R   0.963550 0.733070 0.869870 -0.532503
O13   O     O_R   0.912470 0.560570 0.006790 -0.530849
O14   O     O_R   0.087530 0.060570 0.993210 -0.530797
C49   C     C_R   0.886939 0.391924 0.002328 0.723897
C50   C     C_R   0.113061 0.891923 0.997672 0.724051
O15   O     O_R   0.032920 0.562940 0.138050 -0.536349
O16   O     O_R   0.967080 0.062940 0.861950 -0.536308
O17   O     O_R   0.084790 0.730500 0.002090 -0.546062
O18   O     O_R   0.915210 0.230500 0.997910 -0.546042
C51   C     C_R   0.045531 0.394427 0.174519 0.701348
C52   C     C_R   0.954466 0.894430 0.825481 0.701269
O19   O     O_3   0.016820 0.396170 0.955260 -0.376729
O20   O     O_3   0.983180 0.896170 0.044740 -0.376680
V3    V     V_3+5 0.996880 0.672090 0.008300 1.526287
V4    V     V_3+5 0.003120 0.172090 0.991700 1.526494
S1    S     S_3+6 0.757196 0.571889 0.699310 -0.023034
O21   O     O_2   0.760202 0.680103 0.786670 -0.364567
O22   O     O_2   0.711493 0.413005 0.691491 -0.312207
O23   O     O_3   0.829647 0.484173 0.707124 -0.504804
H23   H     H_    0.843605 0.420547 0.768792 0.353091
S2    S     S_3+6 0.242845 0.072137 0.300665 -0.023117
O24   O     O_2   0.239817 0.180381 0.213306 -0.364425
O25   O     O_2   0.288577 0.913329 0.308486 -0.312406
O26   O     O_3   0.170410 0.984311 0.292845 -0.504855
H24   H     H_    0.156636 0.919750 0.231419 0.353158
F1    F     F_    0.529256 0.736141 0.486260 -0.640393
F2    F     F_    0.470755 0.236532 0.513726 -0.640397
S3    S     S_3+6 0.893857 0.856794 0.351011 -0.017895
O27   O     O_2   0.941409 0.700745 0.372755 -0.355202
O28   O     O_2   0.852884 0.841131 0.250460 -0.339154
O29   O     O_3   0.933091 0.060133 0.366001 -0.508172
H25   H     H_    0.965099 0.045511 0.331833 0.363509
S4    S     S_3+6 0.106154 0.356798 0.648975 -0.017930
O30   O     O_2   0.058619 0.200709 0.627245 -0.355233
O31   O     O_2   0.147133 0.341192 0.749520 -0.339184
O32   O     O_3   0.066890 0.560082 0.633956 -0.508159
H26   H     H_    0.034909 0.545492 0.668170 0.363523

loop_
_geom_bond_atom_site_label_1
_geom_bond_atom_site_label_2
_ccdc_geom_bond_type
C43   C45   A    
C22   H20   S    
S3    O27   D    
C14   C22   A    
C14   C51   S    
O2    C4    A    
C13   C52   S    
C2    O7    A    
S2    O25   D    
O29   H25   S    
O19   V4    S    
O18   V4    S    
C27   C29   A    
C18   H16   S    
C2    C15   S    
O5    C3    A    
C13   C19   A    
C14   C20   A    
O12   V3    S    
C19   H17   S    
O14   C50   A    
C37   C39   A    
C15   C45   A    
C38   C40   A    
O11   C51   A    
C1    C16   S    
S4    O30   D    
C40   C42   A    
C37   H13   S    
C6    C10   S    
C46   H12   S    
C8    H4    S    
C24   C26   A    
C29   C31   A    
O11   V4    S    
C34   S4    S    
C30   C32   A    
O26   H24   S    
C31   H21   S    
C33   S3    S    
C28   C30   A    
C17   H15   S    
C25   C33   A    
O6    V2    S    
C49   O18   A    
C21   C23   A    
C22   C24   A    
S2    O24   D    
C32   C34   A    
O16   C52   A    
O13   C49   A    
C9    H5    S    
C39   C41   A    
C29   C41   A    
C4    C11   S    
C11   H7    S    
C12   H8    S    
C36   S2    S    
O4    C2    A    
C7    C50   S    
C45   H11   S    
C5    H1    S    
O15   V3    S    
C47   H9    S    
C44   C46   A    
O4    V2    S    
C7    H3    S    
C41   C47   A    
C16   C46   A    
C44   F2    S    
S1    O21   D    
C50   O17   A    
C15   C47   A    
O6    C4    A    
O20   V3    S    
C26   C34   A    
S3    O28   D    
O1    V2    S    
O12   C52   A    
O17   V3    S    
C32   H22   S    
O2    V1    S    
C23   C25   A    
S4    O31   D    
S1    O22   D    
C10   H6    S    
C35   C37   A    
C30   C42   A    
C20   H18   S    
C17   C25   A    
O3    V1    S    
C38   H14   S    
C27   C35   A    
C28   C36   A    
C6    H2    S    
C10   C12   D    
O3    C1    A    
C21   H19   S    
O32   H26   S    
C16   C48   A    
C9    C11   D    
C39   C43   A    
S4    O32   S    
C42   C48   A    
C40   C44   A    
C13   C21   A    
O7    V1    S    
C5    C9    S    
C1    O8    A    
C17   C19   A    
O8    V2    S    
C18   C20   A    
C8    C49   S    
C3    C12   S    
O5    V1    S    
C5    C7    D    
C36   C38   A    
S3    O29   S    
C6    C8    D    
O15   C51   A    
O23   H23   S    
O14   V4    S    
C18   C26   A    
O13   V3    S    
S1    O23   S    
C48   H10   S    
O9    V2    S    
C35   S1    S    
O10   V1    S    
O1    C3    A    
C31   C33   A    
C23   C27   A    
O16   V4    S    
S2    O26   S    
C24   C28   A    
C43   F1    S    
