data_str_m12_o9_o12_f0_bcu.sym.25
_audit_creation_date              2012-12-11T17:41:35-0500
_audit_creation_method            fapswitch 2.2
_symmetry_space_group_name_H-M    P1
_symmetry_Int_Tables_number       1
_space_group_crystal_system       triclinic
_cell_length_a                    15.591041
_cell_length_b                    15.106215
_cell_length_c                    15.05412
_cell_angle_alpha                 109.555303
_cell_angle_beta                  121.626392
_cell_angle_gamma                 58.726759
_cell_volume                      2570.8117449

loop_
_atom_site_label
_atom_site_type_symbol
_atom_type_description
_atom_site_fract_x
_atom_site_fract_y
_atom_site_fract_z
_atom_type_partial_charge
C1    C     C_R   0.803901 0.937625 0.773369 -0.133692
C2    C     C_R   0.209904 0.410348 0.117833 -0.236146
C3    C     C_R   0.711983 0.818822 0.955756 -0.205728
C4    C     C_R   0.308573 0.333273 0.111325 -0.253916
C5    C     C_R   0.711070 0.914184 0.012436 0.122865
C6    C     C_R   0.311159 0.239997 0.049314 0.153877
C7    C     C_R   0.811857 0.923627 0.074467 -0.246644
C8    C     C_R   0.212539 0.226316 0.989760 -0.230210
C9    C     C_R   0.911517 0.840654 0.076561 -0.258944
C10   C     C_R   0.114020 0.303022 0.996761 -0.322563
C11   C     C_R   0.912418 0.747900 0.014449 0.651364
C12   C     C_R   0.248180 0.004719 0.209050 -0.121541
C13   C     C_R   0.112552 0.395055 0.062196 0.636394
C14   C     C_R   0.602934 0.021145 0.109257 -0.244167
C15   C     C_R   0.421857 0.144841 0.949010 -0.254395
C16   C     C_R   0.200560 0.274484 0.439975 -0.101405
C17   C     C_R   0.745857 0.711117 0.500855 -0.126505
C18   C     C_R   0.505706 0.092580 0.120917 0.051387
C19   C     C_R   0.513155 0.061849 0.932878 0.062591
C20   C     C_R   0.415109 0.159161 0.041597 0.020200
C21   C     C_R   0.607516 0.002248 0.016340 0.034960
C22   C     C_2   0.019291 0.347577 0.449770 -0.261122
C23   C     C_R   0.137516 0.276841 0.479999 0.159184
C24   C     C_2   0.821359 0.608625 0.364103 -0.275637
C25   C     C_2   0.977816 0.444591 0.426440 0.060720
C26   C     C_2   0.856852 0.514562 0.389879 0.045747
C27   C     C_2   0.983431 0.955252 0.844627 -0.226758
C28   C     C_2   0.164542 0.875023 0.100747 -0.219764
C29   C     C_R   0.340220 0.837217 0.777251 -0.121704
C30   C     C_R   0.636898 0.256788 0.291368 -0.101908
C31   C     C_R   0.407552 0.753050 0.732749 -0.182108
C32   C     C_R   0.582214 0.322059 0.354408 -0.234624
C33   C     C_R   0.362057 0.693511 0.643134 -0.047283
C34   C     C_R   0.766829 0.703259 0.418788 0.159621
C35   C     C_R   0.642908 0.343755 0.461136 -0.024654
C36   C     C_R   0.246492 0.720942 0.597458 0.540527
C37   C     C_R   0.760329 0.299293 0.505506 0.555758
C38   C     C_R   0.179989 0.805410 0.643392 -0.238427
C39   C     C_R   0.814841 0.228648 0.442058 -0.338370
C40   C     C_R   0.594823 0.229299 0.543255 -0.130052
C41   C     C_R   0.409265 0.783661 0.514258 -0.126729
C42   C     C_R   0.226557 0.863582 0.732520 -0.169428
C43   C     C_R   0.753070 0.209257 0.335330 -0.133354
C44   C     C_R   0.436818 0.505452 0.582888 -0.174350
C45   C     C_R   0.502426 0.322891 0.522015 0.073356
C46   C     C_R   0.584818 0.519451 0.543195 -0.185935
C47   C     C_R   0.506606 0.419482 0.541772 0.012069
C48   C     C_R   0.510768 0.607298 0.577998 0.017726
C49   C     C_R   0.581351 0.425917 0.521374 0.105788
C50   C     C_R   0.436725 0.601724 0.600189 0.046761
C51   C     C_2   0.045055 0.885988 0.915710 -0.106724
C52   C     C_2   0.141658 0.895316 0.008830 -0.103293
C53   C     C_R   0.409695 0.042946 0.733410 0.063140
C54   C     C_R   0.591469 0.023680 0.291829 0.015827
C55   C     C_R   0.407536 0.305933 0.464209 -0.137199
C56   C     C_R   0.503200 0.703047 0.571116 0.071827
C57   C     C_R   0.593650 0.713994 0.592392 -0.160612
C58   C     C_R   0.594295 0.981375 0.804511 -0.149022
C59   C     C_R   0.407718 0.089807 0.211110 -0.179992
C60   C     C_R   0.196210 0.185717 0.528217 -0.151318
C61   C     C_R   0.742775 0.801808 0.407200 -0.157214
C62   C     C_R   0.803275 0.029934 0.684497 -0.152675
C63   C     C_R   0.247871 0.912577 0.299012 -0.153919
C64   C     C_R   0.866812 0.976394 0.772747 0.158971
C65   C     C_R   0.220142 0.927162 0.199111 0.147572
C66   C     C_3   0.005092 0.623535 0.916893 0.245620
C67   C     C_R   0.504664 0.034742 0.827899 0.015967
C68   C     C_3   0.118298 0.576347 0.917050 -0.885424
C69   C     C_3   0.981128 0.447507 0.117480 0.246877
C70   C     C_3   0.873070 0.536261 0.119073 -0.874838
C71   C     C_3   0.167718 0.697199 0.419642 0.224769
C72   C     C_3   0.102323 0.641827 0.326067 -0.864331
C73   C     C_3   0.905784 0.342851 0.630656 0.258233
C74   C     C_3   0.929037 0.414732 0.730004 -0.908024
C75   C     C_R   0.499691 0.077179 0.207206 0.072961
C76   C     C_R   0.811808 0.736295 0.955906 -0.290062
H1    H     H_    0.832985 0.880509 0.822531 0.083219
H2    H     H_    0.212490 0.155757 0.939098 0.134830
H3    H     H_    0.988367 0.849046 0.126351 0.131918
H4    H     H_    0.038657 0.291386 0.950430 0.140643
H5    H     H_    0.673231 0.968329 0.168083 0.151333
H6    H     H_    0.352605 0.194928 0.887085 0.150923
H7    H     H_    0.864486 0.618881 0.333230 0.129495
H8    H     H_    0.966279 0.318018 0.444227 0.117388
H9    H     H_    0.174654 0.928635 0.767460 0.126830
H10   H     H_    0.795306 0.156912 0.286724 0.128284
H11   H     H_    0.171551 0.320195 0.379762 0.087498
H12   H     H_    0.237171 0.036669 0.147675 0.090552
H13   H     H_    0.758048 0.649146 0.532765 0.106884
H14   H     H_    0.376552 0.881480 0.847117 0.119801
H15   H     H_    0.589366 0.242717 0.208468 0.131407
H16   H     H_    0.495826 0.733001 0.769418 0.130838
H17   H     H_    0.492281 0.358898 0.320368 0.137909
H18   H     H_    0.091983 0.825637 0.609925 0.139858
H19   H     H_    0.904849 0.189514 0.474609 0.118058
H20   H     H_    0.382637 0.497114 0.600893 0.161564
H21   H     H_    0.638135 0.525457 0.521864 0.126426
H22   H     H_    0.681594 0.214793 0.583900 0.121354
H23   H     H_    0.129148 0.830628 0.103013 0.146406
H24   H     H_    0.323592 0.803242 0.491598 0.070476
H25   H     H_    0.321747 0.362575 0.430577 0.108571
H26   H     H_    0.679961 0.669284 0.642862 0.093278
H27   H     H_    0.679850 0.966179 0.856143 0.131790
H28   H     H_    0.321398 0.136016 0.164030 0.119899
H29   H     H_    0.160447 0.154754 0.548316 0.094826
H30   H     H_    0.748727 0.821877 0.348870 0.107050
H31   H     H_    0.833504 0.056314 0.652671 0.098651
H32   H     H_    0.237136 0.857838 0.319112 0.097029
H33   H     H_    0.177805 0.938320 0.005287 0.125877
H34   H     H_    0.015241 0.005317 0.846259 0.128618
H35   H     H_    0.014193 0.835958 0.915488 0.137595
H36   H     H_    0.944908 0.681070 0.856646 0.058265
H37   H     H_    0.978942 0.560661 0.895107 0.147807
H38   H     H_    0.180302 0.515445 0.972904 0.267256
H39   H     H_    0.111894 0.540729 0.837489 0.212080
H40   H     H_    0.147209 0.637606 0.940203 0.254587
H41   H     H_    0.045711 0.433263 0.199856 0.075547
H42   H     H_    0.965581 0.377008 0.077915 0.089124
H43   H     H_    0.807305 0.552448 0.037733 0.258676
H44   H     H_    0.845070 0.514696 0.159712 0.210129
H45   H     H_    0.810570 0.663635 0.911337 0.140979
H46   H     H_    0.885840 0.607577 0.160685 0.254021
H47   H     H_    0.781647 0.422028 0.348792 0.108787
H48   H     H_    0.702785 0.545922 0.369247 0.119674
H49   H     H_    0.039844 0.502852 0.380715 0.100338
H50   H     H_    0.040208 0.553155 0.500611 0.142020
H51   H     H_    0.242835 0.678822 0.412349 0.099885
H52   H     H_    0.113754 0.782530 0.417063 0.082499
H53   H     H_    0.025305 0.660490 0.329794 0.240178
H54   H     H_    0.078810 0.667497 0.252243 0.238908
H55   H     H_    0.153838 0.556405 0.326126 0.244704
H56   H     H_    0.208569 0.482800 0.164803 0.163607
H57   H     H_    0.884596 0.382268 0.566566 0.091469
H58   H     H_    0.982652 0.268953 0.641698 0.102421
H59   H     H_    0.946967 0.380727 0.795917 0.272457
H60   H     H_    0.002128 0.425862 0.749104 0.213065
H61   H     H_    0.855427 0.491376 0.718782 0.235994
H62   H     H_    0.311319 0.044229 0.783502 0.099657
H63   H     H_    0.270113 0.020728 0.655781 0.099616
H64   H     H_    0.681558 0.102969 0.395522 0.136211
H65   H     H_    0.756382 0.974549 0.390978 0.089857
H66   H     H_    0.635463 0.809034 0.910908 0.135678
H67   H     H_    0.381778 0.347627 0.151229 0.135630
H68   H     H_    0.813180 0.995329 0.121955 0.141301
N1    N     N_R   0.705410 0.966550 0.689210 -0.043082
N2    N     N_R   0.556610 0.796750 0.548620 -0.037499
N3    N     N_R   0.556610 0.951620 0.703500 -0.047887
N4    N     N_R   0.443390 0.048380 0.296500 -0.043728
N5    N     N_R   0.294590 0.131500 0.522480 -0.041625
N6    N     N_R   0.705410 0.868500 0.477520 -0.044733
N7    N     N_R   0.705410 0.023370 0.632390 -0.041027
N8    N     N_R   0.294590 0.976630 0.367610 -0.043437
N9    N     N_3   0.784847 0.488730 0.399019 -0.224576
N10   N     N_3   0.053871 0.485451 0.450052 -0.201713
N11   N     N_3   0.301664 0.068121 0.720044 -0.226435
N12   N     N_R   0.294590 0.033450 0.310790 -0.046219
N13   N     N_3   0.692943 0.035863 0.344255 -0.221264
N14   N     N_R   0.294590 0.188320 0.465660 -0.048543
N15   N     N_R   0.705410 0.811680 0.534340 -0.045782
N16   N     N_R   0.556610 0.157790 0.497330 -0.047193
N17   N     N_R   0.443390 0.842210 0.502670 -0.038007
N18   N     N_R   0.443390 0.997080 0.657540 -0.051880
N19   N     N_R   0.556610 0.002920 0.342460 -0.051080
N20   N     N_R   0.443390 0.203250 0.451380 -0.038577
Ni1   Ni    Ni4+2 0.629830 0.882720 0.617850 0.205445
Ni2   Ni    Ni4+2 0.370170 0.117280 0.382150 0.204899
Ni3   Ni    Ni4+2 0.629830 0.013030 0.487540 0.203054
Ni4   Ni    Ni4+2 0.370170 0.986970 0.512460 0.206541
O1    O     O_3   0.014173 0.669135 0.018328 -0.635885
O2    O     O_3   0.014169 0.475270 0.063578 -0.628084
O3    O     O_3   0.198846 0.661889 0.512470 -0.646622
O4    O     O_3   0.818297 0.322642 0.611570 -0.644511

loop_
_geom_bond_atom_site_label_1
_geom_bond_atom_site_label_2
_ccdc_geom_bond_type
H62   N11   S    
C66   C68   S    
C63   C65   A    
C18   C75   S    
C66   H37   S    
C41   N17   A    
C29   C42   A    
C1    H1    S    
C73   C74   S    
C14   C18   A    
C66   O1    S    
C1    N1    A    
C4    H67   S    
C72   H53   S    
C47   C49   A    
N1    Ni1   S    
C15   C19   A    
C57   H26   S    
C3    H66   S    
C46   C49   A    
C76   H45   S    
N16   N20   A    
C14   C21   A    
C19   C21   A    
C24   H7    S    
C24   C26   D    
C55   N20   A    
C38   C42   A    
C11   C76   A    
C40   H22   S    
C53   N18   A    
N6    Ni3   S    
C69   H42   S    
C33   C36   A    
N4    Ni2   S    
C56   C57   A    
C48   C56   S    
C9    H3    S    
N16   Ni3   S    
C69   H41   S    
C2    C13   A    
C7    H68   S    
C62   C64   A    
N3    Ni1   S    
C11   O1    S    
N8    N12   A    
C27   H34   S    
C70   H44   S    
C22   C25   D    
C74   H60   S    
C35   C49   S    
C16   H11   S    
C2    H56   S    
C31   C33   A    
C19   C67   S    
H63   N11   S    
C54   N19   A    
C61   N6    A    
C44   C47   A    
C69   O2    S    
C59   N4    A    
C48   C50   A    
C32   H17   S    
H48   N9    S    
C8    H2    S    
N4    N19   A    
C71   H51   S    
C23   C60   A    
N5    Ni4   S    
C12   N12   A    
C17   N15   A    
C29   H14   S    
N8    Ni4   S    
C27   C51   D    
C15   H6    S    
C45   C47   S    
C40   C45   A    
C74   H61   S    
C46   C48   A    
N6    N15   A    
C12   H12   S    
C16   N14   A    
C51   C52   S    
C32   C35   A    
C17   H13   S    
C4    C6    A    
C62   N7    A    
C5    C7    A    
C10   H4    S    
C58   N3    A    
C6    C8    A    
C62   H31   S    
C25   C26   S    
C10   C13   A    
C34   C61   A    
C24   C34   S    
N15   Ni1   S    
C15   C20   A    
C22   H8    S    
N5    N14   A    
N19   Ni3   S    
C41   C56   A    
C44   H20   S    
H64   N13   S    
C70   H46   S    
N12   Ni2   S    
C70   H43   S    
C74   H59   S    
C38   H18   S    
C41   H24   S    
C42   H9    S    
C73   O4    S    
C61   H30   S    
C9    C11   A    
C39   H19   S    
N1    N7    A    
C68   H40   S    
N18   Ni4   S    
N2    N17   A    
H50   N10   S    
C28   H23   S    
H65   N13   S    
C13   O2    S    
C46   H21   S    
C73   H57   S    
C53   N11   S    
C16   C23   A    
C37   O4    S    
C71   O3    S    
C30   C43   A    
C17   C34   A    
C59   H28   S    
C1    C64   A    
C59   C75   A    
H49   N10   S    
N14   Ni2   S    
C72   H55   S    
H47   N9    S    
C44   C50   A    
C7    C9    A    
C36   O3    S    
C51   H35   S    
C35   C37   A    
C25   N10   S    
C43   H10   S    
N2    Ni1   S    
C8    C10   A    
C71   H52   S    
C30   H15   S    
C3    C5    A    
N3    N18   A    
C39   C43   A    
C72   H54   S    
C6    C20   S    
C12   C65   A    
C55   H25   S    
C36   C38   A    
C28   C65   S    
C33   C50   S    
C71   C72   S    
C29   C31   A    
C54   N13   S    
C30   C32   A    
C28   C52   D    
C52   H33   S    
N7    Ni3   S    
C2    C4    A    
N20   Ni2   S    
C18   C20   A    
C60   N5    A    
C40   N16   A    
C69   C70   S    
C53   C67   A    
C63   N8    A    
N17   Ni4   S    
C27   C64   S    
C68   H39   S    
C54   C75   A    
C58   C67   A    
C5    C21   S    
C73   H58   S    
C45   C55   A    
C37   C39   A    
C31   H16   S    
C3    C76   A    
C22   C23   S    
C26   N9    S    
C58   H27   S    
C14   H5    S    
C66   H36   S    
C63   H32   S    
C57   N2    A    
C60   H29   S    
C68   H38   S    
