data_str_m2_o1_o7_f0_pcu.sym.60
_audit_creation_date              2012-10-26T18:34:48-0400
_audit_creation_method            fapswitch 2.2
_symmetry_space_group_name_H-M    P1
_symmetry_Int_Tables_number       1
_space_group_crystal_system       triclinic
_cell_length_a                    10.889343
_cell_length_b                    9.680149
_cell_length_c                    17.89601
_cell_angle_alpha                 89.429305
_cell_angle_beta                  86.545722
_cell_angle_gamma                 89.443776
_cell_volume                      1882.82763649

loop_
_atom_site_label
_atom_site_type_symbol
_atom_type_description
_atom_site_fract_x
_atom_site_fract_y
_atom_site_fract_z
_atom_type_partial_charge
C1    C     C_R   0.260933 0.501332 0.504756 0.576197
C2    C     C_R   0.488330 0.497875 0.645156 0.584331
C3    C     C_R   0.874381 0.495206 0.476453 -0.020664
C4    C     C_R   0.123561 0.505014 0.507526 -0.052502
C5    C     C_R   0.564960 0.572380 0.843043 0.205091
C6    C     C_R   0.573092 0.374781 0.154190 0.182603
C7    C     C_R   0.454222 0.590503 0.152044 0.199715
C8    C     C_R   0.436242 0.367414 0.853503 0.166027
C9    C     C_R   0.524305 0.598667 0.771546 0.147246
C10   C     C_R   0.584696 0.392037 0.232035 0.130767
C11   C     C_R   0.480015 0.615081 0.226923 0.144883
C12   C     C_R   0.738061 0.498877 0.490977 0.598019
C13   C     C_R   0.428357 0.370275 0.773450 0.133848
C14   C     C_R   0.475771 0.489355 0.730477 -0.063162
C15   C     C_R   0.523692 0.503618 0.270629 -0.057212
C16   C     C_R   0.425062 0.076113 0.455512 0.161896
C17   C     C_R   0.579897 0.925202 0.541963 0.136259
C18   C     C_R   0.573701 0.073179 0.545341 0.132763
C19   C     C_R   0.418974 0.928335 0.459264 0.146057
C20   C     C_R   0.509206 0.467151 0.886383 -0.055400
C21   C     C_R   0.509175 0.476578 0.114755 -0.053923
C22   C     C_2   0.349891 0.151319 0.401989 0.375271
C23   C     C_1   0.515077 0.471517 0.966714 0.212051
C24   C     C_2   0.677762 0.853451 0.582662 0.378616
C25   C     C_2   0.648612 0.145844 0.598588 0.371190
C26   C     C_2   0.319695 0.859753 0.420984 0.378120
C27   C     C_1   0.513082 0.473970 0.034037 0.209131
C28   C     C_R   0.057970 0.381082 0.513854 0.170856
C29   C     C_R   0.939469 0.619405 0.467756 0.196526
C30   C     C_R   0.942177 0.372293 0.486527 0.140148
C31   C     C_R   0.056883 0.628607 0.495887 0.184368
C32   C     C_R   0.506306 0.501432 0.355138 0.588987
Cu1   Cu    Cu3+1 0.500000 0.640660 0.500000 1.116162
Cu2   Cu    Cu3+1 0.500000 0.359340 0.500000 1.129185
H1    H     H_    0.829329 0.803619 0.833688 0.398095
H2    H     H_    0.664110 0.755922 0.610327 0.184457
H3    H     H_    0.729312 0.202635 0.579436 0.159935
H4    H     H_    0.333699 0.763867 0.392116 0.168107
H5    H     H_    0.180314 0.073183 0.598545 0.402323
H6    H     H_    0.846222 0.718866 0.283625 0.390702
H7    H     H_    0.792401 0.080593 0.463914 0.372544
H8    H     H_    0.195099 0.842758 0.636429 0.392046
H9    H     H_    0.754043 0.052821 0.113038 0.394137
H10   H     H_    0.206077 0.846537 0.136094 0.394375
H11   H     H_    0.252222 0.056113 0.922118 0.395386
H12   H     H_    0.336039 0.767772 0.847605 0.354963
H13   H     H_    0.592729 0.124993 0.277564 0.399470
H14   H     H_    0.662359 0.801567 0.159465 0.343554
H15   H     H_    0.491311 0.102876 0.782206 0.396478
H16   H     H_    0.265357 0.202905 0.420768 0.185122
N1    N     N_R   0.500000 0.852070 0.500000 -0.283456
N2    N     N_R   0.500000 0.147930 0.500000 -0.272549
O1    O     O_R   0.319640 0.618740 0.499990 -0.491680
O2    O     O_2   0.754157 0.595305 0.932509 -0.240048
O3    O     O_3   0.774375 0.738754 0.809651 -0.423316
O4    O     O_2   0.510538 0.147259 0.084011 -0.134075
O5    O     O_2   0.697164 0.262685 0.034361 -0.233132
O6    O     O_3   0.709021 0.108933 0.151939 -0.415550
O7    O     O_2   0.424294 0.808809 0.060187 -0.160261
O8    O     O_2   0.279619 0.618674 0.052268 -0.244623
O9    O     O_3   0.251890 0.779531 0.166307 -0.416744
O10   O     O_2   0.477652 0.139353 0.933647 -0.178359
O11   O     O_2   0.319771 0.296293 0.987279 -0.221646
O12   O     O_R   0.680360 0.381260 0.500010 -0.502271
O13   O     O_3   0.259944 0.133857 0.885763 -0.379709
O14   O     O_2   0.586955 0.860295 0.737886 -0.179150
O15   O     O_2   0.387035 0.787098 0.697570 -0.248944
O16   O     O_3   0.408249 0.828283 0.838066 -0.402815
O17   O     O_2   0.818055 0.300595 0.221267 -0.133425
O18   O     O_2   0.740387 0.391513 0.340469 -0.200056
O19   O     O_3   0.666354 0.148083 0.304488 -0.365992
O20   O     O_2   0.403124 0.872091 0.266178 -0.176742
O21   O     O_2   0.603938 0.801481 0.308825 -0.237404
O22   O     O_3   0.587389 0.858815 0.169542 -0.401553
O23   O     O_R   0.680360 0.618740 0.500010 -0.500889
O24   O     O_2   0.216695 0.238503 0.762599 -0.116862
O25   O     O_2   0.353331 0.217559 0.651951 -0.203013
O26   O     O_3   0.408127 0.080237 0.766896 -0.350042
O27   O     O_2   0.377452 0.147163 0.334994 -0.458534
O28   O     O_2   0.778922 0.904979 0.586351 -0.421477
O29   O     O_2   0.626020 0.133262 0.665760 -0.440539
O30   O     O_2   0.217605 0.912220 0.420861 -0.395266
O31   O     O_2   0.133357 0.354624 0.648497 -0.189235
O32   O     O_2   0.968301 0.200065 0.616640 -0.222576
O33   O     O_3   0.187919 0.145955 0.559430 -0.465560
O34   O     O_R   0.319640 0.381260 0.499990 -0.497712
O35   O     O_2   0.796312 0.833816 0.428086 -0.219997
O36   O     O_2   0.005251 0.823290 0.370402 -0.158421
O37   O     O_3   0.845191 0.651572 0.325710 -0.460725
O38   O     O_2   0.961793 0.275551 0.348035 -0.141492
O39   O     O_2   0.017760 0.117292 0.445337 -0.162109
O40   O     O_3   0.786087 0.164261 0.432381 -0.423840
O41   O     O_2   0.020169 0.894474 0.532104 -0.120551
O42   O     O_2   0.984007 0.720515 0.630012 -0.224680
O43   O     O_3   0.208127 0.784187 0.591601 -0.474009
O44   O     O_R   0.500000 0.618830 0.391250 -0.491508
O45   O     O_R   0.500000 0.381170 0.608750 -0.462499
O46   O     O_R   0.500000 0.618830 0.608750 -0.491536
O47   O     O_R   0.500000 0.381170 0.391250 -0.470962
O48   O     O_2   0.619161 0.797291 0.921507 -0.158989
S1    S     S_3+6 0.679470 0.678288 0.879818 0.117911
S2    S     S_3+6 0.896560 0.738995 0.398070 0.139638
S3    S     S_3+6 0.928219 0.229357 0.426862 0.151038
S4    S     S_3+6 0.066314 0.760699 0.562997 0.112167
S5    S     S_3+6 0.623745 0.221568 0.104818 0.132670
S6    S     S_3+6 0.351855 0.701595 0.104724 0.117014
S7    S     S_3+6 0.372284 0.232961 0.915821 0.125839
S8    S     S_3+6 0.477105 0.771849 0.757193 0.099724
S9    S     S_3+6 0.706791 0.307917 0.275082 0.179068
S10   S     S_3+6 0.517513 0.789320 0.247003 0.086247
S11   S     S_3+6 0.349354 0.228541 0.735031 0.154566
S12   S     S_3+6 0.085673 0.268084 0.587870 0.125498

loop_
_geom_bond_atom_site_label_1
_geom_bond_atom_site_label_2
_ccdc_geom_bond_type
O5    S5    D    
C8    S7    S    
C8    C13   A    
O37   S2    S    
O2    S1    D    
O33   S12   S    
C17   N1    A    
C18   N2    A    
C15   C32   S    
C5    C20   A    
C28   S12   S    
C9    S8    S    
C7    C11   A    
O32   S12   D    
C22   O27   D    
C10   C15   A    
C16   C19   A    
C12   O12   A    
O15   S8    D    
Cu2   O45   S    
H15   O26   S    
C10   S9    S    
C3    C29   A    
Cu1   O46   S    
Cu2   O34   S    
O25   S11   D    
C19   C26   S    
C1    O1    A    
C3    C12   S    
H9    O6    S    
C25   H3    S    
H12   O16   S    
C11   C15   A    
C24   O28   D    
C2    O45   A    
C30   S3    S    
O26   S11   S    
C23   C27   T    
H6    O37   S    
O40   S3    S    
C22   H16   S    
C21   C27   S    
O42   S4    D    
C26   O30   D    
C13   C14   A    
C11   S10   S    
C25   O29   D    
C18   C25   S    
O17   S9    D    
O41   S4    D    
C4    C28   A    
Cu1   O23   S    
C17   C18   A    
O20   S10   D    
Cu1   O1    S    
O38   S3    D    
C5    S1    S    
C17   C24   S    
H1    O3    S    
H8    O43   S    
O7    S6    D    
H14   O22   S    
O21   S10   D    
O14   S8    D    
C26   H4    S    
O10   S7    D    
C7    C21   A    
C6    C21   A    
C3    C30   A    
C9    C14   A    
C5    C9    A    
O18   S9    D    
O35   S2    D    
C20   C23   S    
Cu2   O12   S    
Cu2   O47   S    
C7    S6    S    
C8    C20   A    
O9    S6    S    
H13   O19   S    
C32   O44   A    
H11   O13   S    
H5    O33   S    
O11   S7    D    
Cu1   O44   S    
O8    S6    D    
O43   S4    S    
C1    O34   A    
C16   C22   S    
C16   N2    A    
O39   S3    D    
O22   S10   S    
O36   S2    D    
H10   O9    S    
Cu1   N1    S    
O3    S1    S    
Cu2   N2    S    
C24   H2    S    
C32   O47   A    
O6    S5    S    
C31   S4    S    
C1    C4    S    
C28   C30   A    
C13   S11   S    
O24   S11   D    
O19   S9    S    
O48   S1    D    
C6    S5    S    
Cu1   Cu2   S    
C29   S2    S    
C2    C14   S    
O4    S5    D    
C4    C31   A    
C6    C10   A    
C19   N1    A    
H7    O40   S    
C2    O46   A    
C29   C31   A    
C12   O23   A    
O31   S12   D    
O16   S8    S    
O13   S7    S    
