data_str_m2_o22_o22_f0_pcu.sym.173
_audit_creation_date              2012-12-10T18:09:32-0500
_audit_creation_method            fapswitch 2.2
_symmetry_space_group_name_H-M    P1
_symmetry_Int_Tables_number       1
_space_group_crystal_system       triclinic
_cell_length_a                    15.219249
_cell_length_b                    15.209369
_cell_length_c                    9.45821
_cell_angle_alpha                 90.029125
_cell_angle_beta                  89.935788
_cell_angle_gamma                 89.91978
_cell_volume                      2189.33699957

loop_
_atom_site_label
_atom_site_type_symbol
_atom_type_description
_atom_site_fract_x
_atom_site_fract_y
_atom_site_fract_z
_atom_type_partial_charge
C1    C     C_R   0.121026 0.380866 0.499692 0.882176
C2    C     C_R   0.121112 0.619013 0.500012 0.852516
C3    C     C_R   0.621331 0.881213 0.499779 0.901964
C4    C     C_R   0.621195 0.118914 0.500029 0.893002
C5    C     C_3   0.062088 0.567815 0.083828 -0.439210
C6    C     C_3   0.064992 0.565022 0.916133 -0.443519
C7    C     C_3   0.561762 0.068104 0.083832 -0.439922
C8    C     C_3   0.564700 0.065301 0.916140 -0.447183
C9    C     C_R   0.882845 0.377324 0.500096 0.844521
C10   C     C_R   0.881118 0.620989 0.499923 0.834320
C11   C     C_R   0.382556 0.877604 0.500134 0.838906
C12   C     C_R   0.380490 0.120350 0.499933 0.829487
C13   C     C_3   0.813539 0.257866 0.646386 0.264831
C14   C     C_3   0.834302 0.236955 0.381101 0.254317
C15   C     C_3   0.836476 0.764194 0.610669 0.257887
C16   C     C_3   0.806179 0.733780 0.348971 0.267234
C17   C     C_3   0.314330 0.757103 0.645557 0.265239
C18   C     C_3   0.333207 0.738401 0.379463 0.322604
C19   C     C_3   0.337997 0.265660 0.604808 0.264439
C20   C     C_3   0.301741 0.229023 0.347002 0.271784
C21   C     C_3   0.240910 0.686561 0.645770 0.263043
C22   C     C_3   0.259767 0.667709 0.378393 0.320724
C23   C     C_3   0.267704 0.339875 0.600012 0.306457
C24   C     C_3   0.228080 0.298964 0.345514 0.263301
C25   C     C_3   0.739964 0.187518 0.646756 0.259359
C26   C     C_3   0.760608 0.166218 0.380355 0.319910
C27   C     C_3   0.765190 0.837533 0.608248 0.313152
C28   C     C_3   0.733332 0.804771 0.348099 0.265007
C29   C     C_3   0.724962 0.348180 0.472834 -0.583282
C30   C     C_3   0.723711 0.651685 0.539154 -0.599211
C31   C     C_3   0.224346 0.848642 0.475687 -0.588417
C32   C     C_3   0.223720 0.151830 0.546924 -0.604719
C33   C     C_3   0.816112 0.305908 0.500430 -0.045786
C34   C     C_3   0.813981 0.691836 0.499313 -0.012417
C35   C     C_3   0.315784 0.806272 0.500544 -0.070961
C36   C     C_3   0.313042 0.190839 0.499263 -0.011265
C37   C     C_3   0.192605 0.685613 0.500239 -0.052741
C38   C     C_3   0.191552 0.313196 0.498499 -0.043278
C39   C     C_3   0.692740 0.185439 0.500336 -0.020452
C40   C     C_3   0.692209 0.813944 0.498899 -0.044202
C41   C     C_3   0.151964 0.777830 0.476148 -0.565188
C42   C     C_3   0.152844 0.224526 0.550765 -0.562309
C43   C     C_3   0.652492 0.277527 0.473490 -0.586840
C44   C     C_3   0.652309 0.723801 0.540975 -0.566705
C45   C     C_3   0.912794 0.522383 0.083416 0.310758
C46   C     C_3   0.914058 0.527217 0.915403 0.299411
C47   C     C_3   0.033870 0.414817 0.083609 0.317761
C48   C     C_3   0.028611 0.412932 0.916387 0.339981
C49   C     C_3   0.412688 0.021954 0.083404 0.308924
C50   C     C_3   0.413940 0.026843 0.915409 0.299473
C51   C     C_3   0.534298 0.914971 0.083585 0.318780
C52   C     C_3   0.528995 0.913049 0.916354 0.340552
Cu1   Cu    Cu3+1 0.000100 0.500000 0.642410 0.991941
Cu2   Cu    Cu3+1 0.000100 0.500000 0.357590 0.990723
Cu3   Cu    Cu3+1 0.500100 0.000000 0.642410 0.993898
Cu4   Cu    Cu3+1 0.500100 1.000000 0.357590 1.000931
H1    H     H_    0.797593 0.307130 0.730165 0.077183
H2    H     H_    0.832086 0.270663 0.276461 0.048830
H3    H     H_    0.834768 0.734057 0.718520 0.014776
H4    H     H_    0.786342 0.681059 0.273029 0.038888
H5    H     H_    0.298785 0.805710 0.730517 0.079346
H6    H     H_    0.330439 0.773069 0.275640 0.039901
H7    H     H_    0.337278 0.238226 0.714567 0.014268
H8    H     H_    0.281155 0.174344 0.275254 0.037093
H9    H     H_    0.192145 0.705176 0.729156 0.021563
H10   H     H_    0.224862 0.673536 0.274779 -0.000909
H11   H     H_    0.239978 0.347905 0.708707 0.011974
H12   H     H_    0.173203 0.273703 0.278351 0.064800
H13   H     H_    0.690621 0.206923 0.728786 0.015364
H14   H     H_    0.725557 0.170586 0.276808 0.001789
H15   H     H_    0.734385 0.840801 0.715423 0.007006
H16   H     H_    0.680521 0.782490 0.274238 0.058525
H17   H     H_    0.710399 0.398410 0.555356 0.214384
H18   H     H_    0.724893 0.382615 0.368974 0.234554
H19   H     H_    0.727184 0.619929 0.645045 0.213876
H20   H     H_    0.705426 0.599658 0.461757 0.219586
H21   H     H_    0.210323 0.898103 0.559629 0.215651
H22   H     H_    0.223462 0.883996 0.372639 0.232154
H23   H     H_    0.229777 0.121672 0.653706 0.214625
H24   H     H_    0.203147 0.098776 0.472910 0.217267
H25   H     H_    0.104177 0.793075 0.561518 0.223245
H26   H     H_    0.115591 0.779605 0.374114 0.234248
H27   H     H_    0.127328 0.231610 0.660562 0.241239
H28   H     H_    0.096646 0.204628 0.483055 0.241196
H29   H     H_    0.604364 0.293638 0.557837 0.223012
H30   H     H_    0.616726 0.278562 0.370877 0.235530
H31   H     H_    0.622491 0.727739 0.648351 0.244291
H32   H     H_    0.599069 0.705497 0.466269 0.239256
H33   H     H_    0.895949 0.590127 0.118721 0.102909
H34   H     H_    0.903441 0.597836 0.886975 0.059358
H35   H     H_    0.105129 0.409614 0.109070 0.103060
H36   H     H_    0.096676 0.399103 0.879355 0.097668
H37   H     H_    0.395497 0.089589 0.118755 0.102994
H38   H     H_    0.403020 0.097421 0.887017 0.060184
H39   H     H_    0.605623 0.910085 0.109082 0.100045
H40   H     H_    0.597122 0.899546 0.879330 0.097765
H41   H     H_    0.041900 0.634648 0.119403 0.187194
H42   H     H_    0.050995 0.631952 0.874292 0.181249
H43   H     H_    0.129787 0.557846 0.125161 0.184871
H44   H     H_    0.132854 0.548648 0.881022 0.183711
H45   H     H_    0.541247 0.134841 0.119393 0.187510
H46   H     H_    0.550449 0.132161 0.874233 0.182591
H47   H     H_    0.629511 0.058460 0.125174 0.191156
H48   H     H_    0.632626 0.049175 0.881111 0.183052
N1    N     N_3   0.001260 0.500000 0.143650 -0.168058
N2    N     N_3   0.001260 0.500000 0.856350 -0.158658
N3    N     N_3   0.501260 1.000000 0.143650 -0.168478
N4    N     N_3   0.501260 1.000000 0.856350 -0.158578
O1    O     O_R   0.091250 0.408820 0.620260 -0.579034
O2    O     O_R   0.091250 0.408820 0.379740 -0.552526
O3    O     O_R   0.091250 0.591180 0.620260 -0.590832
O4    O     O_R   0.091250 0.591180 0.379740 -0.616084
O5    O     O_R   0.591250 0.908820 0.620260 -0.579757
O6    O     O_R   0.591250 0.908820 0.379740 -0.550744
O7    O     O_R   0.591250 0.091180 0.620260 -0.599405
O8    O     O_R   0.591250 0.091180 0.379740 -0.598679
O9    O     O_R   0.908940 0.408800 0.620260 -0.483515
O10   O     O_R   0.908940 0.408800 0.379740 -0.536753
O11   O     O_R   0.908940 0.591200 0.620260 -0.602078
O12   O     O_R   0.908940 0.591200 0.379740 -0.555866
O13   O     O_R   0.408940 0.908800 0.620260 -0.483152
O14   O     O_R   0.408940 0.908800 0.379740 -0.539980
O15   O     O_R   0.408940 0.091200 0.620260 -0.603597
O16   O     O_R   0.408940 0.091200 0.379740 -0.557019
O17   O     O_3   0.896011 0.220142 0.676089 -0.608275
H49   H     H_    0.895932 0.204312 0.777872 0.332540
O18   O     O_3   0.917173 0.197122 0.398101 -0.635326
H50   H     H_    0.961596 0.238574 0.360556 0.335256
O19   O     O_3   0.920513 0.799545 0.585888 -0.646937
H51   H     H_    0.962774 0.763733 0.641259 0.291768
O20   O     O_3   0.887641 0.768962 0.306500 -0.633970
H52   H     H_    0.888356 0.768793 0.201519 0.292068
O21   O     O_3   0.397094 0.719412 0.673203 -0.611773
H53   H     H_    0.397844 0.703232 0.774839 0.335333
O22   O     O_3   0.416187 0.698386 0.394159 -0.604511
H54   H     H_    0.460513 0.740539 0.358524 0.331191
O23   O     O_3   0.422166 0.299088 0.574978 -0.647647
H55   H     H_    0.464440 0.264532 0.632316 0.289882
O24   O     O_3   0.381907 0.264296 0.298553 -0.625896
H56   H     H_    0.381227 0.260700 0.193731 0.292540
O25   O     O_3   0.274775 0.602561 0.676444 -0.639907
H57   H     H_    0.279144 0.597975 0.780905 0.290565
O26   O     O_3   0.296179 0.582944 0.390054 -0.549291
H58   H     H_    0.257025 0.542506 0.337456 0.354645
O27   O     O_3   0.304623 0.420337 0.557639 -0.558339
H59   H     H_    0.339275 0.442505 0.639035 0.368197
O28   O     O_3   0.258547 0.378620 0.287987 -0.642822
H60   H     H_    0.258900 0.371502 0.183624 0.291785
O29   O     O_3   0.773429 0.103726 0.679932 -0.627498
H61   H     H_    0.777265 0.100132 0.784548 0.285154
O30   O     O_3   0.795334 0.080924 0.394815 -0.548723
H62   H     H_    0.820473 0.064491 0.301536 0.348301
O31   O     O_3   0.801905 0.920053 0.577008 -0.544116
H63   H     H_    0.833771 0.939401 0.663094 0.356200
O32   O     O_3   0.766088 0.886256 0.301136 -0.617407
H64   H     H_    0.767806 0.883875 0.196255 0.287246
O33   O     O_3   0.845685 0.469810 0.141467 -0.722051
H65   H     H_    0.830211 0.421766 0.075860 0.313089
O34   O     O_3   0.845169 0.480291 0.852003 -0.736144
H66   H     H_    0.790146 0.513514 0.871046 0.302569
O35   O     O_3   0.997533 0.340871 0.150586 -0.720341
H67   H     H_    0.935690 0.334490 0.123042 0.322588
O36   O     O_3   0.978501 0.343115 0.862848 -0.682329
H68   H     H_    0.918083 0.347862 0.899835 0.332755
O37   O     O_3   0.345824 0.969034 0.141363 -0.723610
H69   H     H_    0.330671 0.920881 0.075775 0.313142
O38   O     O_3   0.345236 0.979661 0.851991 -0.736442
H70   H     H_    0.290066 0.012499 0.871435 0.301724
O39   O     O_3   0.498287 0.840870 0.150525 -0.718700
H71   H     H_    0.436529 0.834082 0.122729 0.323761
O40   O     O_3   0.479212 0.842986 0.862745 -0.682336
H72   H     H_    0.418734 0.847482 0.899552 0.333354

loop_
_geom_bond_atom_site_label_1
_geom_bond_atom_site_label_2
_ccdc_geom_bond_type
C16   C28   S    
C9    C33   S    
Cu3   Cu4   S    
Cu3   O13   S    
C27   O31   S    
O33   H65   S    
Cu2   O12   S    
C9    O9    A    
O39   H71   S    
C4    O7    A    
O36   H68   S    
O40   H72   S    
C30   C44   S    
C14   C33   S    
O35   H67   S    
O29   H61   S    
O22   H54   S    
C49   N3    S    
C48   O36   S    
C5    N1    S    
C45   C46   S    
C13   C33   S    
C23   O27   S    
C2    O4    A    
O37   H69   S    
Cu4   O16   S    
C20   O24   S    
C26   O30   S    
C38   C42   S    
C19   C36   S    
O27   H59   S    
C5    C6    S    
Cu1   O9    S    
C26   C39   S    
C29   H17   S    
C28   C40   S    
O26   H58   S    
C29   C33   S    
Cu2   O2    S    
C21   C37   S    
C25   O29   S    
C16   H4    S    
C23   H11   S    
C16   O20   S    
C22   H10   S    
C10   O11   A    
O28   H60   S    
C17   H5    S    
Cu1   N2    S    
C48   N2    S    
C5    H43   S    
C19   H7    S    
C47   N1    S    
C12   O16   A    
C22   O26   S    
C28   O32   S    
C24   C38   S    
O30   H62   S    
C45   O33   S    
C12   C36   S    
C44   H31   S    
C45   H33   S    
C18   C35   S    
C15   C34   S    
C13   O17   S    
Cu1   O3    S    
C41   H25   S    
C7    H47   S    
C29   C43   S    
C50   N4    S    
C9    O10   A    
C13   C25   S    
C28   H16   S    
C15   H3    S    
C8    N4    S    
C52   O40   S    
C45   N1    S    
C31   H21   S    
C6    N2    S    
C14   H2    S    
Cu3   O15   S    
C2    O3    A    
C30   C34   S    
C51   C52   S    
C43   H29   S    
C47   C48   S    
C20   C24   S    
C51   O39   S    
C42   H28   S    
C3    O5    A    
O38   H70   S    
C50   H38   S    
C20   C36   S    
C1    O1    A    
C29   H18   S    
Cu3   O5    S    
Cu1   Cu2   S    
C22   C37   S    
C24   O28   S    
C17   C21   S    
C14   O18   S    
Cu4   O14   S    
C20   H8    S    
C19   C23   S    
Cu4   N3    S    
C49   O37   S    
C1    O2    A    
C32   H24   S    
C30   H20   S    
C15   C27   S    
O34   H66   S    
C15   O19   S    
C4    C39   S    
C27   C40   S    
C19   O23   S    
C16   C34   S    
Cu1   O11   S    
Cu4   O8    S    
Cu2   O4    S    
C18   O22   S    
C10   C34   S    
C14   C26   S    
C8    H48   S    
C1    C38   S    
C11   O13   A    
C5    H41   S    
C3    C40   S    
Cu2   O10   S    
C17   O21   S    
O21   H53   S    
C26   H14   S    
C7    N3    S    
C11   O14   A    
C25   H13   S    
O20   H52   S    
C6    H42   S    
C50   O38   S    
C27   H15   S    
C31   H22   S    
O19   H51   S    
Cu1   O1    S    
Cu4   O6    S    
C31   C41   S    
Cu2   N1    S    
C21   H9    S    
C41   H26   S    
C18   C22   S    
C43   H30   S    
C47   H35   S    
C4    O8    A    
C18   H6    S    
C42   H27   S    
C3    O6    A    
C39   C43   S    
O24   H56   S    
C32   C36   S    
C46   H34   S    
C23   C38   S    
O23   H55   S    
Cu3   N4    S    
C11   C35   S    
C21   O25   S    
O25   H57   S    
C25   C39   S    
C32   H23   S    
C30   H19   S    
C2    C37   S    
O17   H49   S    
C12   O15   A    
Cu3   O7    S    
C46   O34   S    
C46   N2    S    
C52   H40   S    
C31   C35   S    
C37   C41   S    
C7    C8    S    
C48   H36   S    
C24   H12   S    
C47   O35   S    
C40   C44   S    
C13   H1    S    
C52   N4    S    
C51   N3    S    
C49   C50   S    
C7    H45   S    
C51   H39   S    
O32   H64   S    
C32   C42   S    
C17   C35   S    
C49   H37   S    
O31   H63   S    
C44   H32   S    
C8    H46   S    
C10   O12   A    
O18   H50   S    
C6    H44   S    
