data_str_m3_o10_o16_f0_pcu.sym.92
_audit_creation_date              2012-12-10T16:51:33-0500
_audit_creation_method            fapswitch 2.2
_symmetry_space_group_name_H-M    P1
_symmetry_Int_Tables_number       1
_space_group_crystal_system       triclinic
_cell_length_a                    7.822837
_cell_length_b                    8.589567
_cell_length_c                    12.110744
_cell_angle_alpha                 92.3802
_cell_angle_beta                  101.184073
_cell_angle_gamma                 94.11655
_cell_volume                      794.985024826

loop_
_atom_site_label
_atom_site_type_symbol
_atom_type_description
_atom_site_fract_x
_atom_site_fract_y
_atom_site_fract_z
_atom_type_partial_charge
C1    C     C_R   0.042614 0.793788 0.492857 0.850612
C2    C     C_R   0.158929 0.504093 0.832087 -0.118946
C3    C     C_2   0.059295 0.954277 0.474539 0.344508
C4    C     C_R   0.105986 0.503732 0.710322 0.848188
C5    C     C_2   0.932503 0.041197 0.498135 -0.536294
C6    C     C_R   0.954475 0.205132 0.499331 0.969619
C7    C     C_R   0.892401 0.488293 0.289695 0.844306
C8    C     C_R   0.810249 0.287433 0.003432 -0.190460
C9    C     C_R   0.829918 0.456686 0.170170 -0.061773
C10   C     C_R   0.072924 0.594914 0.899738 -0.175153
C11   C     C_R   0.144004 0.624834 0.013391 -0.132117
C12   C     C_R   0.395755 0.483415 0.990176 0.081825
C13   C     C_R   0.305758 0.572649 0.058369 -0.203714
C14   C     C_3   0.173629 0.997150 0.318796 -0.284999
C15   C     C_R   0.310189 0.433223 0.880185 0.073661
C16   C     C_R   0.568284 0.443092 0.027122 0.080422
C17   C     C_R   0.641389 0.332392 0.963233 0.164202
C18   C     C_R   0.543573 0.266545 0.861549 -0.242576
C19   C     C_R   0.379832 0.316608 0.820117 -0.200774
C20   C     C_R   0.671415 0.512780 0.125300 -0.272133
C21   C     C_R   0.902984 0.346700 0.108572 -0.189428
H1    H     H_    0.026821 0.302006 0.143585 0.150001
H2    H     H_    0.076820 0.693589 0.065912 0.135759
H3    H     H_    0.307503 0.262026 0.741066 0.175787
H4    H     H_    0.059427 0.060831 0.280826 0.145800
H5    H     H_    0.152964 0.871707 0.288704 0.144199
H6    H     H_    0.289333 0.048805 0.288855 0.181472
H7    H     H_    0.815054 0.991772 0.523484 0.167597
H8    H     H_    0.469843 0.375077 0.416467 0.199975
H9    H     H_    0.530102 0.624845 0.583555 0.195689
H10   H     H_    0.594856 0.178618 0.813016 0.154191
H11   H     H_    0.866902 0.202043 0.956022 0.134787
H12   H     H_    0.627550 0.606642 0.172074 0.146998
H13   H     H_    0.954007 0.647122 0.863999 0.155996
H14   H     H_    0.355178 0.600475 0.147043 0.138723
N1    N     N_2   0.434800 0.456690 0.470850 -0.162344
N2    N     N_2   0.565200 0.543310 0.529150 -0.165785
O1    O     O_R   0.893060 0.738880 0.507150 -0.645153
O2    O     O_R   0.172250 0.711130 0.488470 -0.592651
O3    O     O_R   0.944700 0.520730 0.667600 -0.610272
O4    O     O_R   0.223890 0.492980 0.648920 -0.618023
O5    O     O_R   0.827750 0.288870 0.511530 -0.621760
O6    O     O_R   0.106940 0.261120 0.492850 -0.547939
O7    O     O_R   0.776110 0.507020 0.351080 -0.617950
O8    O     O_R   0.055300 0.479270 0.332400 -0.626610
O9    O     O_3   0.206828 0.014103 0.437579 -0.569164
Zn1   Zn    Zn3+2 0.813580 0.518530 0.512470 0.938798
Zn2   Zn    Zn3+2 0.186420 0.481470 0.487530 0.962905

loop_
_geom_bond_atom_site_label_1
_geom_bond_atom_site_label_2
_ccdc_geom_bond_type
C17   C18   A    
O3    Zn1   S    
C2    C4    S    
O7    Zn1   S    
N1    Zn2   S    
C14   H6    S    
N2    Zn1   S    
C5    H7    S    
O6    Zn2   S    
C3    O9    S    
C8    C17   A    
C12   C15   A    
C16   C20   A    
C8    C21   A    
C14   O9    S    
C7    O7    A    
C14   H5    S    
C15   C19   A    
C2    C15   A    
C11   C13   A    
H8    N1    S    
C9    C21   A    
O1    Zn1   S    
C1    O1    A    
C20   H12   S    
C7    O8    A    
C11   H2    S    
N1    N2    D    
O4    Zn2   S    
C13   H14   S    
O5    Zn1   S    
C14   H4    S    
C6    O5    A    
C5    C6    S    
C4    O4    A    
C1    O2    A    
C8    H11   S    
C12   C16   A    
C12   C13   A    
C10   H13   S    
C18   C19   A    
C10   C11   A    
O8    Zn2   S    
C7    C9    S    
C6    O6    A    
O2    Zn2   S    
C18   H10   S    
C9    C20   A    
C3    C5    D    
C21   H1    S    
C19   H3    S    
C4    O3    A    
H9    N2    S    
C16   C17   A    
C1    C3    S    
C2    C10   A    
