data_str_m4_o4_o15_f0_acs.sym.88
_audit_creation_date              2012-12-11T15:45:07-0500
_audit_creation_method            fapswitch 2.2
_symmetry_space_group_name_H-M    P1
_symmetry_Int_Tables_number       1
_space_group_crystal_system       triclinic
_cell_length_a                    19.558324
_cell_length_b                    10.989652
_cell_length_c                    18.654205
_cell_angle_alpha                 90.877232
_cell_angle_beta                  90.89433
_cell_angle_gamma                 89.849278
_cell_volume                      4008.54964407

loop_
_atom_site_label
_atom_site_type_symbol
_atom_type_description
_atom_site_fract_x
_atom_site_fract_y
_atom_site_fract_z
_atom_type_partial_charge
C1    C     C_R   0.759725 0.534780 0.646824 0.540156
C2    C     C_R   0.240570 0.536285 0.352985 0.542164
C3    C     C_R   0.259725 0.034780 0.646824 0.540156
C4    C     C_R   0.740570 0.036285 0.352985 0.542164
C5    C     C_R   0.838936 0.109168 0.521947 -0.115374
C6    C     C_R   0.162121 0.113115 0.478778 -0.117206
C7    C     C_R   0.338935 0.609168 0.521947 -0.115374
C8    C     C_R   0.662120 0.613115 0.478778 -0.117207
C9    C     C_R   0.825653 0.077284 0.450338 -0.113901
C10   C     C_R   0.174571 0.081371 0.550259 -0.121779
C11   C     C_R   0.325653 0.577284 0.450338 -0.113901
C12   C     C_R   0.674571 0.581372 0.550260 -0.121779
C13   C     C_3   0.647612 0.170368 0.463135 -0.225504
C14   C     C_3   0.356170 0.160361 0.536983 -0.222669
C15   C     C_3   0.147612 0.670366 0.463135 -0.225503
C16   C     C_3   0.856169 0.660362 0.536984 -0.222669
C17   C     C_3   0.663286 0.172852 0.542778 -0.109450
C18   C     C_3   0.342229 0.172572 0.457046 -0.110548
C19   C     C_3   0.163285 0.672850 0.542778 -0.109450
C20   C     C_3   0.842228 0.672573 0.457046 -0.110548
C21   C     C_R   0.790954 0.174284 0.561475 0.026091
C22   C     C_R   0.212654 0.169537 0.439071 0.042073
C23   C     C_R   0.290953 0.674284 0.561475 0.026091
C24   C     C_R   0.712653 0.669537 0.439071 0.042073
C25   C     C_R   0.998023 0.347005 0.424714 -0.001174
C26   C     C_R   0.004204 0.339140 0.576148 -0.014123
C27   C     C_R   0.498023 0.847005 0.424714 -0.001174
C28   C     C_R   0.504204 0.839140 0.576148 -0.014124
C29   C     C_R   0.981084 0.127835 0.420490 -0.092814
C30   C     C_R   0.010726 0.116168 0.566776 -0.112153
C31   C     C_R   0.481084 0.627835 0.420490 -0.092814
C32   C     C_R   0.510726 0.616168 0.566777 -0.112153
C33   C     C_R   0.990338 0.016525 0.452041 -0.158853
C34   C     C_R   0.006778 0.010540 0.524726 -0.168804
C35   C     C_R   0.490336 0.516525 0.452041 -0.158853
C36   C     C_R   0.506776 0.510540 0.524726 -0.168805
C37   C     C_R   0.002007 0.230503 0.535144 0.015598
C38   C     C_R   0.992947 0.235659 0.459829 0.019445
C39   C     C_R   0.502007 0.730503 0.535145 0.015598
C40   C     C_R   0.492948 0.735659 0.459829 0.019445
C41   C     C_R   0.010987 0.450892 0.540462 0.043568
C42   C     C_R   0.999489 0.456503 0.466156 0.044162
C43   C     C_R   0.510987 0.950892 0.540462 0.043568
C44   C     C_R   0.499490 0.956503 0.466156 0.044163
C45   C     C_R   0.793733 0.176639 0.640561 0.566941
C46   C     C_R   0.207486 0.175146 0.360319 0.567194
C47   C     C_R   0.293732 0.676639 0.640561 0.566941
C48   C     C_R   0.707486 0.675146 0.360319 0.567194
C49   C     C_R   0.023869 0.560314 0.578936 -0.065063
C50   C     C_R   0.990617 0.573138 0.435840 -0.086600
C51   C     C_R   0.523869 0.060313 0.578936 -0.065063
C52   C     C_R   0.490617 0.073138 0.435840 -0.086600
C53   C     C_R   0.011913 0.671274 0.549383 -0.152237
C54   C     C_R   0.996003 0.677951 0.477450 -0.163533
C55   C     C_R   0.511914 0.171274 0.549383 -0.152235
C56   C     C_R   0.496005 0.177951 0.477450 -0.163533
C57   C     C_R   0.753046 0.085299 0.079091 -0.013865
C58   C     C_R   0.253151 0.093620 0.920924 -0.006958
C59   C     C_R   0.253045 0.585299 0.079091 -0.013866
C60   C     C_R   0.753151 0.593620 0.920924 -0.006958
C61   C     C_R   0.809551 0.044418 0.040649 -0.002832
C62   C     C_R   0.189486 0.115211 0.950631 -0.004969
C63   C     C_R   0.309551 0.544418 0.040649 -0.002831
C64   C     C_R   0.689486 0.615211 0.950631 -0.004969
C65   C     C_R   0.810628 0.051483 0.967643 -0.005427
C66   C     C_R   0.182871 0.117189 0.023545 0.008857
C67   C     C_R   0.310628 0.551483 0.967643 -0.005427
C68   C     C_R   0.682871 0.617189 0.023545 0.008857
C69   C     C_R   0.703092 0.159431 0.967063 -0.003959
C70   C     C_R   0.304435 0.110154 0.041452 -0.031113
C71   C     C_R   0.203092 0.659431 0.967063 -0.003959
C72   C     C_R   0.804435 0.610154 0.041452 -0.031113
C73   C     C_R   0.703067 0.152953 0.042743 -0.133735
C74   C     C_R   0.311277 0.106588 0.966358 -0.138908
C75   C     C_R   0.203067 0.652953 0.042743 -0.133735
C76   C     C_R   0.811277 0.606588 0.966358 -0.138908
C77   C     C_3   0.844829 0.923351 0.038470 -0.211011
C78   C     C_3   0.119361 0.064642 0.938865 -0.251211
C79   C     C_3   0.344829 0.423351 0.038470 -0.211011
C80   C     C_3   0.619361 0.564641 0.938865 -0.251211
C81   C     C_3   0.845683 0.932204 0.957757 -0.259936
C82   C     C_3   0.113542 0.062494 0.020206 -0.235504
C83   C     C_3   0.345683 0.432204 0.957757 -0.259936
C84   C     C_3   0.613542 0.562493 0.020206 -0.235504
C85   C     C_R   0.757396 0.102378 0.928278 -0.023076
C86   C     C_R   0.238401 0.103806 0.070706 -0.014693
C87   C     C_R   0.257396 0.602378 0.928278 -0.023076
C88   C     C_R   0.738402 0.603806 0.070706 -0.014693
C89   C     C_R   0.972526 0.345238 0.647904 0.531432
C90   C     C_R   0.027989 0.347862 0.352331 0.524972
C91   C     C_R   0.472526 0.845238 0.647904 0.531432
C92   C     C_R   0.527989 0.847862 0.352331 0.524972
C93   C     C_R   0.989173 0.343047 0.081060 0.000141
C94   C     C_R   0.948120 0.346971 0.936880 -0.001072
C95   C     C_R   0.489173 0.843046 0.081060 0.000141
C96   C     C_R   0.448120 0.846971 0.936880 -0.001072
C97   C     C_R   0.987724 0.450337 0.042477 0.061846
C98   C     C_R   0.966057 0.453292 0.972850 0.008994
C99   C     C_R   0.487724 0.950337 0.042478 0.061846
C100  C     C_R   0.466056 0.953292 0.972850 0.008993
C101  C     C_R   0.941958 0.239079 0.976256 -0.160934
C102  C     C_R   0.960699 0.237748 0.049427 -0.178082
C103  C     C_R   0.441958 0.739079 0.976256 -0.160934
C104  C     C_R   0.460699 0.737748 0.049427 -0.178082
C105  C     C_3   0.044483 0.537758 0.030046 -0.202457
C106  C     C_3   0.019215 0.543595 0.953579 -0.226277
C107  C     C_3   0.544483 0.037759 0.030046 -0.202457
C108  C     C_3   0.519214 0.043595 0.953579 -0.226276
C109  C     C_R   0.761164 0.534447 0.851357 0.544088
C110  C     C_R   0.239356 0.532171 0.148409 0.538450
C111  C     C_R   0.261164 0.034447 0.851357 0.544088
C112  C     C_R   0.739356 0.032171 0.148409 0.538450
C113  C     C_R   0.773227 0.128710 0.853686 0.532242
C114  C     C_R   0.225685 0.128232 0.146077 0.530147
C115  C     C_R   0.273227 0.628710 0.853686 0.532242
C116  C     C_R   0.725685 0.628232 0.146077 0.530147
C117  C     C_R   0.936510 0.352022 0.860160 0.567625
C118  C     C_R   0.028303 0.346494 0.147639 0.538977
C119  C     C_R   0.436510 0.852022 0.860160 0.567625
C120  C     C_R   0.528303 0.846494 0.147639 0.538977
C121  C     C_R   0.763797 0.110344 0.415611 0.042956
C122  C     C_R   0.238023 0.106903 0.584144 0.035689
C123  C     C_R   0.263797 0.610344 0.415611 0.042956
C124  C     C_R   0.738022 0.606904 0.584144 0.035688
C125  C     C_R   0.721126 0.191091 0.451826 0.037134
C126  C     C_R   0.282653 0.182231 0.548178 0.028719
C127  C     C_R   0.221125 0.691090 0.451826 0.037133
C128  C     C_R   0.782653 0.682232 0.548178 0.028719
C129  C     C_R   0.732746 0.213707 0.525261 0.048653
C130  C     C_R   0.271424 0.206823 0.475629 0.061181
C131  C     C_R   0.232745 0.713706 0.525261 0.048652
C132  C     C_R   0.771424 0.706823 0.475630 0.061181
Cr1   Cr    Cr6+3 0.885860 0.491680 0.749630 0.995099
Cr2   Cr    Cr6+3 0.114140 0.491680 0.250370 1.009709
Cr3   Cr    Cr6+3 0.385860 0.991680 0.749630 0.995099
Cr4   Cr    Cr6+3 0.614140 0.991680 0.250370 1.009709
Cr5   Cr    Cr6+3 0.730490 0.332970 0.748720 0.983198
Cr6   Cr    Cr6+3 0.269510 0.332970 0.251280 1.003128
Cr7   Cr    Cr6+3 0.230490 0.832970 0.748720 0.983198
Cr8   Cr    Cr6+3 0.769510 0.832970 0.251280 1.003128
Cr9   Cr    Cr6+3 0.887570 0.179310 0.750150 0.998860
Cr10  Cr    Cr6+3 0.112430 0.179310 0.249850 1.007881
Cr11  Cr    Cr6+3 0.387570 0.679310 0.750150 0.998860
Cr12  Cr    Cr6+3 0.612430 0.679310 0.249850 1.007881
H1    H     H_    0.881499 0.067780 0.549113 0.158166
H2    H     H_    0.116739 0.080779 0.451901 0.159891
H3    H     H_    0.381499 0.567780 0.549113 0.158167
H4    H     H_    0.616738 0.580780 0.451901 0.159891
H5    H     H_    0.016225 0.749947 0.583815 0.091253
H6    H     H_    0.986594 0.763439 0.453682 0.099499
H7    H     H_    0.516228 0.249947 0.583814 0.091251
H8    H     H_    0.486597 0.263439 0.453682 0.099499
H9    H     H_    0.660296 0.189217 0.072499 0.166211
H10   H     H_    0.361926 0.102515 0.944126 0.164677
H11   H     H_    0.160296 0.689217 0.072500 0.166211
H12   H     H_    0.861926 0.602515 0.944126 0.164678
H13   H     H_    0.811258 0.849511 0.056782 0.191385
H14   H     H_    0.118698 0.973938 0.912683 0.218631
H15   H     H_    0.311258 0.349511 0.056782 0.191385
H16   H     H_    0.618698 0.473937 0.912683 0.218631
H17   H     H_    0.896631 0.927156 0.063787 0.176558
H18   H     H_    0.084334 0.132015 0.913650 0.138702
H19   H     H_    0.396631 0.427156 0.063787 0.176558
H20   H     H_    0.584334 0.632014 0.913650 0.138702
H21   H     H_    0.898042 0.941366 0.936231 0.154091
H22   H     H_    0.075196 0.126214 0.041616 0.150151
H23   H     H_    0.398042 0.441366 0.936231 0.154091
H24   H     H_    0.575196 0.626213 0.041616 0.150151
H25   H     H_    0.812731 0.863687 0.929711 0.145263
H26   H     H_    0.112630 0.969800 0.043004 0.200431
H27   H     H_    0.312731 0.363687 0.929710 0.145263
H28   H     H_    0.612631 0.469799 0.043004 0.200431
H29   H     H_    0.928215 0.155084 0.949311 0.149864
H30   H     H_    0.959445 0.153188 0.078414 0.127455
H31   H     H_    0.428215 0.655084 0.949311 0.149864
H32   H     H_    0.459445 0.653188 0.078414 0.127455
H33   H     H_    0.095451 0.493428 0.035224 0.125975
H34   H     H_    0.996071 0.632744 0.939478 0.193351
H35   H     H_    0.595451 0.993428 0.035224 0.125975
H36   H     H_    0.496071 0.132744 0.939478 0.193351
H37   H     H_    0.038798 0.624675 0.060461 0.218875
H38   H     H_    0.056936 0.506728 0.914795 0.137279
H39   H     H_    0.538798 0.124675 0.060461 0.218875
H40   H     H_    0.556936 0.006728 0.914795 0.137279
H41   H     H_    0.859503 0.011854 0.425824 0.138315
H42   H     H_    0.137932 0.023617 0.575725 0.134176
H43   H     H_    0.359502 0.511854 0.425824 0.138315
H44   H     H_    0.637931 0.523618 0.575725 0.134177
H45   H     H_    0.128452 0.581573 0.442392 0.207336
H46   H     H_    0.874116 0.568848 0.553555 0.203680
H47   H     H_    0.628452 0.081575 0.442391 0.207336
H48   H     H_    0.374116 0.068847 0.553555 0.203680
H49   H     H_    0.618141 0.250753 0.444397 0.121691
H50   H     H_    0.385244 0.237906 0.560973 0.125234
H51   H     H_    0.118140 0.750751 0.444397 0.121691
H52   H     H_    0.885243 0.737908 0.560973 0.125234
H53   H     H_    0.636147 0.243647 0.574477 0.107209
H54   H     H_    0.369113 0.248733 0.431177 0.094382
H55   H     H_    0.136146 0.743645 0.574477 0.107208
H56   H     H_    0.869113 0.748734 0.431177 0.094382
H57   H     H_    0.985418 0.937571 0.418012 0.100894
H58   H     H_    0.016930 0.925438 0.548861 0.107013
H59   H     H_    0.485414 0.437571 0.418013 0.100893
H60   H     H_    0.516924 0.425437 0.548862 0.107014
H61   H     H_    0.964888 0.128517 0.364742 0.134479
H62   H     H_    0.024310 0.107623 0.622913 0.134486
H63   H     H_    0.464887 0.628517 0.364742 0.134479
H64   H     H_    0.524309 0.607622 0.622914 0.134486
H65   H     H_    0.974016 0.586587 0.381119 0.130055
H66   H     H_    0.043701 0.561827 0.633436 0.124001
H67   H     H_    0.474016 0.086587 0.381119 0.130055
H68   H     H_    0.543701 0.061827 0.633436 0.124001
O1    O     O_R   0.957020 0.451640 0.669920 -0.530075
O2    O     O_R   0.042980 0.451640 0.330080 -0.537321
O3    O     O_R   0.457020 0.951640 0.669920 -0.530075
O4    O     O_R   0.542980 0.951640 0.330080 -0.537321
O5    O     O_R   0.736470 0.210100 0.823360 -0.520015
O6    O     O_R   0.263530 0.210100 0.176640 -0.508295
O7    O     O_R   0.236470 0.710100 0.823360 -0.520015
O8    O     O_R   0.763530 0.710100 0.176640 -0.508295
O9    O     O_R   0.831960 0.093290 0.830130 -0.517077
O10   O     O_R   0.168040 0.093290 0.169870 -0.508989
O11   O     O_R   0.331960 0.593290 0.830130 -0.517077
O12   O     O_R   0.668040 0.593290 0.169870 -0.508989
O13   O     O_R   0.945600 0.250580 0.824860 -0.508927
O14   O     O_R   0.054400 0.250580 0.175140 -0.508783
O15   O     O_R   0.445600 0.750580 0.824860 -0.508927
O16   O     O_R   0.554400 0.750580 0.175140 -0.508783
O17   O     O_3   0.834640 0.334650 0.749500 -0.291911
O18   O     O_3   0.165360 0.334650 0.250500 -0.271895
O19   O     O_3   0.334640 0.834650 0.749500 -0.291911
O20   O     O_3   0.665360 0.834650 0.250500 -0.271895
O21   O     O_R   0.821450 0.543440 0.674610 -0.503679
O22   O     O_R   0.178550 0.543440 0.325390 -0.504760
O23   O     O_R   0.321450 0.043440 0.674610 -0.503679
O24   O     O_R   0.678550 0.043440 0.325390 -0.504759
O25   O     O_R   0.715320 0.458650 0.668100 -0.537652
O26   O     O_R   0.284680 0.458650 0.331900 -0.538327
O27   O     O_R   0.215320 0.958650 0.668100 -0.537652
O28   O     O_R   0.784680 0.958650 0.331900 -0.538327
O29   O     O_R   0.737170 0.209590 0.674530 -0.525125
O30   O     O_R   0.262830 0.209590 0.325470 -0.521031
O31   O     O_R   0.237170 0.709590 0.674530 -0.525125
O32   O     O_R   0.762830 0.709590 0.325470 -0.521031
O33   O     O_R   0.832710 0.092740 0.669580 -0.517262
O34   O     O_R   0.167290 0.092740 0.330420 -0.513685
O35   O     O_R   0.332710 0.592740 0.669580 -0.517262
O36   O     O_R   0.667290 0.592740 0.330420 -0.513684
O37   O     O_R   0.946290 0.250060 0.676040 -0.518804
O38   O     O_R   0.053710 0.250060 0.323960 -0.523296
O39   O     O_R   0.446290 0.750060 0.676040 -0.518804
O40   O     O_R   0.553710 0.750060 0.323960 -0.523297
O41   O     O_R   0.956270 0.452200 0.830470 -0.529768
O42   O     O_R   0.043730 0.452200 0.169530 -0.516648
O43   O     O_R   0.456270 0.952200 0.830470 -0.529768
O44   O     O_R   0.543730 0.952200 0.169530 -0.516648
O45   O     O_R   0.820760 0.543950 0.823440 -0.525263
O46   O     O_R   0.179240 0.543950 0.176560 -0.510283
O47   O     O_R   0.320760 0.043950 0.823440 -0.525263
O48   O     O_R   0.679240 0.043950 0.176560 -0.510283
O49   O     O_R   0.714570 0.459210 0.828640 -0.515589
O50   O     O_R   0.285430 0.459210 0.171360 -0.516478
O51   O     O_R   0.214570 0.959210 0.828640 -0.515589
O52   O     O_R   0.785430 0.959210 0.171360 -0.516478
C133  C     C_2   0.642597 0.214799 0.931225 0.207862
H69   H     H_    0.630237 0.195767 0.875441 0.134828
O53   O     O_2   0.602640 0.277471 0.965256 -0.586750
C134  C     C_2   0.365927 0.118918 0.088150 0.226083
H70   H     H_    0.367392 0.074669 0.139765 0.120795
O54   O     O_2   0.414541 0.180230 0.070550 -0.555627
C135  C     C_2   0.142597 0.714800 0.931225 0.207862
H71   H     H_    0.130237 0.695768 0.875441 0.134828
O55   O     O_2   0.102640 0.777471 0.965256 -0.586750
C136  C     C_2   0.865927 0.618919 0.088150 0.226083
H72   H     H_    0.867392 0.574670 0.139765 0.120795
O56   O     O_2   0.914541 0.680230 0.070550 -0.555627
C137  C     C_2   0.666765 0.046120 0.575789 0.226142
H73   H     H_    0.660851 0.036555 0.633105 0.128223
O57   O     O_2   0.678876 0.955099 0.539622 -0.529115
C138  C     C_2   0.343787 0.052081 0.415598 0.229883
H74   H     H_    0.357402 0.051127 0.359463 0.121347
O58   O     O_2   0.327542 0.956565 0.443364 -0.522961
C139  C     C_2   0.166765 0.546119 0.575789 0.226143
H75   H     H_    0.160851 0.536555 0.633106 0.128222
O59   O     O_2   0.178876 0.455098 0.539623 -0.529115
C140  C     C_2   0.843787 0.552081 0.415599 0.229884
H76   H     H_    0.857401 0.551127 0.359464 0.121346
O60   O     O_2   0.827542 0.456566 0.443365 -0.522961

loop_
_geom_bond_atom_site_label_1
_geom_bond_atom_site_label_2
_ccdc_geom_bond_type
Cr9   O37   S    
C47   O35   A    
C2    C123  S    
C90   O38   A    
Cr11  O39   S    
C69   C133  S    
C6    H2    S    
C94   C117  S    
C95   C99   A    
C135  H71   S    
C29   C33   A    
Cr8   O28   S    
C136  H72   S    
C91   O3    A    
C3    O23   A    
Cr8   O8    S    
C50   H65   S    
C1    O21   A    
Cr10  O34   S    
C83   H27   S    
C70   C74   A    
C9    C121  A    
C17   H53   S    
C81   H25   S    
C87   C115  S    
C80   C84   S    
C97   C105  S    
C14   H50   S    
C15   C127  S    
C22   C130  A    
Cr9   O13   S    
C20   C132  S    
C41   C49   A    
C108  H40   S    
C23   C47   S    
Cr1   O41   S    
C62   C66   A    
C17   C129  S    
C60   C76   A    
C7    H3    S    
Cr8   O32   S    
C93   C102  A    
C43   C44   A    
C31   H63   S    
C37   C38   A    
C84   H24   S    
C66   C82   S    
C78   C82   S    
Cr2   O46   S    
C70   C134  S    
Cr4   O48   S    
C55   H7    S    
C113  O9    A    
C112  O52   A    
C105  H33   S    
C134  O54   D    
C18   C130  S    
C90   O2    A    
C107  H35   S    
Cr11  O15   S    
C10   C122  A    
C14   C126  S    
C57   C61   A    
C19   C139  S    
C59   C63   A    
C98   C106  S    
C60   C64   A    
C1    C124  S    
C48   O36   A    
C140  O60   D    
C49   C53   A    
C51   C55   A    
Cr5   O25   S    
C127  C131  A    
C125  C129  A    
C5    C21   A    
Cr5   O5    S    
C94   C98   A    
Cr7   O19   S    
Cr9   O9    S    
C79   C83   S    
C122  C126  A    
Cr7   O51   S    
C101  H29   S    
C97   C98   A    
C104  H32   S    
C53   C54   A    
C118  O14   A    
C121  C125  A    
C25   C90   S    
C64   C68   A    
C110  O46   A    
Cr10  O18   S    
C29   H61   S    
C74   H10   S    
C57   C73   A    
C20   H56   S    
C60   C109  S    
C117  O41   A    
C27   C44   A    
C78   H14   S    
C61   C77   S    
C29   C38   A    
Cr9   O33   S    
C107  C108  S    
C116  O8    A    
Cr7   O31   S    
C14   H48   S    
C44   C52   A    
C15   H45   S    
C137  H73   S    
C53   H5    S    
C4    O24   A    
C114  O6    A    
C21   C45   S    
C92   O40   A    
C100  C108  S    
C5    H1    S    
C30   C34   A    
C24   C48   S    
Cr6   O18   S    
C138  H74   S    
C46   O34   A    
C39   C40   A    
C1    O25   A    
C83   H23   S    
C5    C9    A    
C61   C65   A    
C25   C38   A    
C123  C127  A    
C27   C40   A    
C8    C12   A    
Cr2   O22   S    
C23   C131  A    
C133  O53   D    
C21   C129  A    
C42   C50   A    
C93   C97   A    
C69   C85   A    
C58   C74   A    
C105  H37   S    
C62   C78   S    
C84   H28   S    
C66   C86   A    
C75   H11   S    
Cr3   O47   S    
C13   C17   S    
Cr12  O36   S    
Cr5   O29   S    
C112  O48   A    
C34   H58   S    
C7    C23   A    
C96   C100  A    
C8    C24   A    
C28   C91   S    
C136  O56   D    
Cr2   O18   S    
Cr7   O7    S    
Cr8   O52   S    
C139  H75   S    
Cr3   O19   S    
Cr11  O19   S    
C106  H34   S    
C17   C137  S    
Cr5   O49   S    
C58   C62   A    
C55   C56   A    
C101  C102  A    
C45   O29   A    
C41   C42   A    
C96   C119  S    
C35   C36   A    
C48   O32   A    
C91   O39   A    
C15   C19   S    
C50   C54   A    
C89   O37   A    
C72   C136  S    
C115  O11   A    
C79   H15   S    
C80   H16   S    
C126  C130  A    
Cr9   O17   S    
C6    C22   A    
C31   C40   A    
C32   C39   A    
C80   H20   S    
C51   H68   S    
C2    O22   A    
Cr6   O50   S    
C18   H54   S    
C69   C73   A    
C56   H8    S    
C120  O16   A    
C124  C128  A    
C15   H51   S    
Cr1   O45   S    
C13   H49   S    
C64   C80   S    
C8    H4    S    
C111  O47   A    
Cr10  O14   S    
C77   H17   S    
C58   C111  S    
C68   C84   S    
C49   H66   S    
C54   H6    S    
C45   O33   A    
C28   C39   A    
C76   H12   S    
C30   C37   A    
C116  O12   A    
C16   H52   S    
C24   C132  A    
C65   C81   S    
C77   C81   S    
C103  H31   S    
C4    O28   A    
Cr1   O21   S    
C114  O10   A    
C16   H46   S    
C18   C138  S    
Cr5   O17   S    
C22   C46   S    
Cr8   O20   S    
C31   C35   A    
C46   O30   A    
C109  O49   A    
C32   C36   A    
C89   O1    A    
C82   H22   S    
C19   H55   S    
Cr12  O20   S    
C11   C123  A    
C119  O43   A    
C25   C42   A    
C6    C10   A    
C26   C37   A    
C95   C120  S    
C99   C107  S    
C105  C106  S    
C28   C43   A    
Cr2   O2    S    
C47   O31   A    
C43   C51   A    
C85   C113  S    
Cr11  O35   S    
C4    C121  S    
C92   O4    A    
Cr1   O17   S    
C134  H70   S    
C96   C103  A    
C103  C104  A    
Cr3   O43   S    
C13   C125  S    
C3    O27   A    
C30   H62   S    
C82   H26   S    
Cr10  O38   S    
C139  O59   D    
C14   C18   S    
C72   C76   A    
C119  O15   A    
C63   C79   S    
C26   C89   S    
C7    C11   A    
Cr4   O20   S    
C117  O13   A    
C11   H43   S    
C138  O58   D    
C9    H41   S    
Cr11  O11   S    
C140  H76   S    
C57   C112  S    
C12   H44   S    
Cr4   O24   S    
C59   C110  S    
C108  H36   S    
C106  H38   S    
C118  O42   A    
C10   H42   S    
Cr3   O3    S    
C94   C101  A    
C52   H67   S    
C133  H69   S    
Cr6   O30   S    
C3    C122  S    
C16   C20   S    
Cr12  O40   S    
C115  O7    A    
C128  C132  A    
C113  O5    A    
C72   C88   A    
C19   C131  S    
C63   C67   A    
C110  O50   A    
Cr7   O27   S    
Cr2   O42   S    
C2    O26   A    
C107  H39   S    
C88   C116  S    
C120  O44   A    
C99   C100  A    
C12   C124  A    
C33   C34   A    
C27   C92   S    
C20   C140  S    
C67   C83   S    
C16   C128  S    
C111  O51   A    
C78   H18   S    
C137  O57   D    
C68   C88   A    
C71   C87   A    
C32   H64   S    
C93   C118  S    
C70   C86   A    
C59   C75   A    
C95   C104  A    
C135  O55   D    
Cr4   O44   S    
C79   H19   S    
C65   C85   A    
C102  H30   S    
C67   C87   A    
C13   H47   S    
C86   C114  S    
Cr1   O1    S    
C71   C75   A    
C35   H59   S    
C33   H57   S    
Cr6   O26   S    
Cr3   O23   S    
C109  O45   A    
Cr12  O12   S    
Cr6   O6    S    
C71   C135  S    
C73   H9    S    
C81   H21   S    
Cr12  O16   S    
C36   H60   S    
Cr10  O10   S    
C52   C56   A    
C26   C41   A    
C77   H13   S    
Cr4   O4    S    
