data_str_m9_o4_o18_f0_sra.sym.102
_audit_creation_date              2013-03-05T16:07:35-0500
_audit_creation_method            fapswitch 2.2
_symmetry_space_group_name_H-M    P1
_symmetry_Int_Tables_number       1
_space_group_crystal_system       triclinic
_cell_length_a                    21.652682
_cell_length_b                    7.062023
_cell_length_c                    15.001496
_cell_angle_alpha                 90.002125
_cell_angle_beta                  107.035001
_cell_angle_gamma                 90.002355
_cell_volume                      2193.26198255

loop_
_atom_site_label
_atom_site_type_symbol
_atom_site_description
_atom_site_fract_x
_atom_site_fract_y
_atom_site_fract_z
_atom_type_partial_charge
O1    O     O_R   0.585850 0.505770 0.002130 -0.612654
O2    O     O_R   0.414150 0.005770 0.997870 -0.612205
O3    O     O_R   0.467530 0.173560 0.861970 -0.584800
O4    O     O_R   0.532470 0.673560 0.138030 -0.584796
C1    C     C_R   0.455254 0.344936 0.825569 0.925939
C2    C     C_R   0.544737 0.844947 0.174433 0.926320
O5    O     O_R   0.588690 0.175900 0.993250 -0.565567
O6    O     O_R   0.411310 0.675900 0.006750 -0.565736
O7    O     O_R   0.536170 0.007950 0.130090 -0.592161
O8    O     O_R   0.463830 0.507950 0.869910 -0.592503
C3    C     C_R   0.615247 0.344270 0.998727 0.959149
C4    C     C_R   0.384746 0.844265 0.001234 0.959586
O9    O     O_3   0.482630 0.339970 0.044740 -0.263236
O10   O     O_3   0.517370 0.839970 0.955260 -0.263699
V1    V     V_3+5 0.503220 0.064200 0.991700 1.225207
V2    V     V_3+5 0.496780 0.564200 0.008300 1.225013
C5    C     C_R   0.293580 0.000993 0.044757 0.127948
C6    C     C_R   0.706418 0.500928 0.955151 0.127779
C7    C     C_R   0.316651 0.851027 0.002962 -0.244767
C8    C     C_R   0.683333 0.350999 0.996954 -0.244954
C9    C     C_R   0.272881 0.703063 0.965761 -0.056428
C10   C     C_R   0.727089 0.202995 0.034128 -0.056367
H1    H     H_    0.288481 0.581415 0.934201 0.111973
H2    H     H_    0.711476 0.081337 0.065665 0.112008
C11   C     C_R   0.207506 0.715386 0.964535 -0.162290
C12   C     C_R   0.792473 0.215325 0.035392 -0.162446
H3    H     H_    0.174896 0.601837 0.932878 0.125339
H4    H     H_    0.825073 0.101764 0.067041 0.125391
C13   C     C_R   0.183724 0.877609 0.998754 -0.216388
C14   C     C_R   0.816276 0.377581 0.001230 -0.216670
C15   C     C_R   0.229079 0.015675 0.042093 0.237731
C16   C     C_R   0.770930 0.515633 0.957887 0.238395
C17   C     C_3   0.229676 0.226042 0.030472 -0.588584
C18   C     C_3   0.770325 0.726006 0.969463 -0.588230
C19   C     C_3   0.301165 0.209033 0.036448 0.178315
C20   C     C_3   0.698805 0.708997 0.963314 0.177797
H5    H     H_    0.220006 0.303079 0.089321 0.287436
H6    H     H_    0.780070 0.803004 0.910658 0.287350
H7    H     H_    0.199147 0.270772 0.960400 0.154642
H8    H     H_    0.800783 0.770783 0.039572 0.154444
H9    H     H_    0.313286 0.251394 0.972177 0.041263
H10   H     H_    0.686564 0.751456 0.027481 0.041632
C21   C     C_R   0.930402 0.873528 0.722780 -0.224059
C22   C     C_R   0.069586 0.373556 0.277225 -0.224066
C23   C     C_R   0.573297 0.857279 0.275185 -0.098461
C24   C     C_R   0.426687 0.357236 0.724820 -0.098315
C25   C     C_R   0.934648 0.704493 0.584294 -0.162249
C26   C     C_R   0.065305 0.204637 0.415722 -0.162282
C27   C     C_R   0.963010 0.754655 0.676953 -0.205450
C28   C     C_R   0.036955 0.254764 0.323055 -0.205509
C29   C     C_R   0.868457 0.940651 0.674695 0.411633
C30   C     C_R   0.131541 0.440623 0.325313 0.411751
C31   C     C_R   0.833910 0.854564 0.588722 0.021849
C32   C     C_R   0.166068 0.354555 0.411295 0.021811
C33   C     C_R   0.870110 0.751926 0.540062 0.160724
C34   C     C_R   0.129849 0.252017 0.459959 0.160682
C35   C     C_R   0.765225 0.864549 0.549416 -0.083180
C36   C     C_R   0.234754 0.364457 0.450602 -0.083013
C37   C     C_R   0.737225 0.820194 0.452977 0.041136
C38   C     C_R   0.262747 0.320171 0.547046 0.041091
C39   C     C_R   0.776957 0.736618 0.403980 -0.160863
C40   C     C_R   0.223000 0.236706 0.596050 -0.160897
C41   C     C_R   0.841426 0.695887 0.448192 -0.194436
C42   C     C_R   0.158524 0.196020 0.551837 -0.194446
C43   C     C_R   0.723012 0.898535 0.604604 0.416485
C44   C     C_R   0.276970 0.398280 0.395407 0.416447
C45   C     C_R   0.657490 0.931174 0.562081 -0.314154
C46   C     C_R   0.342495 0.430886 0.437918 -0.314618
C47   C     C_R   0.630770 0.911191 0.466236 0.097010
C48   C     C_R   0.369214 0.411000 0.533766 0.097137
C49   C     C_R   0.669784 0.851046 0.410340 0.114275
C50   C     C_R   0.330193 0.350975 0.589675 0.114245
C51   C     C_R   0.564333 0.942654 0.426502 -0.123576
C52   C     C_R   0.435655 0.442434 0.573489 -0.123454
C53   C     C_R   0.535868 0.916827 0.331384 -0.128345
C54   C     C_R   0.464120 0.416684 0.668610 -0.128685
C55   C     C_R   0.639554 0.825656 0.313786 -0.232505
C56   C     C_R   0.360423 0.325650 0.686231 -0.232496
H11   H     H_    0.869248 0.621399 0.409753 0.120576
H12   H     H_    0.130689 0.121606 0.590280 0.120581
H13   H     H_    0.666334 0.788555 0.265996 0.090916
H14   H     H_    0.333640 0.288622 0.734027 0.090900
H15   H     H_    0.484736 0.944299 0.301435 0.163018
H16   H     H_    0.515256 0.444133 0.698553 0.162802
H17   H     H_    0.626307 0.961416 0.605237 0.196756
H18   H     H_    0.373681 0.461024 0.394753 0.196663
H19   H     H_    0.962008 0.620002 0.548816 0.126688
H20   H     H_    0.037928 0.120214 0.451202 0.126692
H21   H     H_    0.010805 0.701898 0.713012 0.126662
H22   H     H_    0.989152 0.202047 0.286995 0.126644
H23   H     H_    0.758743 0.689614 0.332778 0.115833
H24   H     H_    0.241209 0.189752 0.667258 0.115824
H25   H     H_    0.534356 0.987714 0.469151 0.133519
H26   H     H_    0.465636 0.487407 0.530830 0.133550
O11   O     O_R   0.036080 0.231270 0.130120 -0.585771
O12   O     O_R   0.963920 0.731270 0.869880 -0.585802
O13   O     O_R   0.911300 0.558970 0.006750 -0.601944
O14   O     O_R   0.088700 0.058970 0.993250 -0.601920
C57   C     C_R   0.884980 0.389944 0.002588 0.972395
C58   C     C_R   0.115021 0.889952 0.997415 0.972411
O15   O     O_R   0.032450 0.561140 0.138040 -0.565530
O16   O     O_R   0.967550 0.061140 0.861960 -0.565513
O17   O     O_R   0.085870 0.728910 0.002130 -0.582958
O18   O     O_R   0.914130 0.228910 0.997870 -0.582969
C59   C     C_R   0.044218 0.391705 0.175328 0.999252
C60   C     C_R   0.955778 0.891698 0.824674 0.999210
O19   O     O_3   0.017320 0.394650 0.955270 -0.285757
O20   O     O_3   0.982680 0.894650 0.044730 -0.285777
V3    V     V_3+5 0.996780 0.670490 0.008300 1.229609
V4    V     V_3+5 0.003220 0.170490 0.991700 1.229624
Cl1   Cl    Cl    0.841471 0.153324 0.713615 -0.586968
Cl2   Cl    Cl    0.158571 0.653212 0.286376 -0.586859
N1    N     N_R   0.743208 0.870090 0.703502 0.251298
O21   O     O_R   0.774875 0.717791 0.738740 -0.393392
O22   O     O_R   0.722708 0.983336 0.757044 -0.316846
N2    N     N_R   0.256764 0.369736 0.296517 0.250996
O23   O     O_R   0.225076 0.217441 0.261301 -0.393676
O24   O     O_R   0.277265 0.482920 0.242957 -0.317083
N3    N     N_R   0.344342 0.291325 0.121730 0.291999
O25   O     O_R   0.355089 0.472516 0.126069 -0.340880
O26   O     O_R   0.377166 0.184389 0.189962 -0.381900
N4    N     N_R   0.655732 0.791087 0.877894 0.291862
O27   O     O_R   0.644429 0.972011 0.873778 -0.341232
O28   O     O_R   0.623859 0.684151 0.808953 -0.380897

loop_
_geom_bond_atom_site_label_1
_geom_bond_atom_site_label_2
_geom_bond_distance
_ccdc_geom_bond_type
C44   C46   1.393749 A    
O14   V4    2.005347 S    
C2    C23   1.458351 S    
C46   H18   1.084787 S    
C52   H26   1.084072 S    
C31   C33   1.416995 A    
C20   H10   1.111872 S    
O1    C3    1.314400 A    
C51   H25   1.084071 S    
O2    C4    1.314360 A    
C54   H16   1.083455 S    
C2    O7    1.315217 A    
C24   C54   1.394534 A    
C25   C27   1.390895 A    
C41   H11   1.084297 S    
C22   C59   1.470666 S    
O20   V3    1.730773 S    
O5    C3    1.312805 A    
C17   H7    1.111141 S    
C52   C54   1.390639 A    
C18   H8    1.111141 S    
C7    C9    1.411212 A    
C35   C37   1.429950 A    
C30   Cl2   1.771423 S    
O15   V3    2.024927 S    
N2    O23   1.301586 A    
C38   C40   1.413927 A    
C39   C41   1.388819 A    
C40   C42   1.388864 A    
O11   C59   1.305593 A    
C17   C19   1.528821 S    
C19   N3    1.465483 S    
C28   H22   1.083730 S    
C30   C32   1.423797 A    
C43   C45   1.393766 A    
C33   C41   1.392908 A    
C48   C52   1.404163 A    
C50   C56   1.415293 A    
C26   H20   1.083963 S    
C47   C51   1.404164 A    
C14   C16   1.401209 A    
C18   C20   1.528846 S    
C22   C30   1.406145 A    
O5    V1    2.005587 S    
C57   O18   1.312592 A    
C47   C49   1.418530 A    
O6    V2    2.005647 S    
C11   C13   1.412805 A    
C42   H12   1.084281 S    
O13   C57   1.316289 A    
C36   C44   1.421853 A    
N3    O26   1.302693 A    
O15   C59   1.313824 A    
C32   C34   1.416961 A    
C3    C8    1.483024 S    
C45   H17   1.084787 S    
C37   C39   1.413946 A    
C15   C17   1.496312 S    
O12   C60   1.305590 A    
C53   H15   1.083436 S    
O4    C2    1.322357 A    
C27   H21   1.083724 S    
C24   C56   1.398848 A    
C31   C35   1.432018 A    
C21   C27   1.400088 A    
C14   C57   1.484360 S    
C58   O17   1.312610 A    
C17   H5    1.107919 S    
C40   H24   1.076935 S    
C29   C31   1.423794 A    
C21   C60   1.470632 S    
C16   C18   1.496268 S    
O4    V2    2.024792 S    
C20   N4    1.465534 S    
O13   V3    2.005286 S    
C56   H14   1.078164 S    
C55   H13   1.078152 S    
O6    C4    1.312848 A    
C34   C42   1.392928 A    
O1    V2    2.000753 S    
O2    V1    2.000721 S    
O12   V3    2.033912 S    
C44   N2    1.432656 S    
C8    C10   1.411249 A    
C12   C14   1.412796 A    
O14   C58   1.316290 A    
C9    H1    1.081652 S    
C5    C15   1.389319 A    
O19   V4    1.730787 S    
C10   H2    1.081649 S    
O16   V4    2.024849 S    
C6    C16   1.389254 A    
C51   C53   1.390653 A    
N4    O28   1.303035 A    
C49   C55   1.415304 A    
O3    V1    2.024870 S    
C25   C33   1.400730 A    
N1    O21   1.301581 A    
C32   C36   1.431987 A    
C22   C28   1.400102 A    
C26   C34   1.400745 A    
C9    C11   1.412956 A    
C29   Cl1   1.771424 S    
C13   C58   1.484390 S    
C18   H6    1.107930 S    
C43   N1    1.432693 S    
C35   C43   1.421915 A    
O3    C1    1.322347 A    
O11   V4    2.033867 S    
C48   C50   1.418541 A    
N3    O25   1.298769 A    
O20   V4    2.198334 S    
C11   H3    1.081925 S    
C1    C24   1.458322 S    
C12   H4    1.081919 S    
C23   C53   1.394541 A    
O17   V3    2.001130 S    
O7    V1    2.027086 S    
C1    O8    1.315214 A    
C13   C15   1.401290 A    
O8    V2    2.027046 S    
O18   V4    2.001162 S    
C21   C29   1.406151 A    
O19   V3    2.198313 S    
C6    C20   1.487651 S    
C4    C7    1.483008 S    
C26   C28   1.390922 A    
C5    C7    1.395624 A    
N2    O24   1.300202 A    
O16   C60   1.313809 A    
C6    C8    1.395651 A    
C19   H9    1.111871 S    
C46   C48   1.390856 A    
C10   C12   1.412981 A    
O9    V2    1.731584 S    
C38   C50   1.428908 A    
O10   V1    1.731571 S    
C23   C55   1.398820 A    
C5    C19   1.487616 S    
C45   C47   1.390874 A    
N4    O27   1.298997 A    
C36   C38   1.429923 A    
C39   H23   1.076943 S    
C37   C49   1.428892 A    
N1    O22   1.300252 A    
C25   H19   1.083968 S    
