data_str_m9_o16_o17_f0_sra.sym.40
_audit_creation_date              2012-12-11T15:07:34-0500
_audit_creation_method            fapswitch 2.2
_symmetry_space_group_name_H-M    P1
_symmetry_Int_Tables_number       1
_space_group_crystal_system       triclinic
_cell_length_a                    21.66413
_cell_length_b                    7.203218
_cell_length_c                    18.594592
_cell_angle_alpha                 89.51231
_cell_angle_beta                  95.97264
_cell_angle_gamma                 89.836878
_cell_volume                      2885.83681657

loop_
_atom_site_label
_atom_site_type_symbol
_atom_type_description
_atom_site_fract_x
_atom_site_fract_y
_atom_site_fract_z
_atom_type_partial_charge
O1    O     O_R   0.449650 0.506500 0.414480 -0.530353
O2    O     O_R   0.550350 0.006500 0.585520 -0.536167
O3    O     O_R   0.432010 0.173150 0.560250 -0.545565
O4    O     O_R   0.567990 0.673150 0.439750 -0.536483
C1    C     C_R   0.417985 0.343556 0.583456 0.682837
C2    C     C_R   0.581791 0.844456 0.416336 0.681071
O5    O     O_R   0.442320 0.176650 0.413480 -0.538753
O6    O     O_R   0.557680 0.676650 0.586520 -0.532466
O7    O     O_R   0.560730 0.008380 0.437700 -0.541814
O8    O     O_R   0.439270 0.508380 0.562300 -0.534192
C3    C     C_R   0.428377 0.346461 0.387697 0.673509
C4    C     C_R   0.571616 0.844256 0.612398 0.674666
O9    O     O_3   0.538840 0.339860 0.508120 -0.370666
O10   O     O_3   0.461160 0.839860 0.491880 -0.372395
V1    V     V_3+5 0.492800 0.064220 0.498490 1.395225
V2    V     V_3+5 0.507200 0.564220 0.501510 1.416663
C5    C     C_R   0.869495 0.005710 0.690837 -0.160516
C6    C     C_R   0.125647 0.397516 0.310739 -0.159532
H1    H     H_    0.957401 0.032931 0.754185 0.106343
H2    H     H_    0.037571 0.425813 0.247372 0.101906
H3    H     H_    0.787005 0.014556 0.575273 0.125084
H4    H     H_    0.206189 0.350555 0.426872 0.125673
H5    H     H_    0.888643 0.045684 0.641418 0.113080
H6    H     H_    0.104375 0.386439 0.360835 0.112879
C7    C     C_R   0.886078 0.946013 0.819713 -0.036391
C8    C     C_R   0.113111 0.434586 0.180560 -0.032651
C9    C     C_R   0.587324 0.794756 0.744017 -0.170070
C10   C     C_R   0.415719 0.383849 0.255481 -0.172815
C11   C     C_R   0.623777 0.785719 0.810039 -0.123805
C12   C     C_R   0.380426 0.405565 0.189158 -0.123651
C13   C     C_R   0.686991 0.825335 0.814584 -0.154167
C14   C     C_R   0.315857 0.409169 0.184845 -0.154373
C15   C     C_R   0.715769 0.875896 0.752433 0.077012
C16   C     C_R   0.284535 0.391943 0.247619 0.076952
C17   C     C_R   0.677605 0.888200 0.684679 0.070661
C18   C     C_R   0.321299 0.366580 0.315761 0.071419
C19   C     C_R   0.781073 0.913658 0.755226 0.072248
C20   C     C_R   0.218126 0.401763 0.245106 0.072738
C21   C     C_R   0.806116 0.964835 0.690231 0.139629
C22   C     C_R   0.190408 0.387232 0.310923 0.138855
C23   C     C_R   0.767890 0.975978 0.624878 -0.201764
C24   C     C_R   0.227295 0.362037 0.376665 -0.201269
C25   C     C_R   0.704824 0.937924 0.621995 -0.195626
C26   C     C_R   0.291569 0.351430 0.379145 -0.194412
C27   C     C_R   0.822658 0.903443 0.819940 -0.215025
C28   C     C_R   0.177956 0.425426 0.179866 -0.214249
C29   C     C_R   0.908868 0.997861 0.754983 -0.165729
C30   C     C_R   0.087450 0.420569 0.246200 -0.166683
C31   C     C_R   0.613043 0.847217 0.681056 -0.075730
C32   C     C_R   0.387267 0.360700 0.318999 -0.074316
H7    H     H_    0.807242 0.866291 0.871394 0.095158
H8    H     H_    0.195290 0.434678 0.127705 0.092357
H9    H     H_    0.538530 0.759944 0.741920 0.107892
H10   H     H_    0.465783 0.387244 0.257377 0.109002
H11   H     H_    0.712069 0.814315 0.867579 0.107649
H12   H     H_    0.291893 0.428227 0.131591 0.107842
H13   H     H_    0.602882 0.746010 0.858283 0.118720
H14   H     H_    0.403416 0.421940 0.140516 0.119267
H15   H     H_    0.677451 0.947914 0.569949 0.117605
H16   H     H_    0.317918 0.332389 0.431464 0.112128
C33   C     C_R   0.623486 0.995460 0.306136 0.103862
C34   C     C_R   0.367676 0.219636 0.693805 0.099397
C35   C     C_R   0.627605 0.856082 0.361622 -0.116966
C36   C     C_R   0.371003 0.353009 0.636865 -0.115453
C37   C     C_R   0.676582 0.726536 0.365160 -0.255403
C38   C     C_R   0.329882 0.505544 0.631954 -0.254887
C39   C     C_R   0.722912 0.738841 0.317929 0.090157
C40   C     C_R   0.284775 0.526132 0.680026 0.086661
C41   C     C_R   0.723651 0.891749 0.270135 0.014460
C42   C     C_R   0.276776 0.385145 0.731078 0.017281
C43   C     C_R   0.675312 0.024976 0.266094 0.083550
C44   C     C_R   0.316522 0.227870 0.736457 0.082871
C45   C     C_R   0.769262 0.601932 0.318548 -0.170341
C46   C     C_R   0.246972 0.685448 0.677260 -0.183323
C47   C     C_R   0.815767 0.615412 0.271865 -0.191178
C48   C     C_R   0.201582 0.705733 0.724970 -0.187559
C49   C     C_R   0.817803 0.768624 0.225031 0.089834
C50   C     C_R   0.192187 0.565349 0.775366 0.093264
C51   C     C_R   0.772188 0.908858 0.224898 0.062885
C52   C     C_R   0.229397 0.403378 0.777821 0.064640
C53   C     C_R   0.774698 0.065046 0.178967 0.096552
C54   C     C_R   0.219359 0.259920 0.827155 0.092852
C55   C     C_R   0.728950 0.202556 0.178640 -0.192450
C56   C     C_R   0.256473 0.100349 0.829768 -0.203941
C57   C     C_R   0.679767 0.182439 0.221028 -0.188718
C58   C     C_R   0.304430 0.084668 0.785502 -0.186126
C59   C     C_R   0.864400 0.783383 0.178031 -0.212798
C60   C     C_R   0.146015 0.583386 0.822948 -0.222219
C61   C     C_R   0.867113 0.938819 0.131821 -0.081844
C62   C     C_R   0.135256 0.438944 0.871545 -0.080829
C63   C     C_R   0.822515 0.080508 0.133620 -0.225891
C64   C     C_R   0.172182 0.277540 0.872927 -0.221018
H17   H     H_    0.678656 0.615153 0.404945 0.138723
H18   H     H_    0.333400 0.610922 0.590585 0.141079
H19   H     H_    0.769148 0.483035 0.354633 0.127433
H20   H     H_    0.252923 0.795579 0.638543 0.128201
H21   H     H_    0.850388 0.506325 0.272703 0.126685
H22   H     H_    0.173534 0.830898 0.722100 0.132700
H23   H     H_    0.898966 0.674254 0.177941 0.125133
H24   H     H_    0.117486 0.707602 0.820885 0.125037
H25   H     H_    0.823986 0.200575 0.098288 0.129369
H26   H     H_    0.164650 0.165643 0.910372 0.130765
H27   H     H_    0.730598 0.324960 0.144598 0.131888
H28   H     H_    0.248747 0.987413 0.866637 0.132541
H29   H     H_    0.645659 0.292687 0.218292 0.138956
H30   H     H_    0.331368 0.957928 0.790059 0.145496
O11   O     O_R   0.060820 0.290050 0.937800 -0.538734
O12   O     O_R   0.939180 0.790050 0.062200 -0.538943
O13   O     O_R   0.057690 0.616620 0.086540 -0.536296
O14   O     O_R   0.942310 0.116620 0.913460 -0.535588
C65   C     C_R   0.071471 0.447615 0.112562 0.682655
C66   C     C_R   0.928255 0.949530 0.887539 0.685542
O15   O     O_R   0.068010 0.619890 0.939770 -0.540649
O16   O     O_R   0.931990 0.119890 0.060230 -0.540615
O17   O     O_R   0.949640 0.787940 0.914460 -0.532741
O18   O     O_R   0.050360 0.287940 0.085540 -0.532951
C67   C     C_R   0.084531 0.451267 0.919403 0.697370
C68   C     C_R   0.916109 0.950889 0.081511 0.698087
O19   O     O_3   0.961210 0.453080 0.991940 -0.373257
O20   O     O_3   0.038790 0.953080 0.008060 -0.374328
V3    V     V_3+5 0.007200 0.728820 0.001500 1.409045
V4    V     V_3+5 0.992800 0.228820 0.998500 1.410929
C69   C     C_3   0.562019 0.093994 0.282773 -0.351237
C70   C     C_3   0.535836 0.035892 0.206603 -0.779057
H31   H     H_    0.565642 0.083339 0.165154 0.232371
H32   H     H_    0.531528 0.882344 0.204008 0.230937
H33   H     H_    0.489004 0.097299 0.193059 0.221090
H34   H     H_    0.525250 0.058653 0.317353 0.200324
H35   H     H_    0.567846 0.246760 0.285877 0.160828
C71   C     C_3   0.421311 0.084985 0.715409 -0.362164
C72   C     C_3   0.455345 0.135102 0.788961 -0.771418
H36   H     H_    0.473757 0.278705 0.787083 0.229723
H37   H     H_    0.424606 0.125353 0.832887 0.232712
H38   H     H_    0.494940 0.038520 0.802375 0.218820
H39   H     H_    0.404424 0.939690 0.715675 0.168616
H40   H     H_    0.457452 0.086873 0.677950 0.203150

loop_
_geom_bond_atom_site_label_1
_geom_bond_atom_site_label_2
_ccdc_geom_bond_type
C38   C40   A    
C35   C37   A    
O17   V3    S    
C9    C11   A    
C23   C25   A    
C34   C71   S    
C71   H39   S    
O1    C3    A    
O12   V3    S    
C72   H38   S    
O2    C4    A    
C2    O7    A    
C4    C31   S    
O3    V1    S    
C69   C70   S    
C21   C23   A    
O5    C3    A    
C5    H5    S    
C55   H27   S    
C6    H6    S    
C48   C50   A    
O13   C65   A    
H1    C29   S    
C27   H7    S    
C40   C46   A    
C28   H8    S    
C47   H21   S    
C54   C64   A    
C33   C35   A    
C5    C21   A    
C41   C43   A    
C6    C22   A    
C34   C36   A    
C7    C66   S    
C43   C57   A    
C10   C32   A    
C37   C39   A    
C17   C31   A    
C13   C15   A    
C65   O18   A    
C39   C45   A    
C61   C63   A    
C17   C25   A    
C7    C29   A    
C16   C18   A    
C25   H15   S    
C38   H18   S    
C33   C43   A    
C37   H17   S    
O6    V2    S    
C69   H35   S    
C45   C47   A    
C58   H30   S    
C24   C26   A    
C63   H25   S    
C57   H29   S    
C53   C55   A    
C59   H23   S    
C49   C51   A    
C42   C52   A    
C12   C14   A    
C62   C67   S    
O12   C68   A    
C8    C30   A    
C52   C54   A    
C51   C53   A    
C10   H10   S    
C72   H37   S    
C15   C19   A    
C1    C36   S    
C39   C41   A    
C36   C38   A    
C2    C35   S    
O4    V2    S    
C46   H20   S    
C62   C64   A    
O6    C4    A    
C34   C44   A    
O1    V2    S    
O16   C68   A    
C53   C63   A    
O2    V1    S    
C47   C49   A    
C60   H24   S    
C46   C48   A    
C70   H33   S    
H3    C23   S    
O4    C2    A    
C55   C57   A    
C11   H13   S    
C54   C56   A    
C59   C61   A    
C56   H28   S    
O15   C67   A    
C41   C51   A    
C45   H19   S    
C19   C27   A    
C72   H36   S    
C7    C27   A    
C18   C32   A    
O20   V3    S    
C70   H32   S    
O18   V4    S    
O19   V4    S    
C50   C60   A    
H2    C30   S    
C16   C20   A    
C71   H40   S    
C5    C29   A    
C60   C62   A    
C22   C24   A    
O3    C1    A    
C6    C30   A    
C44   C58   A    
C9    H9    S    
C64   H26   S    
C33   C69   S    
C10   C12   A    
C71   C72   S    
O7    V1    S    
C1    O8    A    
C19   C21   A    
C3    C32   S    
O8    V2    S    
O14   V4    S    
C20   C22   A    
O13   V3    S    
C69   H34   S    
H4    C24   S    
C26   H16   S    
C12   H14   S    
O5    V1    S    
C15   C17   A    
C14   H12   S    
C50   C52   A    
O14   C66   A    
C20   C28   A    
C18   C26   A    
C8    C28   A    
O16   V4    S    
O15   V3    S    
C61   C68   S    
C49   C59   A    
C11   C13   A    
O9    V2    S    
C40   C42   A    
O10   V1    S    
C56   C58   A    
C42   C44   A    
O11   V4    S    
C13   H11   S    
C48   H22   S    
C8    C65   S    
O11   C67   A    
C66   O17   A    
C9    C31   A    
C14   C16   A    
C70   H31   S    
