data_str_m12_o1_o4_f0_bcu.sym.27
_audit_creation_date              2012-12-11T15:39:25-0500
_audit_creation_method            fapswitch 2.2
_symmetry_space_group_name_H-M    P1
_symmetry_Int_Tables_number       1
_space_group_crystal_system       triclinic
_cell_length_a                    17.290432
_cell_length_b                    24.148071
_cell_length_c                    14.938794
_cell_angle_alpha                 90.446069
_cell_angle_beta                  125.419724
_cell_angle_gamma                 89.605415
_cell_volume                      5082.86104485

loop_
_atom_site_label
_atom_site_type_symbol
_atom_type_description
_atom_site_fract_x
_atom_site_fract_y
_atom_site_fract_z
_atom_type_partial_charge
C1    C     C_R   0.308889 0.377839 0.909309 -0.158022
C2    C     C_R   0.549533 0.497659 0.723803 -0.089580
C3    C     C_R   0.113291 0.813767 0.997855 0.124406
C4    C     C_3   0.436332 0.226091 0.793434 0.148380
C5    C     C_3   0.412841 0.164366 0.766239 -0.273544
C6    C     C_3   0.324163 0.148770 0.759290 -1.058081
C7    C     C_3   0.374005 0.314882 0.289146 0.146741
C8    C     C_3   0.361051 0.324152 0.381074 -0.248459
C9    C     C_3   0.437930 0.294365 0.486104 -1.016189
C10   C     C_3   0.936331 0.726092 0.793436 0.148373
C11   C     C_3   0.912847 0.664365 0.766262 -0.273550
C12   C     C_3   0.824161 0.648773 0.759298 -1.058072
C13   C     C_R   0.066340 0.998314 0.368509 -0.072768
C14   C     C_3   0.874006 0.814878 0.289146 0.146752
C15   C     C_3   0.861058 0.824153 0.381077 -0.248469
C16   C     C_3   0.937937 0.794365 0.486108 -1.016186
C17   C     C_3   0.279244 0.597126 0.190390 0.194783
C18   C     C_3   0.183191 0.591550 0.173839 -0.357256
C19   C     C_3   0.164710 0.531717 0.188585 -0.962704
C20   C     C_3   0.594996 0.730108 0.740437 0.136385
C21   C     C_3   0.534149 0.751380 0.622286 -0.237357
C22   C     C_3   0.568432 0.728610 0.555368 -1.048833
C23   C     C_3   0.779244 0.097126 0.190390 0.194786
C24   C     C_R   0.049534 0.997658 0.723804 -0.089581
C25   C     C_3   0.683190 0.091549 0.173837 -0.357257
C26   C     C_3   0.664708 0.031717 0.188582 -0.962705
C27   C     C_3   0.094997 0.230108 0.740436 0.136386
C28   C     C_3   0.034150 0.251380 0.622285 -0.237358
C29   C     C_3   0.068432 0.228610 0.555367 -1.048834
C30   C     C_3   0.645337 0.619855 0.350463 0.141136
C31   C     C_3   0.672941 0.674907 0.412664 -0.246363
C32   C     C_3   0.763091 0.698505 0.432389 -1.062390
C33   C     C_3   0.407079 0.613488 0.637501 0.154559
C34   C     C_3   0.342599 0.579832 0.531459 -0.284650
C35   C     C_R   0.197542 0.500408 0.632635 0.178401
C36   C     C_3   0.244927 0.606860 0.458396 -1.013256
C37   C     C_3   0.145327 0.119858 0.350454 0.141137
C38   C     C_3   0.172936 0.174906 0.412668 -0.246360
C39   C     C_3   0.263075 0.198511 0.432373 -1.062392
C40   C     C_3   0.907080 0.113488 0.637501 0.154560
C41   C     C_3   0.842600 0.079832 0.531459 -0.284650
C42   C     C_3   0.744928 0.106859 0.458395 -1.013257
C43   C     C_3   0.102406 0.362842 0.474714 -0.166065
C44   C     C_3   0.935760 0.428583 0.180348 -0.199967
C45   C     C_3   0.602406 0.862842 0.474716 -0.166065
C46   C     C_R   0.825274 0.501316 0.275767 0.172751
C47   C     C_3   0.435760 0.928582 0.180348 -0.199967
C48   C     C_R   0.697542 0.000407 0.632635 0.178400
C49   C     C_R   0.325274 0.001316 0.275767 0.172750
C50   C     C_R   0.065319 0.553083 0.481637 0.096185
C51   C     C_R   0.972740 0.554022 0.392204 0.113311
C52   C     C_R   0.565319 0.053083 0.481636 0.096186
C53   C     C_R   0.645596 0.346650 0.089808 -0.126008
C54   C     C_R   0.472741 0.054022 0.392203 0.113315
C55   C     C_R   0.116233 0.503450 0.517718 -0.187845
C56   C     C_R   0.927903 0.505238 0.334911 -0.217880
C57   C     C_R   0.616233 0.003449 0.517718 -0.187845
C58   C     C_R   0.427903 0.005238 0.334911 -0.217881
C59   C     C_R   0.080362 0.457254 0.445234 0.449171
C60   C     C_R   0.985314 0.459334 0.349391 0.411681
C61   C     C_R   0.580362 0.957253 0.445234 0.449172
C62   C     C_R   0.485314 0.959333 0.349391 0.411680
C63   C     C_3   0.946164 0.596303 0.444258 -0.470906
C64   C     C_R   0.808890 0.877838 0.909309 -0.158023
C65   C     C_3   0.048263 0.595471 0.542285 -0.462665
C66   C     C_3   0.446165 0.096304 0.444256 -0.470914
C67   C     C_3   0.548264 0.095472 0.542283 -0.462664
C68   C     C_R   0.152632 0.681997 0.899155 -0.372445
C69   C     C_R   0.700237 0.771798 0.094442 -0.412496
C70   C     C_R   0.652632 0.181997 0.899154 -0.372449
C71   C     C_R   0.200238 0.271798 0.094443 -0.412493
C72   C     C_R   0.598480 0.225137 0.897733 0.590932
C73   C     C_R   0.251534 0.318258 0.100758 0.580885
C74   C     C_R   0.098479 0.725137 0.897734 0.590933
C75   C     C_R   0.145595 0.846650 0.089808 -0.126007
C76   C     C_R   0.751534 0.818257 0.100759 0.580883
C77   C     C_R   0.633562 0.254392 0.996765 -0.123286
C78   C     C_R   0.236046 0.337782 0.002721 -0.051283
C79   C     C_R   0.133561 0.754391 0.996765 -0.123287
C80   C     C_R   0.736047 0.837781 0.002722 -0.051283
C81   C     C_R   0.401870 0.625677 0.091335 -0.159163
C82   C     C_R   0.555583 0.652036 0.908338 -0.091637
C83   C     C_R   0.901870 0.125677 0.091335 -0.159172
C84   C     C_R   0.055584 0.152036 0.908338 -0.091634
C85   C     C_R   0.699704 0.227677 0.096350 -0.354334
C86   C     C_R   0.310825 0.637314 0.999709 0.106753
C87   C     C_R   0.158213 0.318497 0.902143 -0.394736
C88   C     C_R   0.199704 0.727677 0.096350 -0.354334
C89   C     C_R   0.658213 0.818497 0.902143 -0.394736
C90   C     C_R   0.245101 0.679677 0.097390 0.581697
C91   C     C_R   0.617307 0.768248 0.896340 0.576356
C92   C     C_R   0.745101 0.179676 0.097389 0.581698
C93   C     C_R   0.117309 0.268247 0.896340 0.576356
C94   C     C_R   0.233562 0.663722 0.999035 -0.118540
C95   C     C_R   0.642445 0.742666 0.994912 -0.060897
C96   C     C_R   0.733562 0.163722 0.999034 -0.118538
C97   C     C_R   0.618582 0.684452 0.997583 0.106668
C98   C     C_R   0.142447 0.242666 0.994912 -0.060898
C99   C     C_R   0.622429 0.541376 0.640072 -0.169800
C100  C     C_R   0.626260 0.541841 0.550011 -0.180589
C101  C     C_R   0.122431 0.041374 0.640072 -0.169796
C102  C     C_R   0.126260 0.041839 0.550011 -0.180589
C103  C     C_R   0.597000 0.494896 0.481971 0.170488
C104  C     C_R   0.589595 0.493975 0.661281 0.176069
C105  C     C_R   0.096996 0.994895 0.481969 0.170493
C106  C     C_R   0.089593 0.993974 0.661280 0.176072
C107  C     C_R   0.583762 0.444740 0.517740 -0.174378
C108  C     C_R   0.810825 0.137314 0.999709 0.106757
C109  C     C_R   0.580735 0.444190 0.607472 -0.180355
C110  C     C_R   0.083752 0.944740 0.517734 -0.174386
C111  C     C_R   0.080728 0.944190 0.607468 -0.180358
C112  C     C_R   0.550618 0.453375 0.303133 -0.233781
C113  C     C_R   0.521305 0.452612 0.754447 -0.225074
C114  C     C_R   0.050617 0.953375 0.303132 -0.233784
C115  C     C_R   0.021306 0.952612 0.754448 -0.225076
C116  C     C_R   0.246140 0.545896 0.696857 -0.186964
C117  C     C_R   0.766698 0.546737 0.245721 -0.196307
C118  C     C_R   0.746140 0.045896 0.696857 -0.186964
C119  C     C_R   0.118584 0.184451 0.997583 0.106670
C120  C     C_R   0.266698 0.046737 0.245721 -0.196306
C121  C     C_R   0.550047 0.544646 0.305697 0.501695
C122  C     C_R   0.514435 0.544610 0.743903 0.537903
C123  C     C_R   0.050045 0.044645 0.305697 0.501693
C124  C     C_R   0.014436 0.044610 0.743904 0.537903
C125  C     C_R   0.244814 0.454255 0.695804 -0.131558
C126  C     C_R   0.769781 0.454254 0.250965 -0.113501
C127  C     C_R   0.744814 0.954255 0.695804 -0.131557
C128  C     C_R   0.269781 0.954254 0.250966 -0.113501
C129  C     C_R   0.309349 0.624131 0.907946 -0.114404
C130  C     C_R   0.566343 0.498315 0.368511 -0.072774
C131  C     C_R   0.648917 0.652597 0.089724 -0.162438
C132  C     C_R   0.809349 0.124130 0.907946 -0.114403
C133  C     C_R   0.148918 0.152597 0.089724 -0.162442
C134  C     C_R   0.401752 0.377443 0.092704 -0.120904
C135  C     C_R   0.554871 0.347190 0.907910 -0.149541
C136  C     C_R   0.901752 0.877442 0.092704 -0.120906
C137  C     C_R   0.054871 0.847190 0.907910 -0.149543
C138  C     C_R   0.310640 0.366192 0.002101 0.115333
C139  C     C_R   0.613292 0.313767 0.997855 0.124408
C140  C     C_R   0.810641 0.866192 0.002101 0.115334
H1    H     H_    0.250343 0.373399 0.824204 0.094291
H2    H     H_    0.085375 0.635142 0.553923 0.183797
H3    H     H_    0.595434 0.029115 0.177254 0.257783
H4    H     H_    0.721282 0.016857 0.272318 0.273200
H5    H     H_    0.098615 0.184270 0.739530 0.174145
H6    H     H_    0.169229 0.245193 0.781150 0.080029
H7    H     H_    0.959104 0.238966 0.581913 0.207478
H8    H     H_    0.036994 0.297353 0.623198 0.177623
H9    H     H_    0.142017 0.242614 0.591458 0.249673
H10   H     H_    0.021738 0.244043 0.469754 0.280259
H11   H     H_    0.066218 0.182609 0.553412 0.290129
H12   H     H_    0.627192 0.627482 0.267221 0.117802
H13   H     H_    0.397164 0.079980 0.463203 0.190014
H14   H     H_    0.707063 0.590895 0.396056 0.098580
H15   H     H_    0.614042 0.705205 0.365141 0.210325
H16   H     H_    0.685015 0.668662 0.493387 0.207726
H17   H     H_    0.823315 0.669350 0.481752 0.274706
H18   H     H_    0.780645 0.738096 0.478491 0.287702
H19   H     H_    0.752861 0.706478 0.353130 0.263146
H20   H     H_    0.404826 0.657407 0.614996 0.151408
H21   H     H_    0.379344 0.612901 0.688501 0.080806
H22   H     H_    0.375219 0.576936 0.485690 0.219070
H23   H     H_    0.333969 0.537242 0.552102 0.198945
H24   H     H_    0.585376 0.135142 0.553920 0.183796
H25   H     H_    0.215617 0.616619 0.505867 0.261779
H26   H     H_    0.195285 0.578214 0.390667 0.281009
H27   H     H_    0.250080 0.645902 0.423385 0.266967
H28   H     H_    0.127172 0.127491 0.267209 0.117807
H29   H     H_    0.207054 0.090898 0.396034 0.098576
H30   H     H_    0.114033 0.205204 0.365162 0.210332
H31   H     H_    0.185027 0.168654 0.493397 0.207724
H32   H     H_    0.323303 0.169356 0.481717 0.274700
H33   H     H_    0.280635 0.238098 0.478488 0.287702
H34   H     H_    0.252827 0.206493 0.353107 0.263147
H35   H     H_    0.133150 0.665221 0.821384 0.166434
H36   H     H_    0.904827 0.157406 0.614996 0.151408
H37   H     H_    0.879345 0.112901 0.688501 0.080806
H38   H     H_    0.875221 0.076936 0.485690 0.219070
H39   H     H_    0.833971 0.037242 0.552102 0.198944
H40   H     H_    0.715618 0.116619 0.505866 0.261779
H41   H     H_    0.695286 0.078213 0.390667 0.281009
H42   H     H_    0.750082 0.145901 0.423385 0.266967
H43   H     H_    0.060241 0.341208 0.394190 0.200839
H44   H     H_    0.059738 0.368694 0.508352 0.105088
H45   H     H_    0.162529 0.335060 0.531836 0.133178
H46   H     H_    0.709838 0.756992 0.168312 0.153629
H47   H     H_    0.004649 0.440617 0.195836 0.143669
H48   H     H_    0.882389 0.462208 0.136285 0.135899
H49   H     H_    0.909251 0.391720 0.125644 0.170363
H50   H     H_    0.560240 0.841207 0.394192 0.200839
H51   H     H_    0.559737 0.868694 0.508353 0.105088
H52   H     H_    0.662528 0.835059 0.531837 0.133178
H53   H     H_    0.504648 0.940615 0.195837 0.143669
H54   H     H_    0.382389 0.962207 0.136285 0.135899
H55   H     H_    0.409251 0.891718 0.125645 0.170363
H56   H     H_    0.633150 0.165221 0.821383 0.166432
H57   H     H_    0.209841 0.256992 0.168313 0.153624
H58   H     H_    0.719784 0.244710 0.174163 0.166280
H59   H     H_    0.136851 0.337639 0.825859 0.156385
H60   H     H_    0.219783 0.744710 0.174163 0.166280
H61   H     H_    0.682738 0.332795 0.173726 0.089651
H62   H     H_    0.636851 0.837639 0.825859 0.156386
H63   H     H_    0.637977 0.579092 0.687123 0.163876
H64   H     H_    0.645972 0.579843 0.531190 0.168533
H65   H     H_    0.137981 0.079090 0.687126 0.163873
H66   H     H_    0.145976 0.079841 0.531192 0.168529
H67   H     H_    0.564957 0.406842 0.470664 0.116252
H68   H     H_    0.560251 0.405831 0.624778 0.127790
H69   H     H_    0.064943 0.906842 0.470655 0.116258
H70   H     H_    0.060241 0.905831 0.624771 0.127793
H71   H     H_    0.429543 0.632696 0.175773 0.205329
H72   H     H_    0.750343 0.873398 0.824205 0.094291
H73   H     H_    0.503437 0.666216 0.826898 0.170201
H74   H     H_    0.929543 0.132696 0.175773 0.205329
H75   H     H_    0.003438 0.166216 0.826898 0.170201
H76   H     H_    0.571107 0.410966 0.329194 0.115123
H77   H     H_    0.534171 0.409461 0.749166 0.137078
H78   H     H_    0.071106 0.910965 0.329193 0.115125
H79   H     H_    0.034172 0.909460 0.749169 0.137078
H80   H     H_    0.237722 0.588148 0.669689 0.103723
H81   H     H_    0.785127 0.589620 0.249981 0.124264
H82   H     H_    0.737722 0.088148 0.669688 0.103723
H83   H     H_    0.182738 0.832795 0.173726 0.089650
H84   H     H_    0.285127 0.089620 0.249981 0.124265
H85   H     H_    0.234250 0.411759 0.668911 0.134014
H86   H     H_    0.792347 0.411493 0.263856 0.146260
H87   H     H_    0.734250 0.911759 0.668911 0.134015
H88   H     H_    0.292347 0.911493 0.263856 0.146261
H89   H     H_    0.250852 0.628302 0.822772 0.096289
H90   H     H_    0.688865 0.666980 0.173626 0.087505
H91   H     H_    0.750853 0.128302 0.822772 0.096288
H92   H     H_    0.188866 0.166979 0.173626 0.087508
H93   H     H_    0.430414 0.372819 0.177726 0.138795
H94   H     H_    0.924831 0.636579 0.400340 0.184369
H95   H     H_    0.508050 0.334774 0.823184 0.149624
H96   H     H_    0.930414 0.872819 0.177726 0.138800
H97   H     H_    0.008050 0.834774 0.823185 0.149622
H98   H     H_    0.375577 0.250701 0.726895 0.129102
H99   H     H_    0.443385 0.237201 0.870502 0.091103
H100  H     H_    0.401526 0.154813 0.686561 0.211321
H101  H     H_    0.472905 0.138681 0.830897 0.189631
H102  H     H_    0.334618 0.157167 0.838846 0.269801
H103  H     H_    0.309604 0.103964 0.740010 0.276797
H104  H     H_    0.262033 0.172663 0.693647 0.267424
H105  H     H_    0.057706 0.578890 0.617330 0.192245
H106  H     H_    0.446756 0.328433 0.320101 0.105828
H107  H     H_    0.371175 0.269800 0.270823 0.077146
H108  H     H_    0.364736 0.369237 0.398845 0.218324
H109  H     H_    0.290080 0.308959 0.354058 0.203704
H110  H     H_    0.435942 0.249124 0.470931 0.278636
H111  H     H_    0.426211 0.301511 0.550940 0.285545
H112  H     H_    0.509150 0.310473 0.516002 0.260535
H113  H     H_    0.875574 0.750697 0.726888 0.129113
H114  H     H_    0.943382 0.737210 0.870499 0.091102
H115  H     H_    0.901546 0.654803 0.686594 0.211320
H116  H     H_    0.424832 0.136579 0.400337 0.184368
H117  H     H_    0.972909 0.638685 0.830936 0.189625
H118  H     H_    0.834600 0.657183 0.838842 0.269798
H119  H     H_    0.809610 0.603965 0.740041 0.276799
H120  H     H_    0.762033 0.672659 0.693634 0.267426
H121  H     H_    0.946759 0.828425 0.320097 0.105824
H122  H     H_    0.871169 0.769796 0.270823 0.077142
H123  H     H_    0.864749 0.869238 0.398849 0.218323
H124  H     H_    0.790087 0.808962 0.354066 0.203707
H125  H     H_    0.935948 0.749124 0.470934 0.278637
H126  H     H_    0.926217 0.801511 0.550944 0.285544
H127  H     H_    0.557707 0.078892 0.617328 0.192245
H128  H     H_    0.009158 0.810473 0.516006 0.260536
H129  H     H_    0.334900 0.577260 0.269395 0.153450
H130  H     H_    0.278000 0.573777 0.125130 0.094660
H131  H     H_    0.182154 0.618631 0.233396 0.221324
H132  H     H_    0.125022 0.605138 0.089703 0.188200
H133  H     H_    0.162496 0.504476 0.126872 0.275118
H134  H     H_    0.095435 0.529115 0.177257 0.257783
H135  H     H_    0.221284 0.516858 0.272321 0.273200
H136  H     H_    0.598613 0.684270 0.739530 0.174145
H137  H     H_    0.669228 0.745193 0.781150 0.080031
H138  H     H_    0.897163 0.579979 0.463204 0.190015
H139  H     H_    0.459103 0.738966 0.581913 0.207478
H140  H     H_    0.536994 0.797353 0.623198 0.177623
H141  H     H_    0.642018 0.742613 0.591460 0.249673
H142  H     H_    0.521739 0.744043 0.469755 0.280261
H143  H     H_    0.566217 0.682609 0.553413 0.290128
H144  H     H_    0.834899 0.077259 0.269394 0.153451
H145  H     H_    0.777999 0.073777 0.125129 0.094661
H146  H     H_    0.682152 0.118630 0.233394 0.221324
H147  H     H_    0.625022 0.105138 0.089701 0.188202
H148  H     H_    0.662495 0.004476 0.126870 0.275118
N1    N     N_R   0.394180 0.396910 0.943210 -0.041614
N2    N     N_R   0.474350 0.471570 0.793850 -0.059826
N3    N     N_R   0.025650 0.971570 0.206150 -0.057905
N4    N     N_R   0.974350 0.971570 0.793850 -0.059826
N5    N     N_R   0.319480 0.528420 0.793810 -0.045686
N6    N     N_R   0.680520 0.528420 0.206190 -0.059508
N7    N     N_R   0.819480 0.028420 0.793810 -0.045686
N8    N     N_R   0.180520 0.028420 0.206190 -0.059507
N9    N     N_R   0.525640 0.528390 0.206120 -0.097702
N10   N     N_R   0.474360 0.528390 0.793880 -0.102444
N11   N     N_R   0.025640 0.028390 0.206120 -0.097703
N12   N     N_R   0.605820 0.396910 0.056790 -0.040883
N13   N     N_R   0.974360 0.028390 0.793880 -0.102444
N14   N     N_R   0.319490 0.471590 0.793840 -0.044101
N15   N     N_R   0.680510 0.471590 0.206160 -0.051928
N16   N     N_R   0.819490 0.971590 0.793840 -0.044101
N17   N     N_R   0.180510 0.971590 0.206160 -0.051928
N18   N     N_R   0.394130 0.603080 0.943110 -0.045047
N19   N     N_R   0.605870 0.603080 0.056890 -0.044313
N20   N     N_R   0.894130 0.103080 0.943110 -0.045046
N21   N     N_R   0.105870 0.103080 0.056890 -0.044313
N22   N     N_R   0.450990 0.396900 0.056840 -0.046737
N23   N     N_R   0.894180 0.896910 0.943210 -0.041614
N24   N     N_R   0.549010 0.396900 0.943160 -0.043131
N25   N     N_R   0.950990 0.896900 0.056840 -0.046737
N26   N     N_R   0.049010 0.896900 0.943160 -0.043131
N27   N     N_R   0.105820 0.896910 0.056790 -0.040883
N28   N     N_R   0.450950 0.603070 0.056740 -0.050839
N29   N     N_R   0.549050 0.603070 0.943260 -0.059947
N30   N     N_R   0.950950 0.103070 0.056740 -0.050841
N31   N     N_R   0.049050 0.103070 0.943260 -0.059947
N32   N     N_R   0.525650 0.471570 0.206150 -0.057905
Ni1   Ni    Ni4+2 0.434860 0.434850 0.869700 0.205979
Ni2   Ni    Ni4+2 0.565140 0.434850 0.130300 0.196381
Ni3   Ni    Ni4+2 0.934860 0.934850 0.869700 0.205979
Ni4   Ni    Ni4+2 0.065140 0.934850 0.130300 0.196381
Ni5   Ni    Ni4+2 0.565130 0.565140 0.130240 0.202121
Ni6   Ni    Ni4+2 0.434870 0.565140 0.869760 0.201573
Ni7   Ni    Ni4+2 0.065130 0.065140 0.130240 0.202118
Ni8   Ni    Ni4+2 0.934870 0.065140 0.869760 0.201573
O1    O     O_3   0.517614 0.240579 0.797478 -0.680658
O2    O     O_3   0.502926 0.595908 0.696966 -0.707806
O3    O     O_3   0.065958 0.098708 0.342806 -0.691471
O4    O     O_3   0.002928 0.095907 0.696967 -0.707804
O5    O     O_3   0.139909 0.412774 0.466205 -0.615084
O6    O     O_3   0.947174 0.414446 0.278734 -0.627233
O7    O     O_3   0.639908 0.912773 0.466205 -0.615084
O8    O     O_3   0.447174 0.914446 0.278735 -0.627233
O9    O     O_3   0.308301 0.348418 0.197678 -0.665764
O10   O     O_3   0.017613 0.740578 0.797478 -0.680656
O11   O     O_3   0.808305 0.848415 0.197679 -0.665767
O12   O     O_3   0.305990 0.653275 0.197083 -0.670569
O13   O     O_3   0.551726 0.745536 0.793839 -0.688048
O14   O     O_3   0.805989 0.153274 0.197082 -0.670569
O15   O     O_3   0.051727 0.245536 0.793839 -0.688048
O16   O     O_3   0.565961 0.598709 0.342806 -0.691472

loop_
_geom_bond_atom_site_label_1
_geom_bond_atom_site_label_2
_ccdc_geom_bond_type
N29   Ni6   S    
C105  C110  A    
C63   C65   S    
C55   C59   A    
C136  C140  A    
C3    C79   S    
C38   H31   S    
C45   O7    S    
C23   H144  S    
C135  C139  A    
C7    H106  S    
C4    O1    S    
C47   H55   S    
C7    O9    S    
C5    C6    S    
C49   C120  A    
N24   Ni1   S    
C25   H146  S    
C110  C111  A    
C67   H24   S    
C45   H51   S    
C126  N15   A    
C42   H40   S    
N7    Ni8   S    
C107  H67   S    
C81   C86   A    
C96   C108  S    
C59   C60   A    
C21   C22   S    
C126  H86   S    
C39   H34   S    
C37   H28   S    
C42   H41   S    
C116  N5    A    
C33   O2    S    
C97   C131  A    
C84   N31   A    
C17   H129  S    
C71   C73   A    
N26   N27   A    
C53   H61   S    
C46   C117  A    
C109  H68   S    
C33   H21   S    
C20   H136  S    
C92   O14   S    
C37   C38   S    
N12   N24   A    
C2    C104  S    
C27   H5    S    
C59   O5    S    
C1    N1    A    
C90   O12   S    
N6    N15   A    
C134  N22   A    
C131  H90   S    
C81   H71   S    
C74   C79   A    
C110  H69   S    
C43   O5    S    
C64   C140  A    
C28   H7    S    
C9    H111  S    
C53   C139  A    
C47   H53   S    
C123  N11   A    
C4    C5    S    
C69   C95   A    
C23   O14   S    
C66   H13   S    
N23   Ni3   S    
C95   C97   S    
C63   H138  S    
C57   C61   A    
C136  N25   A    
C48   C127  A    
C74   O10   S    
C84   C119  A    
C43   H43   S    
C4    H99   S    
N18   Ni6   S    
C103  C130  S    
C15   H123  S    
C29   H9    S    
C85   H58   S    
C30   H14   S    
C20   C21   S    
C115  N4    A    
C64   H72   S    
C103  C107  A    
C75   N27   A    
C78   C87   A    
N8    Ni7   S    
C118  H82   S    
C10   H113  S    
N12   Ni2   S    
N19   N29   A    
C121  C130  A    
C18   H132  S    
C31   H16   S    
N4    Ni3   S    
N1    Ni1   S    
C48   C57   S    
C11   H117  S    
C124  O4    S    
C21   H139  S    
C37   H29   S    
C38   C39   S    
C43   H45   S    
C68   C74   A    
C7    H107  S    
C92   C96   A    
C69   C76   A    
C35   C125  A    
C124  N13   A    
C14   H122  S    
C116  H80   S    
C3    C75   A    
C16   H125  S    
C33   H20   S    
C89   H62   S    
N6    Ni5   S    
C77   C85   A    
C120  H84   S    
N13   Ni8   S    
C137  H97   S    
C6    H104  S    
C114  H78   S    
N2    Ni1   S    
C85   C92   A    
C106  C111  A    
C120  N8    A    
N14   Ni1   S    
C22   H142  S    
C127  N16   A    
C40   H36   S    
C25   C26   S    
C68   C94   A    
N32   Ni2   S    
C70   C96   A    
N27   Ni4   S    
C29   H11   S    
C82   H73   S    
C81   N28   A    
C30   H12   S    
C31   C32   S    
C128  H88   S    
C17   C18   S    
N4    N13   A    
C102  H66   S    
C52   C67   S    
C66   H116  S    
N23   N25   A    
C24   C106  S    
C26   H3    S    
C132  H91   S    
C83   H74   S    
N9    Ni5   S    
C32   H17   S    
C101  C106  A    
C49   C128  A    
C131  N19   A    
C99   H63   S    
C41   H39   S    
C76   C80   A    
C34   H22   S    
C54   C66   S    
C112  N32   A    
C9    H110  S    
C133  H92   S    
C63   H94   S    
N3    Ni4   S    
C87   C93   A    
C76   O11   S    
C36   H25   S    
C34   C36   S    
C112  H76   S    
N16   Ni3   S    
C61   C62   A    
C50   C65   S    
C108  C132  A    
C10   C11   S    
C44   H47   S    
C91   C95   A    
C40   H37   S    
C45   H50   S    
C70   H56   S    
C46   C56   S    
C4    H98   S    
C14   C15   S    
C6    H102  S    
C53   N12   A    
C112  C130  A    
C64   N23   A    
C10   O10   S    
C58   C62   A    
C101  C102  A    
C41   C42   S    
N2    N10   A    
C87   H59   S    
C39   H33   S    
C122  O2    S    
C42   H42   S    
C28   C29   S    
C5    H100  S    
C30   C31   S    
C13   C123  A    
C19   H134  S    
N8    N17   A    
C83   C108  A    
C102  C105  A    
C18   C19   S    
C80   C89   A    
C121  N9    A    
C38   H30   S    
C3    C137  A    
C12   H119  S    
C13   C114  A    
C84   H75   S    
C32   H19   S    
C99   C104  A    
C127  H87   S    
C107  C109  A    
C132  N20   A    
C125  H85   S    
C133  N21   A    
C79   C88   A    
C68   H35   S    
C90   C94   A    
C2    C122  A    
C28   H8    S    
C7    C8    S    
C9    H112  S    
C51   C63   S    
C13   C105  S    
C137  N26   A    
C113  N2    A    
C80   C140  S    
C36   H27   S    
C56   C60   A    
C25   H147  S    
C26   H148  S    
C39   H32   S    
N20   Ni8   S    
C44   H49   S    
C129  N18   A    
C45   H52   S    
C123  O3    S    
C50   C51   A    
C35   C116  A    
C91   O13   S    
C60   O6    S    
C135  N24   A    
C88   C90   A    
C82   C97   A    
C135  H95   S    
N25   Ni4   S    
N21   Ni7   S    
C121  O16   S    
C65   H105  S    
N11   Ni7   S    
C128  N17   A    
C10   H114  S    
C77   C139  S    
C17   H130  S    
C31   H15   S    
N22   Ni2   S    
C83   N30   A    
C117  N6    A    
C88   H60   S    
C37   O3    S    
C100  H64   S    
C14   O11   S    
C27   H6    S    
C73   O9    S    
N30   Ni7   S    
C100  C103  A    
C111  H70   S    
C1    H1    S    
C52   C57   A    
C136  H96   S    
N26   Ni3   S    
C8    H108  S    
N19   Ni5   S    
C30   O16   S    
C69   H46   S    
C16   H126  S    
C40   O4    S    
N17   Ni4   S    
C47   H54   S    
C117  H81   S    
N10   Ni6   S    
C20   O13   S    
C98   C119  S    
C27   O15   S    
C114  N3    A    
C119  C133  A    
N28   Ni5   S    
C22   H143  S    
C104  C109  A    
C2    C113  A    
C15   C16   S    
C129  H89   S    
C43   H44   S    
C24   C124  A    
C51   C56   A    
C15   H124  S    
C86   C94   S    
C29   H10   S    
C19   H135  S    
C72   O1    S    
C73   C78   A    
N3    N11   A    
N15   Ni2   S    
C17   O12   S    
C44   O6    S    
C75   H83   S    
N5    Ni6   S    
C115  H79   S    
C12   H118  S    
C61   O7    S    
C26   H4    S    
C78   C138  S    
C113  H77   S    
C18   H131  S    
C52   C54   A    
C71   H57   S    
C32   H18   S    
C82   N29   A    
C71   C98   A    
C8    H109  S    
C35   C55   S    
C41   H38   S    
C20   H137  S    
C34   H23   S    
C21   H140  S    
C8    C9    S    
C48   C118  A    
C49   C58   S    
C122  N10   A    
C72   C77   A    
C14   H121  S    
C67   H127  S    
C99   C100  A    
C36   H26   S    
C33   C34   S    
C16   H128  S    
C101  H65   S    
C44   H48   S    
C125  N14   A    
C23   H145  S    
C62   O8    S    
C40   C41   S    
C6    H103  S    
C93   O15   S    
C54   C58   A    
N1    N22   A    
C46   C126  A    
C22   H141  S    
C134  C138  A    
C11   C12   S    
C86   C129  A    
C50   C55   A    
N18   N28   A    
N20   N30   A    
C65   H2    S    
N21   N31   A    
C19   H133  S    
C47   O8    S    
C134  H93   S    
C66   C67   S    
C11   H115  S    
C23   C25   S    
C118  N7    A    
N31   Ni8   S    
C24   C115  A    
C89   C91   A    
C27   C28   S    
C70   C72   A    
C12   H120  S    
N9    N32   A    
C5    H101  S    
N5    N14   A    
C93   C98   A    
C1    C138  A    
N7    N16   A    
