data_str_m2_o5_o8_f0_pcu.sym.168
_audit_creation_date              2012-12-10T19:12:19-0500
_audit_creation_method            fapswitch 2.2
_symmetry_space_group_name_H-M    P1
_symmetry_Int_Tables_number       1
_space_group_crystal_system       triclinic
_cell_length_a                    7.88555
_cell_length_b                    9.078729
_cell_length_c                    17.19466
_cell_angle_alpha                 89.615801
_cell_angle_beta                  93.21949
_cell_angle_gamma                 90.01658
_cell_volume                      1229.00850651

loop_
_atom_site_label
_atom_site_type_symbol
_atom_type_description
_atom_site_fract_x
_atom_site_fract_y
_atom_site_fract_z
_atom_type_partial_charge
C1    C     C_R   0.499967 0.220447 0.499990 0.840267
C2    C     C_R   0.500023 0.779551 0.499936 0.843211
C3    C     C_R   0.519415 0.504994 0.651511 0.810285
C4    C     C_R   0.480642 0.494426 0.348960 0.823297
C5    C     C_R   0.523344 0.500791 0.738604 -0.215983
C6    C     C_R   0.475749 0.475131 0.263098 -0.196322
C7    C     C_R   0.370421 0.496468 0.778285 -0.108651
C8    C     C_R   0.619725 0.418588 0.226531 -0.133326
C9    C     C_R   0.373566 0.458140 0.857799 -0.098555
C10   C     C_R   0.619779 0.416307 0.144627 -0.059400
C11   C     C_R   0.527339 0.415292 0.897495 0.154351
C12   C     C_R   0.474229 0.457893 0.099394 0.205203
C13   C     C_R   0.677630 0.418473 0.857348 0.250671
C14   C     C_R   0.322699 0.477109 0.136232 0.175372
C15   C     C_R   0.677548 0.484778 0.783332 0.172515
C16   C     C_R   0.324125 0.499750 0.216878 0.213945
C17   C     C_1   0.499970 0.065492 0.499944 -0.151758
C18   C     C_1   0.500013 0.934504 0.499927 -0.157432
Cu1   Cu    Cu3+1 0.669080 0.500010 0.500000 1.004760
Cu2   Cu    Cu3+1 0.330920 0.499990 0.500000 1.035884
N1    N     N_1   0.076820 0.499970 0.500010 -0.039917
N2    N     N_1   0.923180 0.500030 0.499990 -0.053669
N3    N     N_2   0.535355 0.381664 0.978759 -0.242994
N4    N     N_2   0.472189 0.481818 0.017316 -0.230942
O1    O     O_R   0.642760 0.288400 0.500000 -0.572054
O2    O     O_R   0.357240 0.711600 0.500000 -0.563906
O3    O     O_R   0.357190 0.288380 0.500000 -0.580882
O4    O     O_R   0.642810 0.711620 0.500000 -0.574511
O5    O     O_R   0.658410 0.498660 0.613920 -0.603035
O6    O     O_R   0.341590 0.501340 0.386080 -0.543003
O7    O     O_R   0.372840 0.498650 0.613930 -0.562166
O8    O     O_R   0.627160 0.501350 0.386070 -0.613843
C19   C     C_2   0.768538 0.356923 0.272513 0.437407
H1    H     H_    0.853216 0.428519 0.306670 0.085937
O9    O     O_2   0.796399 0.224690 0.272594 -0.496289
C20   C     C_2   0.205071 0.530801 0.738072 0.536224
H2    H     H_    0.105608 0.448569 0.737370 0.048873
O10   O     O_2   0.180387 0.650259 0.706349 -0.546226
C21   C     C_2   0.766168 0.359968 0.106272 0.423176
H3    H     H_    0.842627 0.435388 0.074225 0.067465
O11   O     O_2   0.793647 0.227668 0.106717 -0.510995
C22   C     C_2   0.214846 0.455592 0.898870 0.407869
H4    H     H_    0.186335 0.360442 0.933456 0.081319
O12   O     O_2   0.119155 0.561340 0.896255 -0.534169
N5    N     N_2   0.831109 0.357199 0.890705 -0.383095
H5    H     H_    0.836244 0.345509 0.950161 0.266989
C23   C     C_3   0.882580 0.223982 0.852563 -0.690799
H6    H     H_    0.000631 0.179715 0.882116 0.214305
H7    H     H_    0.907689 0.247088 0.790738 0.230684
H8    H     H_    0.782027 0.138525 0.855363 0.229164
N6    N     N_2   0.168807 0.439540 0.094996 -0.468060
H9    H     H_    0.143219 0.503247 0.046115 0.282765
C24   C     C_3   0.155811 0.281757 0.081626 -0.621329
H10   H     H_    0.051692 0.257394 0.037968 0.232223
H11   H     H_    0.132891 0.223731 0.137141 0.273277
H12   H     H_    0.272955 0.236475 0.057835 0.230902
N7    N     N_2   0.823277 0.567475 0.765075 -0.395516
H13   H     H_    0.853185 0.567948 0.707874 0.282612
C25   C     C_3   0.823969 0.715093 0.796649 -0.525100
H14   H     H_    0.717249 0.780445 0.769117 0.189552
H15   H     H_    0.944910 0.771254 0.784960 0.258426
H16   H     H_    0.812306 0.711467 0.860756 0.246569
N8    N     N_2   0.171963 0.544122 0.250976 -0.405694
H17   H     H_    0.063348 0.499376 0.224833 0.259574
C26   C     C_3   0.156409 0.701774 0.259942 -0.621246
H18   H     H_    0.040315 0.726562 0.291133 0.230819
H19   H     H_    0.146208 0.756745 0.201898 0.225412
H20   H     H_    0.267826 0.746533 0.294511 0.229557

loop_
_geom_bond_atom_site_label_1
_geom_bond_atom_site_label_2
_ccdc_geom_bond_type
C13   N5    S    
N3    N4    D    
N8    C26   S    
Cu2   O3    S    
C2    C18   S    
C9    C11   A    
C7    C20   S    
C12   N4    S    
C1    C17   S    
C23   H6    S    
C26   H19   S    
C13   C15   A    
C26   H18   S    
C26   H20   S    
C1    O3    A    
N1    N2    T    
C3    C5    S    
N5    C23   S    
C19   H1    S    
C9    C22   S    
C25   H14   S    
C23   H7    S    
Cu2   O6    S    
C24   H10   S    
C20   O10   D    
C3    O7    A    
Cu1   O4    S    
C15   N7    S    
N7    H13   S    
C4    O8    A    
C22   O12   D    
C6    C8    A    
Cu1   O8    S    
C10   C12   A    
C11   N3    S    
C20   H2    S    
C16   N8    S    
C12   C14   A    
C17   C18   T    
C23   H8    S    
C5    C7    A    
C8    C19   S    
C24   H11   S    
C14   N6    S    
Cu1   O1    S    
C14   C16   A    
C25   H15   S    
N7    C25   S    
C5    C15   A    
C22   H4    S    
C6    C16   A    
N8    H17   S    
Cu1   O5    S    
C7    C9    A    
C11   C13   A    
Cu1   N2    S    
N6    H9    S    
Cu2   N1    S    
C21   O11   D    
C2    O2    A    
C4    C6    S    
C24   H12   S    
C21   H3    S    
C3    O5    A    
C25   H16   S    
C2    O4    A    
C19   O9    D    
N5    H5    S    
C1    O1    A    
C8    C10   A    
C4    O6    A    
Cu1   Cu2   S    
Cu2   O2    S    
C10   C21   S    
N6    C24   S    
Cu2   O7    S    
