data_str_m4_o7_o7_f0_acs.sym.128
_audit_creation_date              2012-12-11T16:26:11-0500
_audit_creation_method            fapswitch 2.2
_symmetry_space_group_name_H-M    P1
_symmetry_Int_Tables_number       1
_space_group_crystal_system       triclinic
_cell_length_a                    14.006614
_cell_length_b                    14.006616
_cell_length_c                    31.943133
_cell_angle_alpha                 90.000015
_cell_angle_beta                  90.0
_cell_angle_gamma                 120.000237
_cell_volume                      5427.17076715

loop_
_atom_site_label
_atom_site_type_symbol
_atom_type_description
_atom_site_fract_x
_atom_site_fract_y
_atom_site_fract_z
_atom_type_partial_charge
C1    C     C_R   0.567832 0.443942 0.810559 0.540113
C2    C     C_R   0.876110 0.432168 0.689441 0.540112
C3    C     C_R   0.556058 0.123890 0.810559 0.540113
C4    C     C_R   0.567832 0.443942 0.689441 0.540113
C5    C     C_R   0.876110 0.432168 0.810559 0.540112
C6    C     C_R   0.556058 0.123890 0.689441 0.540113
C7    C     C_R   0.443942 0.567832 0.310559 0.540113
C8    C     C_R   0.432168 0.876110 0.189441 0.540112
C9    C     C_R   0.123890 0.556058 0.310559 0.540112
C10   C     C_R   0.443942 0.567832 0.189441 0.540113
C11   C     C_R   0.432168 0.876110 0.310559 0.540112
C12   C     C_R   0.123890 0.556057 0.189441 0.540112
C13   C     C_1   0.004274 0.514105 0.018685 -0.047174
C14   C     C_1   0.509829 0.995722 0.481316 -0.047174
C15   C     C_1   0.485895 0.490169 0.018685 -0.047175
C16   C     C_1   0.004276 0.514106 0.481315 -0.047174
C17   C     C_1   0.509830 0.995726 0.018685 -0.047174
C18   C     C_1   0.485894 0.490171 0.481315 -0.047175
C19   C     C_1   0.514106 0.004278 0.518684 -0.047174
C20   C     C_1   0.995718 0.509827 0.981316 -0.047175
C21   C     C_1   0.490171 0.485894 0.518684 -0.047175
C22   C     C_1   0.514108 0.004281 0.981316 -0.047175
C23   C     C_1   0.995721 0.509828 0.518684 -0.047175
C24   C     C_1   0.490172 0.485892 0.981316 -0.047175
C25   C     C_R   0.929906 0.469742 0.851678 0.003907
C26   C     C_R   0.539835 0.070093 0.648322 0.003907
C27   C     C_R   0.530259 0.460165 0.851678 0.003907
C28   C     C_R   0.929906 0.469742 0.648322 0.003907
C29   C     C_R   0.539835 0.070094 0.851678 0.003907
C30   C     C_R   0.530258 0.460165 0.648322 0.003907
C31   C     C_R   0.469742 0.929907 0.351678 0.003907
C32   C     C_R   0.070093 0.539834 0.148322 0.003907
C33   C     C_R   0.460165 0.530258 0.351678 0.003907
C34   C     C_R   0.469742 0.929907 0.148322 0.003907
C35   C     C_R   0.070093 0.539834 0.351678 0.003907
C36   C     C_R   0.460165 0.530258 0.148322 0.003907
C37   C     C_R   0.923194 0.553862 0.873196 -0.109165
C38   C     C_R   0.630666 0.076804 0.626804 -0.109165
C39   C     C_R   0.446137 0.369333 0.873196 -0.109165
C40   C     C_R   0.923196 0.553862 0.626804 -0.109165
C41   C     C_R   0.630667 0.076805 0.873196 -0.109165
C42   C     C_R   0.446137 0.369333 0.626804 -0.109166
C43   C     C_R   0.553863 0.923196 0.373196 -0.109165
C44   C     C_R   0.076803 0.630666 0.126804 -0.109165
C45   C     C_R   0.369333 0.446137 0.373196 -0.109166
C46   C     C_R   0.553862 0.923196 0.126804 -0.109166
C47   C     C_R   0.076804 0.630666 0.373196 -0.109165
C48   C     C_R   0.369333 0.446137 0.126804 -0.109166
C49   C     C_R   0.948675 0.572382 0.916147 0.015130
C50   C     C_R   0.623705 0.051322 0.583854 0.015130
C51   C     C_R   0.427617 0.376294 0.916147 0.015130
C52   C     C_R   0.948677 0.572382 0.583853 0.015130
C53   C     C_R   0.623706 0.051324 0.916147 0.015130
C54   C     C_R   0.427617 0.376295 0.583853 0.015130
C55   C     C_R   0.572383 0.948678 0.416147 0.015130
C56   C     C_R   0.051320 0.623704 0.083854 0.015130
C57   C     C_R   0.376295 0.427617 0.416147 0.015130
C58   C     C_R   0.572383 0.948678 0.083853 0.015130
C59   C     C_R   0.051321 0.623704 0.416146 0.015130
C60   C     C_R   0.376295 0.427616 0.083853 0.015130
C61   C     C_R   0.983165 0.505545 0.936756 0.040280
C62   C     C_R   0.522379 0.016832 0.563244 0.040280
C63   C     C_R   0.494454 0.477620 0.936756 0.040280
C64   C     C_R   0.983167 0.505546 0.563244 0.040280
C65   C     C_R   0.522379 0.016835 0.936756 0.040280
C66   C     C_R   0.494453 0.477621 0.563244 0.040280
C67   C     C_R   0.505547 0.983168 0.436756 0.040280
C68   C     C_R   0.016829 0.522377 0.063244 0.040280
C69   C     C_R   0.477621 0.494453 0.436756 0.040280
C70   C     C_R   0.505548 0.983170 0.063244 0.040280
C71   C     C_R   0.016831 0.522378 0.436756 0.040280
C72   C     C_R   0.477622 0.494452 0.063244 0.040280
C73   C     C_R   0.998754 0.428476 0.914558 -0.128884
C74   C     C_R   0.429720 0.001244 0.585443 -0.128884
C75   C     C_R   0.571526 0.570279 0.914558 -0.128883
C76   C     C_R   0.998754 0.428475 0.585443 -0.128884
C77   C     C_R   0.429720 0.001246 0.914558 -0.128884
C78   C     C_R   0.571524 0.570280 0.585443 -0.128884
C79   C     C_R   0.428476 0.998756 0.414557 -0.128884
C80   C     C_R   0.001241 0.429719 0.085443 -0.128884
C81   C     C_R   0.570280 0.571524 0.414557 -0.128884
C82   C     C_R   0.428479 0.998759 0.085443 -0.128884
C83   C     C_R   0.001243 0.429719 0.414557 -0.128884
C84   C     C_R   0.570281 0.571523 0.085443 -0.128884
C85   C     C_R   0.972476 0.410690 0.872256 -0.139999
C86   C     C_R   0.438212 0.027523 0.627744 -0.139999
C87   C     C_R   0.589312 0.561787 0.872256 -0.139998
C88   C     C_R   0.972476 0.410689 0.627744 -0.139999
C89   C     C_R   0.438212 0.027524 0.872256 -0.139999
C90   C     C_R   0.589311 0.561788 0.627744 -0.139999
C91   C     C_R   0.410690 0.972477 0.372256 -0.139999
C92   C     C_R   0.027521 0.438212 0.127744 -0.140000
C93   C     C_R   0.561788 0.589311 0.372256 -0.139999
C94   C     C_R   0.410692 0.972479 0.127745 -0.140000
C95   C     C_R   0.027522 0.438212 0.372256 -0.140000
C96   C     C_R   0.561788 0.589310 0.127744 -0.140000
Cr1   Cr    Cr6+3 0.504240 0.249200 0.750000 1.003575
Cr2   Cr    Cr6+3 0.744960 0.495760 0.750000 1.003575
Cr3   Cr    Cr6+3 0.750800 0.255040 0.750000 1.003575
Cr4   Cr    Cr6+3 0.249200 0.504240 0.250000 1.003575
Cr5   Cr    Cr6+3 0.495760 0.744960 0.250000 1.003575
Cr6   Cr    Cr6+3 0.255040 0.750800 0.250000 1.003575
H1    H     H_    0.891969 0.599951 0.856759 0.126943
H2    H     H_    0.707982 0.108029 0.643241 0.126942
H3    H     H_    0.400047 0.292018 0.856759 0.126942
H4    H     H_    0.891970 0.599952 0.643241 0.126942
H5    H     H_    0.707982 0.108030 0.856759 0.126942
H6    H     H_    0.400047 0.292017 0.643241 0.126942
H7    H     H_    0.599952 0.891970 0.356759 0.126942
H8    H     H_    0.108029 0.707982 0.143241 0.126943
H9    H     H_    0.292017 0.400047 0.356759 0.126942
H10   H     H_    0.599951 0.891969 0.143240 0.126943
H11   H     H_    0.108029 0.707982 0.356759 0.126942
H12   H     H_    0.292017 0.400047 0.143241 0.126942
H13   H     H_    0.973523 0.351845 0.069540 0.110795
H14   H     H_    0.378321 0.026474 0.430460 0.110795
H15   H     H_    0.648155 0.621678 0.069540 0.110795
H16   H     H_    0.973524 0.351845 0.430460 0.110795
H17   H     H_    0.378324 0.026479 0.069541 0.110795
H18   H     H_    0.648154 0.621680 0.430460 0.110795
H19   H     H_    0.351846 0.973526 0.569540 0.110795
H20   H     H_    0.026472 0.378321 0.930460 0.110795
H21   H     H_    0.621680 0.648154 0.569540 0.110795
H22   H     H_    0.351847 0.973528 0.930460 0.110795
H23   H     H_    0.026472 0.378320 0.569540 0.110794
H24   H     H_    0.621682 0.648153 0.930461 0.110793
O1    O     O_R   0.480350 0.140770 0.796330 -0.519706
O2    O     O_R   0.660420 0.519650 0.703670 -0.519706
O3    O     O_R   0.859230 0.339580 0.796330 -0.519706
O4    O     O_R   0.480350 0.140770 0.703670 -0.519706
O5    O     O_R   0.660420 0.519650 0.796330 -0.519707
O6    O     O_R   0.859230 0.339580 0.703670 -0.519706
O7    O     O_R   0.140770 0.480350 0.296330 -0.519706
O8    O     O_R   0.519650 0.660420 0.203670 -0.519706
O9    O     O_R   0.339580 0.859230 0.296330 -0.519706
O10   O     O_R   0.140770 0.480350 0.203670 -0.519706
O11   O     O_R   0.519650 0.660420 0.296330 -0.519706
O12   O     O_R   0.339580 0.859230 0.203670 -0.519706
O13   O     O_R   0.514930 0.348530 0.793250 -0.502391
O14   O     O_R   0.833600 0.485070 0.706750 -0.502392
O15   O     O_R   0.651470 0.166400 0.793250 -0.502391
O16   O     O_R   0.514930 0.348530 0.706750 -0.502391
O17   O     O_R   0.833600 0.485070 0.793250 -0.502392
O18   O     O_R   0.651470 0.166400 0.706750 -0.502391
O19   O     O_R   0.348530 0.514930 0.293250 -0.502391
O20   O     O_R   0.485070 0.833600 0.206750 -0.502391
O21   O     O_R   0.166400 0.651470 0.293250 -0.502391
O22   O     O_R   0.348530 0.514930 0.206750 -0.502391
O23   O     O_R   0.485070 0.833600 0.293250 -0.502392
O24   O     O_R   0.166400 0.651470 0.206750 -0.502391
O25   O     O_3   0.666667 0.333333 0.750000 -0.224402
O26   O     O_3   0.333333 0.666667 0.250000 -0.224403
C97   C     C_3   0.064798 0.722359 0.058687 -0.251701
C98   C     C_3   0.100759 0.828844 0.083574 -0.308317
C99   C     C_3   0.114167 0.922001 0.054952 -0.469212
H25   H     H_    0.178892 0.940232 0.031174 0.145997
H26   H     H_    0.035371 0.899141 0.038829 0.147949
H27   H     H_    0.139304 0.997451 0.073835 0.143554
H28   H     H_    0.038123 0.814360 0.107887 0.156495
H29   H     H_    0.181302 0.855315 0.098886 0.164791
H30   H     H_    0.126718 0.740219 0.033650 0.150738
H31   H     H_    0.984655 0.698561 0.043334 0.140643
C100  C     C_3   0.657560 0.935200 0.441314 -0.251700
C101  C     C_3   0.728087 0.899244 0.416426 -0.308317
C102  C     C_3   0.807836 0.885837 0.445048 -0.469210
H32   H     H_    0.863771 0.964634 0.461172 0.147950
H33   H     H_    0.761343 0.821110 0.468826 0.145996
H34   H     H_    0.858153 0.860705 0.426165 0.143554
H35   H     H_    0.674017 0.818701 0.401114 0.164789
H36   H     H_    0.776239 0.961882 0.392114 0.156496
H37   H     H_    0.713904 0.015343 0.456667 0.140643
H38   H     H_    0.613499 0.873278 0.466350 0.150738
C103  C     C_3   0.277640 0.342439 0.058686 -0.251700
C104  C     C_3   0.171155 0.271913 0.083574 -0.308317
C105  C     C_3   0.077999 0.192163 0.054951 -0.469210
H39   H     H_    0.059768 0.238657 0.031173 0.145997
H40   H     H_    0.100860 0.136227 0.038829 0.147951
H41   H     H_    0.002549 0.141849 0.073834 0.143555
H42   H     H_    0.185640 0.223761 0.107887 0.156495
H43   H     H_    0.144684 0.325984 0.098886 0.164789
H44   H     H_    0.259780 0.386498 0.033650 0.150738
H45   H     H_    0.301438 0.286093 0.043333 0.140643
C106  C     C_3   0.064799 0.722359 0.441314 -0.251700
C107  C     C_3   0.100757 0.828843 0.416426 -0.308317
C108  C     C_3   0.114164 0.922000 0.445048 -0.469211
H46   H     H_    0.035367 0.899137 0.461172 0.147951
H47   H     H_    0.178891 0.940233 0.468826 0.145996
H48   H     H_    0.139297 0.997449 0.426165 0.143554
H49   H     H_    0.181299 0.855315 0.401114 0.164789
H50   H     H_    0.038119 0.814357 0.392113 0.156496
H51   H     H_    0.984656 0.698560 0.456667 0.140643
H52   H     H_    0.126720 0.740220 0.466350 0.150738
C109  C     C_3   0.657559 0.935200 0.058686 -0.251700
C110  C     C_3   0.728085 0.899242 0.083574 -0.308318
C111  C     C_3   0.807834 0.885834 0.054951 -0.469210
H53   H     H_    0.761339 0.821106 0.031174 0.145997
H54   H     H_    0.863768 0.964630 0.038827 0.147950
H55   H     H_    0.858151 0.860702 0.073834 0.143554
H56   H     H_    0.776238 0.961880 0.107886 0.156496
H57   H     H_    0.674014 0.818699 0.098886 0.164790
H58   H     H_    0.613498 0.873278 0.033650 0.150738
H59   H     H_    0.713904 0.015343 0.043333 0.140643
C112  C     C_3   0.277640 0.342440 0.441314 -0.251700
C113  C     C_3   0.171155 0.271914 0.416426 -0.308317
C114  C     C_3   0.077999 0.192164 0.445049 -0.469210
H60   H     H_    0.100860 0.136228 0.461171 0.147950
H61   H     H_    0.059767 0.238658 0.468826 0.145996
H62   H     H_    0.002549 0.141850 0.426166 0.143555
H63   H     H_    0.144684 0.325985 0.401114 0.164790
H64   H     H_    0.185640 0.223762 0.392113 0.156496
H65   H     H_    0.301438 0.286095 0.456667 0.140642
H66   H     H_    0.259779 0.386499 0.466350 0.150738
C115  C     C_3   0.722360 0.064800 0.558686 -0.251700
C116  C     C_3   0.828843 0.100754 0.583575 -0.308318
C117  C     C_3   0.921999 0.114161 0.554952 -0.469212
H67   H     H_    0.899136 0.035366 0.538828 0.147950
H68   H     H_    0.940235 0.178890 0.531176 0.145996
H69   H     H_    0.997447 0.139291 0.573835 0.143555
H70   H     H_    0.855316 0.181297 0.598887 0.164788
H71   H     H_    0.814355 0.038115 0.607886 0.156496
H72   H     H_    0.698560 0.984657 0.543332 0.140643
H73   H     H_    0.740222 0.126722 0.533650 0.150739
C118  C     C_3   0.935196 0.657558 0.941314 -0.251698
C119  C     C_3   0.899251 0.728092 0.916425 -0.308316
C120  C     C_3   0.885845 0.807843 0.945048 -0.469210
H74   H     H_    0.821106 0.761349 0.968821 0.145996
H75   H     H_    0.964637 0.863766 0.961176 0.147951
H76   H     H_    0.860729 0.858171 0.926163 0.143556
H77   H     H_    0.961895 0.776244 0.892115 0.156496
H78   H     H_    0.818710 0.674028 0.901111 0.164785
H79   H     H_    0.873268 0.613496 0.966348 0.150739
H80   H     H_    0.015336 0.713897 0.956670 0.140643
C121  C     C_3   0.342440 0.277640 0.558686 -0.251700
C122  C     C_3   0.271913 0.171155 0.583574 -0.308318
C123  C     C_3   0.192164 0.077999 0.554951 -0.469211
H81   H     H_    0.136229 0.100860 0.538828 0.147951
H82   H     H_    0.238658 0.059767 0.531174 0.145996
H83   H     H_    0.141849 0.002549 0.573834 0.143555
H84   H     H_    0.325984 0.144684 0.598886 0.164789
H85   H     H_    0.223761 0.185641 0.607886 0.156496
H86   H     H_    0.286095 0.301438 0.543333 0.140643
H87   H     H_    0.386500 0.259779 0.533650 0.150739
C124  C     C_3   0.722360 0.064803 0.941314 -0.251700
C125  C     C_3   0.828844 0.100757 0.916426 -0.308317
C126  C     C_3   0.922000 0.114166 0.945049 -0.469214
H88   H     H_    0.940237 0.178896 0.968824 0.145997
H89   H     H_    0.899137 0.035372 0.961174 0.147951
H90   H     H_    0.997447 0.139293 0.926165 0.143555
H91   H     H_    0.814356 0.038117 0.892114 0.156496
H92   H     H_    0.855316 0.181298 0.901113 0.164789
H93   H     H_    0.740224 0.126727 0.966350 0.150739
H94   H     H_    0.698562 0.984661 0.956668 0.140643
C127  C     C_3   0.935199 0.657559 0.558686 -0.251700
C128  C     C_3   0.899244 0.728087 0.583574 -0.308317
C129  C     C_3   0.885837 0.807837 0.554952 -0.469210
H95   H     H_    0.964633 0.863770 0.538828 0.147950
H96   H     H_    0.821109 0.761343 0.531175 0.145996
H97   H     H_    0.860706 0.858154 0.573835 0.143555
H98   H     H_    0.818702 0.674017 0.598887 0.164789
H99   H     H_    0.961883 0.776239 0.607886 0.156495
H100  H     H_    0.015342 0.713903 0.543332 0.140643
H101  H     H_    0.873277 0.613499 0.533650 0.150739
C130  C     C_3   0.342440 0.277639 0.941314 -0.251700
C131  C     C_3   0.271912 0.171155 0.916426 -0.308318
C132  C     C_3   0.192162 0.077999 0.945048 -0.469211
H102  H     H_    0.238656 0.059766 0.968825 0.145996
H103  H     H_    0.136228 0.100861 0.961172 0.147951
H104  H     H_    0.141846 0.002550 0.926165 0.143556
H105  H     H_    0.223760 0.185642 0.892114 0.156496
H106  H     H_    0.325982 0.144683 0.901113 0.164789
H107  H     H_    0.386499 0.259777 0.966350 0.150738
H108  H     H_    0.286096 0.301438 0.956667 0.140643
H109  H     H_    0.020233 0.366676 0.143732 0.124828
H110  H     H_    0.346443 0.979766 0.356269 0.124828
H111  H     H_    0.633324 0.653557 0.143732 0.124828
H112  H     H_    0.020234 0.366677 0.356268 0.124828
H113  H     H_    0.346446 0.979769 0.143732 0.124828
H114  H     H_    0.633323 0.653558 0.356268 0.124828
H115  H     H_    0.366677 0.020234 0.643731 0.124828
H116  H     H_    0.979766 0.346444 0.856269 0.124828
H117  H     H_    0.653558 0.633323 0.643732 0.124828
H118  H     H_    0.366677 0.020235 0.856269 0.124827
H119  H     H_    0.979765 0.346442 0.643731 0.124828
H120  H     H_    0.653559 0.633323 0.856269 0.124827

loop_
_geom_bond_atom_site_label_1
_geom_bond_atom_site_label_2
_ccdc_geom_bond_type
C127  H101  S    
C68   C80   A    
C44   H8    S    
C39   C51   A    
C112  C113  S    
C129  H96   S    
C80   C92   A    
C131  H105  S    
C82   C94   A    
C46   H10   S    
C21   C66   S    
C99   H26   S    
C18   C21   T    
C123  H82   S    
C22   C65   S    
C101  H36   S    
C100  C101  S    
C3    O15   A    
C6    O4    A    
C35   C47   A    
C106  H52   S    
C108  H47   S    
C29   C89   A    
C108  H46   S    
C106  H51   S    
C130  C131  S    
C105  H40   S    
C32   C92   A    
C103  C104  S    
C125  C126  S    
C15   C72   S    
C81   H18   S    
C45   C57   A    
C89   H118  S    
C102  H32   S    
C31   C43   A    
Cr3   O6    S    
C83   H16   S    
C40   H4    S    
C101  C102  S    
C109  H59   S    
Cr1   O4    S    
C11   O9    A    
C116  H70   S    
C117  H68   S    
Cr6   O12   S    
C127  C128  S    
Cr2   O17   S    
C3    O1    A    
C5    O17   A    
C60   C72   A    
C19   C62   S    
C127  H100  S    
C124  C125  S    
C111  H54   S    
C120  H76   S    
C109  H58   S    
C107  C108  S    
C8    O12   A    
C84   C96   A    
Cr5   O23   S    
C20   C61   S    
C3    C29   S    
C44   C56   A    
Cr6   O9    S    
C30   C90   A    
C38   H2    S    
C25   C37   A    
C104  C105  S    
C115  H72   S    
C15   C24   T    
C11   O23   A    
C110  H57   S    
C118  C119  S    
C27   C39   A    
C131  C132  S    
C113  H63   S    
C28   C88   A    
C2    O6    A    
C123  H81   S    
C77   H22   S    
C34   C46   A    
C128  H99   S    
C53   C65   A    
C132  H102  S    
C76   C88   A    
C79   C91   A    
C1    O13   A    
Cr1   O1    S    
C111  H55   S    
C18   C69   S    
C5    O3    A    
C110  C111  S    
C129  H97   S    
C11   C31   S    
C17   C70   S    
C102  H33   S    
C79   H14   S    
C46   C58   A    
C90   H117  S    
C60   C103  S    
C7    C33   S    
C112  H65   S    
C101  H35   S    
C16   C71   S    
C82   H17   S    
C130  H107  S    
C118  H79   S    
C48   C60   A    
C105  H41   S    
C71   C83   A    
Cr2   O25   S    
C114  H61   S    
C64   C76   A    
C66   C78   A    
C8    O20   A    
Cr5   O20   S    
C124  H93   S    
C125  H91   S    
Cr3   O3    S    
C9    C35   S    
Cr5   O8    S    
C12   O24   A    
Cr3   O18   S    
C67   C79   A    
C52   C64   A    
C117  H69   S    
C7    O11   A    
Cr5   O11   S    
C116  C117  S    
C58   C70   A    
C108  H48   S    
C8    C34   S    
C26   C86   A    
C119  C120  S    
C61   C73   A    
C56   C68   A    
C51   C130  S    
C9    O21   A    
C78   C90   A    
C95   H112  S    
Cr2   O14   S    
C116  H71   S    
Cr2   O5    S    
C59   C106  S    
C52   C127  S    
C106  C107  S    
C98   H29   S    
C33   C45   A    
C100  H38   S    
C119  H78   S    
Cr6   O21   S    
C65   C77   A    
C37   C49   A    
C115  H73   S    
C36   C96   A    
C55   C67   A    
C110  H56   S    
C80   H13   S    
C115  C116  S    
Cr4   O19   S    
C14   C67   S    
C62   C74   A    
C83   C95   A    
C57   C112  S    
C25   C85   A    
C120  H74   S    
Cr1   O25   S    
C85   H116  S    
C51   C63   A    
Cr4   O26   S    
C122  H85   S    
C86   H115  S    
C74   C86   A    
C27   C87   A    
C78   H21   S    
C132  H103  S    
C41   C53   A    
C98   C99   S    
C72   C84   A    
C125  H92   S    
Cr6   O24   S    
C5    C25   S    
C49   C118  S    
C43   C55   A    
C23   C64   S    
C34   C94   A    
C103  H45   S    
C109  C110  S    
C16   C23   T    
C31   C91   A    
C126  H89   S    
Cr4   O7    S    
C50   C62   A    
C123  H83   S    
C107  H50   S    
C112  H66   S    
C93   H114  S    
C122  C123  S    
C6    O18   A    
C129  H95   S    
C88   H119  S    
C104  H43   S    
C100  H37   S    
C118  H80   S    
C63   C75   A    
C48   H12   S    
Cr6   O26   S    
C73   C85   A    
C114  H62   S    
C121  H86   S    
C47   H11   S    
C114  H60   S    
C130  H108  S    
C4    O2    A    
C131  H106  S    
C124  H94   S    
C41   H5    S    
C13   C20   T    
C29   C41   A    
C81   C93   A    
C77   C89   A    
C76   H23   S    
C14   C19   T    
Cr3   O15   S    
C91   H110  S    
C26   C38   A    
C53   C124  S    
C56   C97   S    
C1    O5    A    
C33   C93   A    
C39   H3    S    
C37   H1    S    
C45   H9    S    
C102  H34   S    
C54   C66   A    
C35   C95   A    
C24   C63   S    
C58   C109  S    
C17   C22   T    
C50   C115  S    
C38   C50   A    
C97   H31   S    
C75   H24   S    
C2    O14   A    
C128  C129  S    
C74   H19   S    
C97   C98   S    
C55   C100  S    
C98   H28   S    
C105  H39   S    
C40   C52   A    
C119  H77   S    
C42   C54   A    
C94   H113  S    
C4    O16   A    
C49   C61   A    
C87   H120  S    
C6    C26   S    
Cr3   O25   S    
C128  H98   S    
Cr4   O22   S    
C99   H27   S    
Cr2   O2    S    
C120  H75   S    
Cr5   O26   S    
C10   C36   S    
C36   C48   A    
C122  H84   S    
C103  H44   S    
C117  H67   S    
C70   C82   A    
C132  H104  S    
C4    C30   S    
Cr1   O16   S    
C69   C81   A    
C84   H15   S    
C47   C59   A    
C111  H53   S    
C121  H87   S    
C10   O8    A    
C59   C71   A    
C113  C114  S    
C32   C44   A    
C73   H20   S    
C12   O10   A    
C126  H90   S    
C113  H64   S    
C99   H25   S    
C1    C27   S    
C96   H111  S    
C28   C40   A    
C107  H49   S    
C30   C42   A    
C2    C28   S    
C43   H7    S    
C54   C121  S    
C57   C69   A    
C92   H109  S    
C126  H88   S    
C42   H6    S    
C104  H42   S    
Cr1   O13   S    
C97   H30   S    
C12   C32   S    
C75   C87   A    
Cr4   O10   S    
C121  C122  S    
C10   O22   A    
C7    O19   A    
C13   C68   S    
C9    O7    A    
