data_str_m3_o40_o40_f0_fof.sym.60
_audit_creation_date              2012-12-10T16:37:26-0500
_audit_creation_method            fapswitch 2.2
_symmetry_space_group_name_H-M    P1
_symmetry_Int_Tables_number       1
_space_group_crystal_system       triclinic
_cell_length_a                    16.837679
_cell_length_b                    16.827111
_cell_length_c                    16.822732
_cell_angle_alpha                 65.796741
_cell_angle_beta                  65.964387
_cell_angle_gamma                 65.9829
_cell_volume                      3802.04984362

loop_
_atom_site_label
_atom_site_type_symbol
_atom_type_description
_atom_site_fract_x
_atom_site_fract_y
_atom_site_fract_z
_atom_type_partial_charge
C1    C     C_R   0.396072 0.077099 0.652717 -0.216420
C2    C     C_R   0.461711 0.700008 0.920660 -0.210304
C3    C     C_R   0.949134 0.600010 0.331264 -0.225411
C4    C     C_R   0.921522 0.461645 0.699360 -0.211506
C5    C     C_R   0.961196 0.179804 0.438041 0.936055
C6    C     C_R   0.037931 0.820532 0.561615 0.958577
C7    C     C_R   0.179642 0.438411 0.960794 0.961902
C8    C     C_R   0.820554 0.561826 0.037291 0.898798
C9    C     C_R   0.438261 0.962277 0.179536 0.960982
C10   C     C_R   0.561720 0.039113 0.820274 0.913711
C11   C     C_R   0.568948 0.823475 0.021308 0.963424
C12   C     C_R   0.592406 0.968491 0.333915 -0.220759
C13   C     C_R   0.438179 0.179344 0.961206 0.937373
C14   C     C_R   0.021351 0.569017 0.823426 0.961745
C15   C     C_R   0.960310 0.438499 0.179415 0.920671
C16   C     C_R   0.820738 0.038653 0.561796 0.930508
C17   C     C_R   0.176557 0.978583 0.431052 0.962845
C18   C     C_R   0.443187 0.081350 0.701904 -0.144074
C19   C     C_R   0.550251 0.944394 0.294566 -0.132149
C20   C     C_R   0.054979 0.706389 0.449059 -0.129562
C21   C     C_R   0.919956 0.297379 0.557025 -0.148159
C22   C     C_R   0.706372 0.449809 0.053462 -0.149686
C23   C     C_R   0.030493 0.667254 0.406983 -0.219335
C24   C     C_R   0.297911 0.557367 0.918159 -0.134572
C25   C     C_R   0.259043 0.062320 0.492265 -0.151677
C26   C     C_R   0.709423 0.069842 0.443932 -0.135858
C27   C     C_R   0.556037 0.291250 0.928407 -0.130268
C28   C     C_R   0.507586 0.741759 0.936871 -0.153683
C29   C     C_R   0.928638 0.556803 0.290413 -0.129476
C30   C     C_R   0.937448 0.507645 0.741179 -0.151784
C31   C     C_R   0.534826 0.052584 0.530655 0.041716
C32   C     C_R   0.447636 0.018230 0.440697 0.041317
C33   C     C_R   0.981324 0.559740 0.552146 0.041428
C34   C     C_R   0.923915 0.346711 0.604108 -0.215908
C35   C     C_R   0.946775 0.469744 0.465133 0.041026
C36   C     C_R   0.559897 0.552922 0.979895 0.041675
C37   C     C_R   0.469638 0.465845 0.945764 0.041923
C38   C     C_R   0.582660 0.035098 0.445414 0.045525
C39   C     C_R   0.395940 0.051893 0.517025 0.044931
C40   C     C_R   0.947893 0.483083 0.604092 0.044634
C41   C     C_R   0.963984 0.555285 0.417045 0.044440
C42   C     C_R   0.483266 0.604784 0.946578 0.045502
C43   C     C_R   0.555145 0.418038 0.962670 0.045144
C44   C     C_R   0.541743 0.008043 0.405695 0.042759
C45   C     C_R   0.667181 0.407902 0.028901 -0.224222
C46   C     C_R   0.441074 0.060577 0.567286 0.043222
C47   C     C_R   0.432941 0.559637 0.937979 0.043109
C48   C     C_R   0.595119 0.458812 0.989607 0.042739
C49   C     C_R   0.939423 0.432724 0.558979 0.045376
C50   C     C_R   0.991163 0.595082 0.457861 0.042454
C51   C     C_R   0.537827 0.068712 0.668617 0.002328
C52   C     C_R   0.455244 0.962117 0.322664 0.005385
C53   C     C_R   0.037755 0.677786 0.544263 0.004464
C54   C     C_R   0.931439 0.331300 0.462333 -0.012051
C55   C     C_R   0.677989 0.544911 0.036272 0.006001
C56   C     C_R   0.347290 0.604608 0.921941 -0.212850
C57   C     C_R   0.331251 0.462625 0.930726 0.005313
C58   C     C_R   0.309956 0.012224 0.428505 -0.001934
C59   C     C_R   0.672320 0.064522 0.537418 0.002738
C60   C     C_R   0.462534 0.328199 0.934371 0.004005
C61   C     C_R   0.571671 0.690476 0.986799 -0.004241
C62   C     C_R   0.933433 0.463376 0.327965 0.022381
C63   C     C_R   0.987626 0.571591 0.689985 -0.002392
C64   C     C_R   0.590088 0.065311 0.720021 -0.192702
C65   C     C_R   0.408421 0.947214 0.277854 -0.182810
C66   C     C_R   0.053173 0.722240 0.591113 -0.180101
C67   C     C_R   0.300897 0.078275 0.538217 -0.211704
C68   C     C_R   0.934069 0.280245 0.410198 -0.174626
C69   C     C_R   0.722513 0.591600 0.051789 -0.175872
C70   C     C_R   0.279755 0.410169 0.934573 -0.203556
C71   C     C_R   0.270376 0.977618 0.393292 -0.215978
C72   C     C_R   0.721429 0.064267 0.589800 -0.200762
C73   C     C_R   0.410025 0.278857 0.935329 -0.200704
C74   C     C_R   0.606815 0.729723 0.021842 -0.218230
C75   C     C_R   0.932085 0.411428 0.279368 -0.260594
C76   C     C_R   0.022478 0.606728 0.729449 -0.218795
C77   C     C_R   0.676858 0.074969 0.676195 0.329166
C78   C     C_R   0.668277 0.049809 0.400705 -0.225057
C79   C     C_R   0.322047 0.939974 0.321961 0.329561
C80   C     C_R   0.060726 0.677781 0.677454 0.328224
C81   C     C_R   0.919129 0.325387 0.325429 0.352145
C82   C     C_R   0.678277 0.677805 0.059429 0.330736
C83   C     C_R   0.323472 0.323324 0.925078 0.331111
C84   C     C_R   0.581477 0.062397 0.578891 0.069422
C85   C     C_R   0.404560 0.996353 0.398136 0.074522
C86   C     C_R   0.003410 0.602189 0.595171 0.074084
C87   C     C_R   0.936621 0.421538 0.418695 0.072285
C88   C     C_R   0.602395 0.595819 0.002093 0.073858
C89   C     C_R   0.599668 0.332509 0.947796 -0.227025
C90   C     C_R   0.421148 0.419087 0.936462 0.070900
H1    H     H_    0.324461 0.084170 0.684686 0.141325
H2    H     H_    0.411873 0.743838 0.884350 0.141068
H3    H     H_    0.948132 0.670448 0.296926 0.139784
H4    H     H_    0.884983 0.411896 0.743090 0.139603
H5    H     H_    0.402662 0.098863 0.764386 0.188139
H6    H     H_    0.593574 0.909121 0.243812 0.177473
H7    H     H_    0.090143 0.757412 0.405495 0.179478
H8    H     H_    0.903104 0.234452 0.597822 0.186755
H9    H     H_    0.757112 0.406112 0.088847 0.166707
H10   H     H_    0.235167 0.597894 0.901127 0.185161
H11   H     H_    0.186373 0.091621 0.507197 0.176720
H12   H     H_    0.665634 0.952080 0.309713 0.141396
H13   H     H_    0.769396 0.091522 0.401323 0.185004
H14   H     H_    0.598253 0.231255 0.906812 0.185211
H15   H     H_    0.492265 0.814662 0.907969 0.176393
H16   H     H_    0.906994 0.599279 0.230249 0.181722
H17   H     H_    0.908215 0.492497 0.814028 0.176854
H18   H     H_    0.752610 0.035123 0.752355 0.350921
H19   H     H_    0.249654 0.947251 0.254942 0.353289
H20   H     H_    0.054699 0.744409 0.749521 0.351186
H21   H     H_    0.854076 0.329220 0.251458 0.330306
H22   H     H_    0.745067 0.750041 0.052888 0.350952
H23   H     H_    0.046499 0.691903 0.333616 0.143657
H24   H     H_    0.247453 0.247239 0.965759 0.353088
H25   H     H_    0.917500 0.314429 0.675778 0.138471
H26   H     H_    0.691619 0.334585 0.044964 0.141851
H27   H     H_    0.315297 0.676266 0.914962 0.140423
H28   H     H_    0.257320 0.114838 0.587731 0.141648
H29   H     H_    0.702284 0.051027 0.330269 0.139901
H30   H     H_    0.670148 0.298624 0.946120 0.137690
O1    O     O_R   0.982940 0.138950 0.510160 -0.673304
O2    O     O_R   0.982940 0.510160 0.138950 -0.636194
O3    O     O_R   0.861050 0.017060 0.489840 -0.646849
O4    O     O_R   0.138950 0.982940 0.510160 -0.639621
O5    O     O_R   0.867700 0.025880 0.612340 -0.612748
O6    O     O_R   0.132300 0.974120 0.387660 -0.619541
O7    O     O_R   0.025880 0.612340 0.867700 -0.623991
O8    O     O_R   0.974120 0.387660 0.132300 -0.598659
O9    O     O_R   0.612340 0.867700 0.025880 -0.622042
O10   O     O_R   0.387660 0.132300 0.974120 -0.609081
O11   O     O_R   0.387660 0.974120 0.132300 -0.605112
O12   O     O_R   0.017060 0.861050 0.489840 -0.643201
O13   O     O_R   0.612340 0.025880 0.867700 -0.615145
O14   O     O_R   0.132300 0.387660 0.974120 -0.592135
O15   O     O_R   0.867700 0.612340 0.025880 -0.621302
O16   O     O_R   0.974120 0.132300 0.387660 -0.564626
O17   O     O_R   0.025880 0.867700 0.612340 -0.608817
O18   O     O_3   0.718714 0.094603 0.718442 -0.738132
O19   O     O_3   0.288304 0.897862 0.292859 -0.729479
O20   O     O_3   0.103528 0.706417 0.710911 -0.731080
O21   O     O_3   0.895939 0.282292 0.287160 -0.738438
O22   O     O_3   0.707258 0.711128 0.102038 -0.741266
O23   O     O_R   0.138950 0.510160 0.982940 -0.642215
O24   O     O_3   0.280966 0.281262 0.906037 -0.727230
O25   O     O_R   0.861050 0.489840 0.017060 -0.665817
O26   O     O_R   0.510160 0.982940 0.138950 -0.641481
O27   O     O_R   0.489840 0.017060 0.861050 -0.661050
O28   O     O_R   0.489840 0.861050 0.017060 -0.637421
O29   O     O_R   0.510160 0.138950 0.982940 -0.644725
O30   O     O_R   0.017060 0.489840 0.861050 -0.636539
Zn1   Zn    Zn3+2 0.004880 0.004880 0.583590 0.944008
Zn2   Zn    Zn3+2 0.995120 0.995120 0.416410 0.967805
Zn3   Zn    Zn3+2 0.004880 0.583590 0.004880 0.937382
Zn4   Zn    Zn3+2 0.995120 0.416410 0.995120 0.962450
Zn5   Zn    Zn3+2 0.583590 0.004880 0.004880 0.942166
Zn6   Zn    Zn3+2 0.416410 0.995120 0.995120 0.953910

loop_
_geom_bond_atom_site_label_1
_geom_bond_atom_site_label_2
_ccdc_geom_bond_type
C5    O16   A    
C79   O19   S    
C65   C79   A    
C15   O2    A    
C30   H17   S    
C64   C77   A    
C60   C73   A    
C36   C42   A    
C8    O25   A    
C16   C72   S    
C10   O13   A    
C82   O22   S    
O7    Zn3   S    
C7    C70   S    
C7    O23   A    
C54   C87   A    
C36   C88   A    
C38   C44   A    
C8    C69   S    
C26   C78   A    
C37   C90   A    
C68   C81   A    
O11   Zn6   S    
C16   O3    A    
C27   C60   A    
C83   O24   S    
C17   O6    A    
O23   Zn3   S    
C54   C68   A    
C63   C76   A    
C40   C49   A    
C5    O1    A    
C27   H14   S    
C56   H27   S    
C32   C39   A    
H22   O22   S    
C55   C88   A    
C3    C29   A    
C69   C82   A    
O5    Zn1   S    
C29   C62   A    
O6    Zn2   S    
C19   C52   A    
C3    C41   A    
C20   H7    S    
C4    C40   A    
C24   C57   A    
C31   C46   A    
C25   C67   A    
C35   C49   A    
C13   O10   A    
C89   H30   S    
C36   C48   A    
C53   C86   A    
C57   C70   A    
C37   C47   A    
C43   C48   A    
O8    Zn4   S    
C10   O27   A    
C28   C61   A    
C81   O21   S    
C1    H1    S    
C24   H10   S    
C30   C63   A    
C8    O15   A    
C18   H5    S    
C35   C87   A    
C74   C82   A    
C5    C68   S    
C35   C41   A    
C11   O9    A    
C71   C79   A    
O16   Zn2   S    
C18   C51   A    
C9    O11   A    
C32   C44   A    
C33   C40   A    
C57   C90   A    
O26   Zn5   S    
C59   C84   A    
C7    O14   A    
C6    O12   A    
O9    Zn5   S    
C75   C81   A    
C23   C50   A    
C21   C34   A    
C38   C78   A    
C34   H25   S    
C80   O20   S    
C14   O7    A    
O1    Zn1   S    
H24   O24   S    
C37   C43   A    
C33   C86   A    
C12   H12   S    
C72   C77   A    
C70   C83   A    
C61   C88   A    
C26   H13   S    
C23   H23   S    
C17   O4    A    
C20   C23   A    
C28   H15   S    
C14   O30   A    
C1    C18   A    
C3    H3    S    
C43   C89   A    
C9    O26   A    
C77   O18   S    
C2    H2    S    
O27   Zn6   S    
C55   C69   A    
C39   C46   A    
C4    H4    S    
O25   Zn4   S    
O4    Zn1   S    
C13   C73   S    
C17   C71   S    
C15   O8    A    
C63   C86   A    
O12   Zn2   S    
O2    Zn3   S    
C29   H16   S    
C25   C58   A    
C62   C75   A    
C58   C85   A    
C41   C50   A    
C15   C75   S    
C16   O5    A    
C45   C48   A    
O3    Zn2   S    
C52   C85   A    
C34   C49   A    
C22   H9    S    
O13   Zn5   S    
C39   C67   A    
C10   C64   S    
C51   C64   A    
C76   C80   A    
C20   C53   A    
C11   C74   S    
C11   O28   A    
O10   Zn6   S    
C22   C55   A    
C60   C90   A    
C61   C74   A    
C24   C56   A    
C66   C80   A    
C62   C87   A    
C59   C72   A    
O15   Zn3   S    
C31   C38   A    
C21   C54   A    
H19   O19   S    
C6    O17   A    
H20   O20   S    
C78   H29   S    
C33   C50   A    
C13   O29   A    
C12   C44   A    
C53   C66   A    
H18   O18   S    
C21   H8    S    
C31   C84   A    
C45   H26   S    
C25   H11   S    
O14   Zn4   S    
C2    C42   A    
C32   C85   A    
C12   C19   A    
C27   C89   A    
C42   C47   A    
O29   Zn5   S    
C1    C46   A    
C67   H28   S    
C9    C65   S    
C58   C71   A    
H21   O21   S    
C19   H6    S    
C6    C66   S    
C22   C45   A    
O30   Zn4   S    
O17   Zn1   S    
C26   C59   A    
C2    C28   A    
O28   Zn6   S    
C51   C84   A    
C73   C83   A    
C4    C30   A    
C52   C65   A    
C14   C76   S    
C47   C56   A    
