data_str_m2_o10_o16_f0_pcu.sym.170
_audit_creation_date              2012-12-10T16:44:16-0500
_audit_creation_method            fapswitch 2.2
_symmetry_space_group_name_H-M    P1
_symmetry_Int_Tables_number       1
_space_group_crystal_system       triclinic
_cell_length_a                    7.419543
_cell_length_b                    8.727627
_cell_length_c                    13.400497
_cell_angle_alpha                 94.057557
_cell_angle_beta                  77.185971
_cell_angle_gamma                 103.157865
_cell_volume                      823.736171948

loop_
_atom_site_label
_atom_site_type_symbol
_atom_type_description
_atom_site_fract_x
_atom_site_fract_y
_atom_site_fract_z
_atom_type_partial_charge
C1    C     C_R   0.548551 0.799904 0.498113 0.752307
C2    C     C_R   0.416525 0.503489 0.976428 0.078454
C3    C     C_R   0.462682 0.550010 0.872873 0.036284
C4    C     C_R   0.558886 0.541877 0.035664 0.079153
C5    C     C_R   0.737608 0.639133 0.994422 0.153635
C6    C     C_R   0.771993 0.699144 0.896824 -0.252594
C7    C     C_R   0.635997 0.657391 0.837598 -0.197250
C8    C     C_R   0.529014 0.486526 0.135018 -0.248598
C9    C     C_R   0.840886 0.629092 0.153121 -0.201616
C10   C     C_R   0.333352 0.489695 0.807806 -0.115465
C11   C     C_2   0.582634 0.967682 0.487840 0.234002
C12   C     C_R   0.398304 0.495664 0.694859 0.797024
C13   C     C_2   0.432771 0.032498 0.496558 -0.406777
C14   C     C_R   0.455846 0.199917 0.496034 0.916562
C15   C     C_R   0.602076 0.511015 0.305770 0.789289
C16   C     C_R   0.878262 0.679159 0.052594 -0.180534
C17   C     C_R   0.663654 0.536344 0.195413 -0.053244
C18   C     C_R   0.147617 0.407845 0.851421 0.142562
C19   C     C_R   0.096677 0.379634 0.956046 -0.187069
C20   C     C_R   0.228924 0.423191 0.017306 -0.219706
Cu1   Cu    Cu3+1 0.321300 0.483160 0.488710 0.969642
Cu2   Cu    Cu3+1 0.678700 0.516840 0.511290 0.969005
H1    H     H_    0.946680 0.668683 0.198952 0.156462
H2    H     H_    0.289091 0.961744 0.507548 0.132100
H3    H     H_    0.010694 0.616841 0.579627 0.223958
H4    H     H_    0.989306 0.383222 0.420361 0.249159
H5    H     H_    0.904819 0.779018 0.865988 0.144600
H6    H     H_    0.015065 0.753255 0.021341 0.142124
H7    H     H_    0.399649 0.406636 0.168798 0.145540
H8    H     H_    0.177543 0.395983 0.097138 0.143217
H9    H     H_    0.953814 0.319003 0.989834 0.152531
H10   H     H_    0.667371 0.714178 0.764794 0.167297
N1    N     N_2   0.947230 0.542220 0.528320 -0.210949
N2    N     N_2   0.052770 0.457780 0.471680 -0.196355
O1    O     O_R   0.383920 0.714220 0.492660 -0.604824
O2    O     O_R   0.685730 0.742660 0.511730 -0.599619
O3    O     O_R   0.275440 0.478800 0.636790 -0.544940
O4    O     O_R   0.577250 0.507240 0.655860 -0.588449
O5    O     O_R   0.314270 0.257340 0.488270 -0.586331
O6    O     O_R   0.616080 0.285780 0.507340 -0.509581
O7    O     O_R   0.422750 0.492760 0.344140 -0.584956
O8    O     O_R   0.724560 0.521200 0.363210 -0.594964
N3    N     N_3   0.010729 0.349179 0.789648 -0.552591
H11   H     H_    0.967983 0.227182 0.797758 0.212581
H12   H     H_    0.892376 0.397668 0.818039 0.232272
O9    O     O_3   0.766057 0.058609 0.467721 -0.715534
H13   H     H_    0.858787 0.990115 0.454071 0.332188

loop_
_geom_bond_atom_site_label_1
_geom_bond_atom_site_label_2
_ccdc_geom_bond_type
C16   H6    S    
C2    C4    A    
N3    H11   S    
C6    C7    A    
Cu1   O1    S    
C11   C13   D    
C15   O8    A    
C8    C17   A    
Cu1   O5    S    
C6    H5    S    
C4    C8    A    
Cu2   O6    S    
C2    C3    A    
C19   H9    S    
C3    C10   A    
C20   H8    S    
C13   C14   S    
N3    H12   S    
C15   O7    A    
Cu2   O8    S    
C10   C12   S    
C10   C18   A    
Cu1   O7    S    
C8    H7    S    
C9    C17   A    
C9    C16   A    
H4    N2    S    
N1    N2    D    
C3    C7    A    
C12   O4    A    
C5    C6    A    
C13   H2    S    
C14   O6    A    
Cu2   O4    S    
Cu1   O3    S    
C1    O1    A    
C18   C19   A    
C18   N3    S    
C12   O3    A    
C15   C17   S    
Cu2   N1    S    
O9    H13   S    
C9    H1    S    
C11   O9    S    
C7    H10   S    
C14   O5    A    
Cu1   Cu2   S    
C2    C20   A    
Cu1   N2    S    
Cu2   O2    S    
C19   C20   A    
C1    O2    A    
H3    N1    S    
C4    C5    A    
C5    C16   A    
C1    C11   S    
