data_str_m3_o14_o19_f0_pcu.sym.61
_audit_creation_date              2012-12-10T17:45:34-0500
_audit_creation_method            fapswitch 2.2
_symmetry_space_group_name_H-M    P1
_symmetry_Int_Tables_number       1
_space_group_crystal_system       triclinic
_cell_length_a                    11.507966
_cell_length_b                    10.612151
_cell_length_c                    10.020588
_cell_angle_alpha                 90.953089
_cell_angle_beta                  88.341236
_cell_angle_gamma                 91.970684
_cell_volume                      1222.3709263

loop_
_atom_site_label
_atom_site_type_symbol
_atom_type_description
_atom_site_fract_x
_atom_site_fract_y
_atom_site_fract_z
_atom_type_partial_charge
C1    C     C_R   0.497849 0.261089 0.499367 0.885121
C2    C     C_R   0.497742 0.871736 0.503794 -0.172317
C3    C     C_R   0.310449 0.380156 0.137117 -0.050937
C4    C     C_R   0.282330 0.499344 0.501545 0.891880
C5    C     C_R   0.205034 0.367911 0.068753 -0.024517
C6    C     C_R   0.211930 0.356299 0.929987 -0.211803
C7    C     C_R   0.317702 0.379743 0.863609 -0.189494
C8    C     C_R   0.409519 0.441768 0.929317 0.160828
C9    C     C_R   0.407665 0.442529 0.072694 0.019800
C10   C     C_R   0.589100 0.556198 0.067705 0.134181
C11   C     C_R   0.586751 0.555975 0.924846 -0.090275
C12   C     C_R   0.184863 0.052578 0.604852 -0.097448
C13   C     C_R   0.500278 0.738944 0.501028 0.830391
C14   C     C_R   0.717673 0.500308 0.498430 0.885657
C15   C     C_1   0.161686 0.499964 0.504114 -0.185544
C16   C     C_1   0.059394 0.500619 0.502247 -0.011680
C17   C     C_1   0.940720 0.500969 0.497885 0.011433
C18   C     C_1   0.838392 0.500816 0.495899 -0.173613
C19   C     C_R   0.285859 0.122492 0.570993 -0.108612
C20   C     C_2   0.715201 0.879705 0.451174 0.380139
C21   C     C_3   0.694402 0.614401 0.136496 -0.356387
C22   C     C_3   0.778315 0.697220 0.050019 -0.467754
C23   C     C_R   0.185977 0.921536 0.604201 -0.120153
C24   C     C_3   0.874849 0.757995 0.132992 -0.769074
C25   C     C_2   0.333151 0.269225 0.217347 0.467412
C26   C     C_2   0.092134 0.346748 0.141514 0.475479
C27   C     C_R   0.288276 0.860265 0.570456 -0.160437
C28   C     C_R   0.391919 0.929938 0.536818 0.092740
C29   C     C_R   0.390147 0.061636 0.536054 0.100954
C30   C     C_R   0.493119 0.128597 0.498793 -0.139035
C31   C     C_R   0.596762 0.070192 0.468349 -0.178725
C32   C     C_R   0.601428 0.940781 0.473342 -0.024817
H1    H     H_    0.674618 0.126811 0.443921 0.188475
H2    H     H_    0.837722 0.825103 0.207089 0.288006
H3    H     H_    0.922204 0.684917 0.185541 0.260843
H4    H     H_    0.937534 0.810786 0.066646 0.257982
H5    H     H_    0.820568 0.638377 0.970973 0.241995
H6    H     H_    0.729946 0.772955 0.002984 0.240044
H7    H     H_    0.663553 0.673638 0.221352 0.239399
H8    H     H_    0.745862 0.535926 0.172298 0.239665
H9    H     H_    0.412157 0.218233 0.197552 0.084401
H10   H     H_    0.087052 0.356015 0.249398 0.110448
H11   H     H_    0.137534 0.323502 0.873670 0.197164
H12   H     H_    0.326141 0.348022 0.762425 0.200760
H13   H     H_    0.655686 0.600155 0.865377 0.150253
H14   H     H_    0.281055 0.224000 0.570376 0.130833
H15   H     H_    0.105449 0.100198 0.630830 0.153805
H16   H     H_    0.107428 0.867148 0.629890 0.155284
H17   H     H_    0.285304 0.758482 0.571456 0.140058
H18   H     H_    0.720514 0.777925 0.448703 0.045022
N1    N     N_R   0.498930 0.498800 0.142780 -0.134867
N2    N     N_R   0.498900 0.498720 0.857170 -0.125611
O1    O     O_R   0.500000 0.316780 0.614690 -0.627964
O2    O     O_2   0.262096 0.228859 0.300094 -0.622619
O3    O     O_2   0.003125 0.321207 0.081809 -0.580598
O4    O     O_R   0.499990 0.316750 0.385360 -0.624095
O5    O     O_R   0.334450 0.500030 0.614670 -0.640248
O6    O     O_R   0.334440 0.500000 0.385330 -0.595994
O7    O     O_R   0.500010 0.683250 0.614640 -0.607500
O8    O     O_R   0.500000 0.683220 0.385310 -0.625392
O9    O     O_R   0.665560 0.500000 0.614670 -0.607668
O10   O     O_R   0.665550 0.499970 0.385330 -0.642420
O11   O     O_2   0.805381 0.942879 0.437458 -0.576231
Zn1   Zn    Zn3+2 0.500010 0.500020 0.653130 0.942556
Zn2   Zn    Zn3+2 0.499990 0.499980 0.346870 0.940823

loop_
_geom_bond_atom_site_label_1
_geom_bond_atom_site_label_2
_ccdc_geom_bond_type
C4    O5    A    
O9    Zn1   S    
C20   H18   S    
C31   H1    S    
C6    C7    A    
C13   O7    A    
N2    Zn1   S    
C23   C27   A    
O4    Zn2   S    
C14   C18   S    
O6    Zn2   S    
C31   C32   A    
C21   H7    S    
C30   C31   A    
C14   O10   A    
C26   O3    D    
C4    C15   S    
C17   C18   T    
C19   H14   S    
C7    C8    A    
C13   O8    A    
C24   H4    S    
C21   C22   S    
C1    O1    A    
C22   H5    S    
C12   C23   A    
O7    Zn1   S    
C29   C30   A    
C21   H8    S    
C20   O11   D    
C12   H15   S    
C3    C9    A    
C10   N1    A    
C12   C19   A    
C28   C29   A    
C1    O4    A    
O8    Zn2   S    
C6    H11   S    
C10   C21   S    
N1    Zn2   S    
C5    C6    A    
O1    Zn1   S    
C22   C24   S    
C11   H13   S    
C24   H3    S    
C16   C17   S    
C10   C11   A    
C11   N2    A    
C25   H9    S    
C15   C16   T    
C19   C29   A    
C27   H17   S    
C3    C25   S    
C25   O2    D    
C26   H10   S    
O5    Zn1   S    
C2    C32   A    
C20   C32   S    
C4    O6    A    
C27   C28   A    
C2    C13   S    
C8    N2    A    
C1    C30   S    
C2    C28   A    
C23   H16   S    
O10   Zn2   S    
C7    H12   S    
C14   O9    A    
C24   H2    S    
C5    C26   S    
C8    C9    A    
C3    C5    A    
C22   H6    S    
C9    N1    A    
