data_str_m4_o17_o17_f0_acs.sym.108
_audit_creation_date              2012-12-11T14:29:58-0500
_audit_creation_method            fapswitch 2.2
_symmetry_space_group_name_H-M    P1
_symmetry_Int_Tables_number       1
_space_group_crystal_system       triclinic
_cell_length_a                    12.840486
_cell_length_b                    12.86653
_cell_length_c                    26.605194
_cell_angle_alpha                 90.332408
_cell_angle_beta                  89.795417
_cell_angle_gamma                 119.746783
_cell_volume                      3816.23408538

loop_
_atom_site_label
_atom_site_type_symbol
_atom_type_description
_atom_site_fract_x
_atom_site_fract_y
_atom_site_fract_z
_atom_type_partial_charge
C1    C     C_R   0.554618 0.458131 0.820669 0.579266
C2    C     C_R   0.457564 0.556735 0.178335 0.575256
C3    C     C_R   0.946113 0.297769 0.470225 -0.114593
C4    C     C_R   0.293348 0.939088 0.022112 -0.104987
C5    C     C_R   0.649379 0.704874 0.478051 -0.097618
C6    C     C_R   0.297259 0.943341 0.529731 -0.116372
C7    C     C_R   0.069433 0.361675 0.969679 -0.112584
C8    C     C_R   0.642185 0.705841 0.530004 -0.109944
C9    C     C_R   0.292542 0.930444 0.970181 -0.113839
C10   C     C_R   0.954800 0.299541 0.522075 -0.097241
C11   C     C_R   0.635348 0.707403 0.970129 -0.110107
C12   C     C_2   0.019379 0.704651 0.136631 0.585348
C13   C     C_R   0.443280 0.900829 0.321633 0.540142
C14   C     C_2   0.686621 0.979097 0.363014 0.601160
C15   C     C_2   0.295885 0.315219 0.135614 0.587905
C16   C     C_2   0.029745 0.715566 0.363578 0.589198
C17   C     C_2   0.685640 0.980559 0.135910 0.596028
C18   C     C_2   0.296171 0.316627 0.363678 0.592010
C19   C     C_2   0.718510 0.031850 0.636734 0.594016
C20   C     C_2   0.968684 0.684878 0.863303 0.597669
C21   C     C_2   0.319146 0.282101 0.635607 0.592272
C22   C     C_2   0.713022 0.024973 0.861367 0.598359
C23   C     C_2   0.987905 0.687537 0.638393 0.597295
C24   C     C_R   0.099173 0.542435 0.178452 0.579175
C25   C     C_2   0.310413 0.290185 0.860492 0.597648
C26   C     C_2   0.958837 0.296088 0.127479 0.641225
C27   C     C_2   0.343448 0.048553 0.371050 0.643707
C28   C     C_2   0.703943 0.661923 0.127164 0.646431
C29   C     C_2   0.932493 0.297400 0.358307 0.614811
C30   C     C_2   0.336234 0.040871 0.128065 0.642731
C31   C     C_2   0.705533 0.661299 0.371699 0.647075
C32   C     C_2   0.297222 0.927977 0.641905 0.622702
C33   C     C_2   0.071025 0.366354 0.858018 0.616081
C34   C     C_2   0.637091 0.703793 0.641126 0.613814
C35   C     C_R   0.016348 0.518253 0.971074 0.030833
C36   C     C_2   0.295565 0.930929 0.858765 0.616658
C37   C     C_2   0.050284 0.343119 0.628723 0.648692
C38   C     C_2   0.631384 0.704691 0.858339 0.618985
C39   C     C_R   0.503479 0.985536 0.528794 0.030232
C40   C     C_R   0.480401 0.498167 0.970550 0.030415
C41   C     C_R   0.984024 0.500364 0.524791 0.027442
C42   C     C_R   0.502372 0.984151 0.970870 0.028521
C43   C     C_R   0.482874 0.498691 0.528756 0.027600
C44   C     C_R   0.501178 0.984340 0.475418 0.036470
C45   C     C_R   0.901286 0.443254 0.678501 0.589303
C46   C     C_R   0.018116 0.517256 0.024392 0.028563
C47   C     C_R   0.483699 0.501436 0.475448 0.025527
C48   C     C_R   0.499367 0.982088 0.024226 0.034830
C49   C     C_R   0.985318 0.502485 0.471389 0.030193
C50   C     C_R   0.481870 0.500713 0.023897 0.029065
C51   C     C_R   0.985965 0.689881 0.974392 -0.127723
C52   C     C_R   0.701269 0.005407 0.526146 -0.148508
C53   C     C_R   0.310432 0.296303 0.973151 -0.129719
C54   C     C_R   0.997650 0.695126 0.526118 -0.121255
C55   C     C_R   0.704638 0.014959 0.973546 -0.128811
C56   C     C_R   0.542143 0.096945 0.820772 0.580126
C57   C     C_R   0.308664 0.299536 0.525967 -0.094828
C58   C     C_R   0.698137 0.002331 0.473971 -0.146276
C59   C     C_R   0.989685 0.689853 0.026546 -0.121603
C60   C     C_R   0.308549 0.303012 0.473828 -0.097278
C61   C     C_R   0.700642 0.011044 0.025754 -0.125384
C62   C     C_R   0.000262 0.697719 0.473889 -0.117294
C63   C     C_R   0.311059 0.299902 0.025366 -0.124492
C64   C     C_R   0.981315 0.594214 0.892759 0.018787
C65   C     C_R   0.613993 0.018041 0.607333 0.019350
C66   C     C_R   0.403730 0.388819 0.891539 0.016639
C67   C     C_R   0.554936 0.457753 0.679190 0.572655
C68   C     C_R   0.981228 0.589564 0.606138 0.016596
C69   C     C_R   0.612666 0.017754 0.892018 0.018024
C70   C     C_R   0.407348 0.387806 0.607003 0.028560
C71   C     C_R   0.589800 0.979194 0.394303 -0.042721
C72   C     C_R   0.020021 0.608707 0.105604 0.022880
C73   C     C_R   0.392024 0.412524 0.394462 0.023801
C74   C     C_R   0.588625 0.979845 0.105179 -0.039664
C75   C     C_R   0.017176 0.612187 0.392907 0.025109
C76   C     C_R   0.391427 0.411400 0.104883 0.021711
C77   C     C_R   0.033528 0.518261 0.129688 -0.029360
C78   C     C_R   0.903061 0.445230 0.820823 0.579865
C79   C     C_R   0.486283 0.967689 0.370195 -0.072641
C80   C     C_R   0.481645 0.515101 0.129317 -0.030005
C81   C     C_R   0.022443 0.518217 0.367268 -0.022937
C82   C     C_R   0.484195 0.965648 0.129541 -0.071006
C83   C     C_R   0.482594 0.515547 0.370129 -0.030062
C84   C     C_R   0.518751 0.021524 0.632947 -0.019141
C85   C     C_R   0.978789 0.496327 0.867003 -0.019909
C86   C     C_R   0.504741 0.482466 0.632860 -0.022978
C87   C     C_R   0.517478 0.021375 0.866840 -0.019423
C88   C     C_R   0.969199 0.486093 0.630107 -0.024941
C89   C     C_R   0.542539 0.096996 0.679156 0.579454
C90   C     C_R   0.502542 0.483463 0.866531 -0.018918
C91   C     C_R   0.995665 0.602625 0.945716 -0.016639
C92   C     C_R   0.606872 0.001833 0.554445 -0.011769
C93   C     C_R   0.396154 0.393534 0.944700 -0.017139
C94   C     C_R   0.989698 0.597189 0.552743 -0.011469
C95   C     C_R   0.607462 0.004650 0.945098 -0.017232
C96   C     C_R   0.397849 0.394833 0.554261 -0.009728
C97   C     C_R   0.598382 0.990706 0.447528 0.001635
C98   C     C_R   0.007340 0.605188 0.052528 -0.010503
C99   C     C_R   0.394875 0.403761 0.447556 -0.010984
C100  C     C_R   0.457798 0.556919 0.321492 0.576887
C101  C     C_R   0.598045 0.992906 0.052070 -0.001115
C102  C     C_R   0.999846 0.604765 0.445717 -0.007662
C103  C     C_R   0.394836 0.402178 0.051718 -0.010500
C104  C     C_R   0.028843 0.432935 0.890333 0.024272
C105  C     C_R   0.405836 0.973214 0.609406 0.030385
C106  C     C_R   0.565335 0.596338 0.890274 0.026364
C107  C     C_R   0.994902 0.407142 0.602606 0.015923
C108  C     C_R   0.404407 0.972180 0.890545 0.024455
C109  C     C_R   0.569082 0.595182 0.609333 0.023693
C110  C     C_R   0.407387 0.993761 0.397544 0.033739
C111  C     C_R   0.443142 0.900546 0.178358 0.540041
C112  C     C_R   0.012115 0.415350 0.101919 0.011570
C113  C     C_R   0.586032 0.596152 0.397616 0.009520
C114  C     C_R   0.402590 0.987236 0.102148 0.029498
C115  C     C_R   0.975960 0.405831 0.390774 0.025096
C116  C     C_R   0.584162 0.596255 0.101688 0.012036
C117  C     C_R   0.039055 0.437109 0.943309 -0.009669
C118  C     C_R   0.400724 0.966468 0.556343 -0.008666
C119  C     C_R   0.560786 0.602027 0.943265 -0.008787
C120  C     C_R   0.980280 0.402253 0.549985 -0.008584
C121  C     C_R   0.398491 0.961474 0.943483 -0.010227
C122  C     C_R   0.097308 0.542594 0.320896 0.573824
C123  C     C_R   0.565241 0.601158 0.556397 -0.009709
C124  C     C_R   0.402385 0.979480 0.450139 -0.003875
C125  C     C_R   0.027991 0.426229 0.049429 -0.012178
C126  C     C_R   0.575508 0.601143 0.450210 -0.010578
C127  C     C_R   0.398093 0.971710 0.049625 -0.005745
C128  C     C_R   0.968380 0.400650 0.443775 -0.011735
C129  C     C_R   0.572534 0.601334 0.049298 -0.011921
C130  C     C_R   0.060394 0.353765 0.021592 -0.102926
C131  C     C_R   0.299210 0.953191 0.477897 -0.108289
C132  C     C_R   0.643800 0.706035 0.021977 -0.102044
Cr1   Cr    Cr6+3 0.487630 0.241180 0.750000 1.118477
Cr2   Cr    Cr6+3 0.753550 0.512370 0.750000 1.116164
Cr3   Cr    Cr6+3 0.758820 0.246450 0.750000 1.121998
Cr4   Cr    Cr6+3 0.241180 0.487630 0.250000 1.132340
Cr5   Cr    Cr6+3 0.512370 0.753550 0.250000 1.169014
Cr6   Cr    Cr6+3 0.246450 0.758820 0.250000 1.125804
H1    H     H_    0.978363 0.757520 0.045916 0.189974
H2    H     H_    0.785815 0.026194 0.956624 0.188074
H3    H     H_    0.002884 0.772195 0.544617 0.180352
H4    H     H_    0.241229 0.215188 0.956303 0.188999
H5    H     H_    0.086134 0.295067 0.039510 0.202799
H6    H     H_    0.215944 0.932307 0.460132 0.201748
H7    H     H_    0.701941 0.790078 0.040299 0.201483
H8    H     H_    0.925307 0.215271 0.451816 0.177154
H9    H     H_    0.208854 0.912879 0.040296 0.201925
H10   H     H_    0.708820 0.788697 0.460196 0.200130
H11   H     H_    0.214069 0.920903 0.547954 0.179646
H12   H     H_    0.775790 0.009378 0.455092 0.164579
H13   H     H_    0.097704 0.305378 0.951125 0.177519
H14   H     H_    0.700267 0.789233 0.548669 0.173445
H15   H     H_    0.207993 0.901725 0.951873 0.175193
H16   H     H_    0.934142 0.216558 0.539720 0.202465
H17   H     H_    0.690600 0.791869 0.952039 0.177838
H18   H     H_    0.963718 0.747729 0.200423 0.348121
H19   H     H_    0.679963 0.088299 0.310148 0.336070
H20   H     H_    0.253547 0.218332 0.199371 0.344623
H21   H     H_    0.986001 0.771821 0.300554 0.338218
H22   H     H_    0.687081 0.099067 0.186618 0.332797
H23   H     H_    0.244670 0.220735 0.044529 0.189785
H24   H     H_    0.252750 0.219595 0.299516 0.341270
H25   H     H_    0.776256 0.996238 0.701291 0.320826
H26   H     H_    0.004634 0.776755 0.798431 0.317100
H27   H     H_    0.216639 0.219736 0.697846 0.323827
H28   H     H_    0.763405 0.987266 0.794897 0.323544
H29   H     H_    0.033472 0.769012 0.706274 0.330118
H30   H     H_    0.225405 0.242590 0.793507 0.327248
H31   H     H_    0.928368 0.126518 0.127221 0.388693
H32   H     H_    0.201961 0.075843 0.368927 0.368649
H33   H     H_    0.873061 0.801215 0.127142 0.371605
H34   H     H_    0.003516 0.774596 0.456269 0.179839
H35   H     H_    0.941504 0.149648 0.339659 0.391024
H36   H     H_    0.196103 0.070622 0.128487 0.369718
H37   H     H_    0.874941 0.800578 0.371636 0.371247
H38   H     H_    0.150506 0.938619 0.661138 0.351782
H39   H     H_    0.058152 0.207519 0.840465 0.358211
H40   H     H_    0.797294 0.846934 0.658546 0.356966
H41   H     H_    0.148895 0.943828 0.842606 0.357711
H42   H     H_    0.081394 0.204004 0.628660 0.364294
H43   H     H_    0.790122 0.850213 0.841541 0.357071
H44   H     H_    0.779612 0.022480 0.044946 0.186475
H45   H     H_    0.239979 0.224682 0.454797 0.193124
H46   H     H_    0.779259 0.010251 0.543536 0.164489
H47   H     H_    0.975449 0.760066 0.957557 0.182861
H48   H     H_    0.237751 0.220186 0.543296 0.187334
O1    O     O_R   0.460870 0.120930 0.805240 -0.473097
O2    O     O_R   0.120930 0.460870 0.194760 -0.459541
O3    O     O_R   0.539130 0.660060 0.305240 -0.454042
O4    O     O_R   0.339940 0.879070 0.194760 -0.457628
O5    O     O_R   0.498910 0.350470 0.801870 -0.473998
O6    O     O_R   0.851560 0.501090 0.698130 -0.475301
O7    O     O_R   0.649530 0.148440 0.801870 -0.473105
O8    O     O_R   0.498910 0.350470 0.698130 -0.470884
O9    O     O_R   0.851560 0.501090 0.801870 -0.471972
O10   O     O_R   0.649530 0.148440 0.698130 -0.475225
O11   O     O_R   0.350470 0.498910 0.301870 -0.475899
O12   O     O_R   0.660060 0.539130 0.694760 -0.474623
O13   O     O_R   0.501090 0.851560 0.198130 -0.474559
O14   O     O_R   0.148440 0.649530 0.301870 -0.475361
O15   O     O_R   0.350470 0.498910 0.198130 -0.479072
O16   O     O_R   0.501090 0.851560 0.301870 -0.475816
O17   O     O_R   0.148440 0.649530 0.198130 -0.477231
O18   O     O_3   0.666667 0.333333 0.750000 -0.310580
O19   O     O_3   0.333333 0.666667 0.250000 -0.317070
O20   O     O_2   0.082098 0.809524 0.125094 -0.540451
O21   O     O_R   0.952824 0.674732 0.181191 -0.609658
O22   O     O_2   0.731362 0.918814 0.375200 -0.478014
O23   O     O_R   0.879070 0.339940 0.805240 -0.470583
O24   O     O_R   0.721539 0.040593 0.317372 -0.607860
O25   O     O_2   0.190718 0.272188 0.123781 -0.537529
O26   O     O_R   0.326421 0.279791 0.180201 -0.613422
O27   O     O_2   0.100253 0.817698 0.376735 -0.540546
O28   O     O_R   0.966238 0.694957 0.318583 -0.617277
O29   O     O_2   0.727179 0.916937 0.124080 -0.487673
O30   O     O_R   0.725470 0.047830 0.180264 -0.593094
O31   O     O_2   0.191306 0.274324 0.375844 -0.500821
O32   O     O_R   0.325959 0.280620 0.318736 -0.617563
O33   O     O_2   0.820705 0.101005 0.623145 -0.539793
O34   O     O_R   0.460870 0.120930 0.694760 -0.468716
O35   O     O_R   0.698910 0.972350 0.682577 -0.618959
O36   O     O_2   0.899446 0.718311 0.876821 -0.495982
O37   O     O_R   0.028818 0.723932 0.817407 -0.627031
O38   O     O_2   0.294543 0.181956 0.622033 -0.504198
O39   O     O_R   0.271427 0.298218 0.680406 -0.621562
O40   O     O_2   0.816677 0.087448 0.874618 -0.498161
O41   O     O_R   0.688114 0.966743 0.814728 -0.617973
O42   O     O_2   0.936465 0.741774 0.626564 -0.499112
O43   O     O_R   0.046440 0.711106 0.684805 -0.612143
O44   O     O_2   0.266262 0.186281 0.873496 -0.500379
O45   O     O_R   0.660060 0.539130 0.805240 -0.470364
O46   O     O_R   0.280231 0.316904 0.813711 -0.615393
O47   O     O_2   0.913956 0.283832 0.169195 -0.432225
O48   O     O_R   0.952945 0.196369 0.103657 -0.696589
O49   O     O_2   0.377695 0.092545 0.329427 -0.438442
O50   O     O_R   0.248977 0.055745 0.393624 -0.697913
O51   O     O_2   0.717227 0.629209 0.168544 -0.420255
O52   O     O_R   0.803028 0.755606 0.103545 -0.697082
O53   O     O_2   0.874964 0.289554 0.320543 -0.451721
O54   O     O_R   0.963974 0.210067 0.367928 -0.652050
O55   O     O_2   0.369071 0.086677 0.169617 -0.438323
O56   O     O_R   0.879070 0.339940 0.694760 -0.464624
O57   O     O_R   0.241764 0.046042 0.104696 -0.695322
O58   O     O_2   0.717908 0.628596 0.329931 -0.415261
O59   O     O_R   0.805468 0.754325 0.395381 -0.694986
O60   O     O_2   0.291133 0.871991 0.679854 -0.413629
O61   O     O_R   0.207151 0.955530 0.631887 -0.659907
O62   O     O_2   0.127424 0.413519 0.819732 -0.411163
O63   O     O_R   0.040314 0.248702 0.868974 -0.656586
O64   O     O_2   0.588600 0.718027 0.678103 -0.409060
O65   O     O_R   0.757336 0.784844 0.631112 -0.658598
O66   O     O_2   0.285124 0.873294 0.820529 -0.411024
O67   O     O_R   0.120930 0.460870 0.305240 -0.463025
O68   O     O_R   0.209335 0.963096 0.870435 -0.659437
O69   O     O_2   0.091452 0.374155 0.671056 -0.413487
O70   O     O_R   0.062305 0.252904 0.604683 -0.698931
O71   O     O_2   0.584507 0.712952 0.819758 -0.410828
O72   O     O_R   0.748170 0.792780 0.870111 -0.658607
O73   O     O_R   0.539130 0.660060 0.194760 -0.452517
O74   O     O_R   0.339940 0.879070 0.305240 -0.454218

loop_
_geom_bond_atom_site_label_1
_geom_bond_atom_site_label_2
_ccdc_geom_bond_type
C65   C92   A    
H24   O32   S    
C24   O17   A    
C20   C64   S    
C1    C90   S    
C21   O38   D    
C14   O22   D    
C106  C119  A    
C36   C108  S    
C16   C75   S    
C53   C63   A    
C14   C71   S    
C83   C113  A    
C46   C125  A    
C70   C96   A    
C100  O3    A    
C19   O35   S    
C58   C97   A    
C40   C93   A    
C60   C99   A    
C11   C119  A    
C11   C132  A    
C10   H16   S    
C122  O67   A    
C71   C79   A    
C23   O42   D    
H42   O70   S    
H35   O54   S    
C66   C90   A    
C72   C98   A    
C71   C97   A    
Cr1   O5    S    
C61   H44   S    
C72   C77   A    
C56   C87   S    
C132  H7    S    
C6    C118  A    
Cr3   O56   S    
C8    H14   S    
C13   O74   A    
C52   H46   S    
C37   C107  S    
Cr4   O19   S    
Cr3   O7    S    
Cr5   O16   S    
C48   C101  A    
C35   C91   A    
H22   O30   S    
C55   C61   A    
C47   C99   A    
C13   O16   A    
C33   O62   D    
Cr2   O12   S    
C53   H4    S    
Cr6   O17   S    
Cr2   O6    S    
H18   O21   S    
C7    C117  A    
C7    C130  A    
C15   O25   D    
C28   C116  S    
C51   C91   A    
Cr3   O10   S    
C25   C66   S    
H41   O68   S    
C125  C130  A    
C116  C129  A    
C80   C116  A    
C27   C110  S    
H28   O41   S    
C37   O69   D    
C57   C96   A    
C5    C126  A    
C75   C102  A    
C9    C121  A    
C19   C65   S    
C34   O65   S    
C17   O30   S    
C108  C121  A    
C22   C69   S    
C69   C87   A    
C11   H17   S    
C129  C132  A    
C28   O52   S    
C100  O11   A    
C67   O12   A    
C60   H45   S    
Cr5   O73   S    
C2    O73   A    
C46   C98   A    
C9    H15   S    
C50   C103  A    
H21   O28   S    
Cr4   O2    S    
C6    H11   S    
Cr6   O4    S    
C2    O15   A    
C74   C82   A    
C38   O72   S    
C41   C49   A    
Cr4   O15   S    
Cr6   O19   S    
C48   C127  A    
H29   O43   S    
H38   O61   S    
H25   O35   S    
H20   O26   S    
Cr6   O74   S    
C25   O44   D    
Cr1   O34   S    
H31   O48   S    
C87   C108  A    
C32   O61   S    
C53   C93   A    
C42   C95   A    
C12   O21   S    
Cr5   O13   S    
C31   O58   D    
C45   C88   S    
C10   C120  A    
C82   C114  A    
C55   C95   A    
C64   C85   A    
C49   C102  A    
C22   O41   S    
C88   C107  A    
C14   O24   S    
C3    C128  A    
Cr1   O8    S    
C65   C84   A    
Cr5   O19   S    
C113  C126  A    
C54   C62   A    
C89   O10   A    
H32   O50   S    
C30   O55   D    
C68   C94   A    
C55   H2    S    
C124  C131  A    
C32   O60   D    
C12   O20   D    
C23   C68   S    
C38   C106  S    
C77   C112  A    
C61   C101  A    
C15   O26   S    
C51   H47   S    
C50   C129  A    
C28   O51   D    
H30   O46   S    
C76   C103  A    
C44   C97   A    
Cr4   O67   S    
C45   O6    A    
C41   C94   A    
C56   O1    A    
C59   H1    S    
C34   C109  S    
C37   O70   S    
H39   O63   S    
C81   C115  A    
H27   O39   S    
C43   C96   A    
Cr4   O11   S    
Cr1   O1    S    
C34   O64   D    
C42   C48   A    
Cr2   O45   S    
C26   C112  S    
C16   O28   S    
C130  H5    S    
C78   O23   A    
C90   C106  A    
C57   H48   S    
C23   O43   S    
C85   C104  A    
C52   C58   A    
H36   O57   S    
C111  O4    A    
C74   C101  A    
C7    H13   S    
H40   O65   S    
C78   C85   S    
C63   C103  A    
Cr2   O9    S    
Cr3   O23   S    
C18   C73   S    
C30   O57   S    
C66   C93   A    
C17   C74   S    
C68   C88   A    
Cr5   O3    S    
C105  C118  A    
C35   C117  A    
C19   O33   D    
C84   C89   S    
C39   C44   A    
C18   O32   S    
C38   O71   D    
C43   C123  A    
C39   C92   A    
C13   C79   S    
C26   O47   D    
C47   C126  A    
C104  C117  A    
C30   C114  S    
C73   C99   A    
C49   C128  A    
C67   C86   S    
C29   O54   S    
C79   C110  A    
C22   O40   D    
C75   C81   A    
C109  C123  A    
C86   C109  A    
C76   C80   A    
C6    C131  A    
C69   C95   A    
C35   C46   A    
C5    C8    A    
C62   H34   S    
C8    C123  A    
Cr2   O18   S    
Cr3   O18   S    
H43   O72   S    
H33   O52   S    
C27   O49   D    
C39   C118  A    
C21   O39   S    
C81   C122  S    
C24   O2    A    
C21   C70   S    
C32   C105  S    
C122  O14   A    
C82   C111  S    
C57   C60   A    
C4    C127  A    
C3    C10   A    
C63   H23   S    
C89   O34   A    
C114  C127  A    
C4    H9    S    
H26   O37   S    
C26   O48   S    
H19   O24   S    
Cr1   O18   S    
C40   C50   A    
C84   C105  A    
C33   O63   S    
C33   C104  S    
C111  O13   A    
C70   C86   A    
C36   O66   D    
C20   O37   S    
C31   C113  S    
C15   C76   S    
C78   O9    A    
C107  C120  A    
C41   C120  A    
C29   C115  S    
C16   O27   D    
C12   C72   S    
C25   O46   S    
C36   O68   S    
C1    O45   A    
C54   C94   A    
C2    C80   S    
C115  C128  A    
C56   O7    A    
C83   C100  S    
C67   O8    A    
C24   C77   S    
H37   O59   S    
C54   H3    S    
C51   C59   A    
C27   O50   S    
C3    H8    S    
C40   C119  A    
C1    O5    A    
C5    H10   S    
C59   C98   A    
C20   O36   D    
C44   C124  A    
C31   O59   S    
C110  C124  A    
C64   C91   A    
C112  C125  A    
C4    C9    A    
C17   O29   D    
C18   O31   D    
C43   C47   A    
C45   O56   A    
C73   C83   A    
C52   C92   A    
C131  H6    S    
C58   H12   S    
C42   C121  A    
C29   O53   D    
C62   C102  A    
Cr6   O14   S    
