data_str_m9_o16_o25_f0_sra.sym.4
_audit_creation_date              2012-12-11T15:14:44-0500
_audit_creation_method            fapswitch 2.2
_symmetry_space_group_name_H-M    P1
_symmetry_Int_Tables_number       1
_space_group_crystal_system       triclinic
_cell_length_a                    22.065054
_cell_length_b                    7.294149
_cell_length_c                    19.796143
_cell_angle_alpha                 90.006689
_cell_angle_beta                  97.914687
_cell_angle_gamma                 90.003824
_cell_volume                      3155.75566065

loop_
_atom_site_label
_atom_site_type_symbol
_atom_type_description
_atom_site_fract_x
_atom_site_fract_y
_atom_site_fract_z
_atom_type_partial_charge
O1    O     O_R   0.448470 0.506130 0.415700 -0.537762
O2    O     O_R   0.551530 0.006130 0.584300 -0.537740
O3    O     O_R   0.436320 0.174490 0.555800 -0.516788
O4    O     O_R   0.563680 0.674490 0.444200 -0.516670
C1    C     C_R   0.424222 0.343897 0.578325 0.796139
C2    C     C_R   0.575771 0.843889 0.421668 0.795861
O5    O     O_R   0.441350 0.176340 0.414480 -0.534148
O6    O     O_R   0.558650 0.676340 0.585520 -0.534046
O7    O     O_R   0.556600 0.007100 0.441970 -0.520047
O8    O     O_R   0.443400 0.507100 0.558030 -0.519916
C3    C     C_R   0.423368 0.345380 0.392840 0.785741
C4    C     C_R   0.576657 0.845411 0.607132 0.786140
O9    O     O_3   0.537810 0.339550 0.509190 -0.373946
O10   O     O_3   0.462190 0.839550 0.490810 -0.373900
V1    V     V_3+5 0.492990 0.064280 0.498300 1.646888
V2    V     V_3+5 0.507010 0.564280 0.501700 1.647180
C5    C     C_R   0.875184 0.063770 0.709262 0.466523
C6    C     C_R   0.125076 0.565614 0.290545 0.466454
H1    H     H_    0.958967 0.077282 0.778210 0.181583
H2    H     H_    0.041241 0.578792 0.221685 0.181492
H3    H     H_    0.797244 0.076258 0.595423 0.239570
H4    H     H_    0.203135 0.579088 0.404299 0.240204
C7    C     C_R   0.888029 0.950170 0.824945 -0.108091
C8    C     C_R   0.112013 0.450395 0.175057 -0.108006
C9    C     C_R   0.595761 0.799338 0.729761 -0.162270
C10   C     C_R   0.404201 0.298204 0.270254 -0.162074
C11   C     C_R   0.630211 0.794050 0.793736 -0.064409
C12   C     C_R   0.369722 0.292498 0.206297 -0.064503
C13   C     C_R   0.692054 0.836735 0.802281 -0.107321
C14   C     C_R   0.307918 0.335668 0.197721 -0.107262
C15   C     C_R   0.722170 0.885459 0.746417 0.048396
C16   C     C_R   0.277878 0.385357 0.253536 0.048497
C17   C     C_R   0.686870 0.892279 0.679232 -0.047749
C18   C     C_R   0.313215 0.392648 0.320695 -0.048152
C19   C     C_R   0.786652 0.929099 0.755991 0.036333
C20   C     C_R   0.213433 0.429456 0.243945 0.036487
C21   C     C_R   0.812941 0.007482 0.701086 -0.086711
C22   C     C_R   0.187271 0.508918 0.298747 -0.087107
C23   C     C_R   0.777695 0.019954 0.637878 -0.120704
C24   C     C_R   0.222586 0.521989 0.361906 -0.119933
C25   C     C_R   0.719732 0.943672 0.624940 0.401868
C26   C     C_R   0.280441 0.445043 0.374933 0.402478
C27   C     C_R   0.826131 0.898776 0.818157 -0.178400
C28   C     C_R   0.173876 0.398582 0.181864 -0.178195
C29   C     C_R   0.911582 0.033438 0.771099 -0.176999
C30   C     C_R   0.088589 0.534618 0.228809 -0.176520
C31   C     C_R   0.621658 0.848769 0.671635 -0.073448
C32   C     C_R   0.378376 0.348581 0.328329 -0.073439
H5    H     H_    0.810409 0.836669 0.862011 0.120926
H6    H     H_    0.189517 0.335767 0.138090 0.120929
H7    H     H_    0.547539 0.765324 0.725686 0.134017
H8    H     H_    0.452388 0.263748 0.274356 0.133877
H9    H     H_    0.714883 0.835051 0.854010 0.137030
H10   H     H_    0.285058 0.333584 0.146006 0.136982
H11   H     H_    0.608444 0.757530 0.837659 0.162038
H12   H     H_    0.391436 0.255239 0.162412 0.161954
C33   C     C_3   0.772458 0.834838 0.308828 -0.282658
C34   C     C_3   0.227594 0.334713 0.691237 -0.283911
C35   C     C_3   0.792955 0.007503 0.273268 0.461794
C36   C     C_3   0.207094 0.507392 0.726794 0.462145
H13   H     H_    0.793234 0.786739 0.360020 0.217682
H14   H     H_    0.206813 0.286545 0.640051 0.217031
H15   H     H_    0.703319 0.203022 0.258770 0.266976
H16   H     H_    0.296729 0.702963 0.741299 0.266978
C37   C     C_1   0.875085 0.936941 0.120372 -0.066195
C38   C     C_1   0.124935 0.436917 0.879653 -0.066269
C39   C     C_1   0.620713 0.855926 0.374862 -0.037693
C40   C     C_1   0.379307 0.355917 0.625161 -0.038912
C41   C     C_3   0.770295 0.730174 0.240891 0.313113
C42   C     C_3   0.229755 0.230095 0.759173 0.313499
C43   C     C_3   0.790434 0.902341 0.205599 -0.231630
C44   C     C_3   0.209612 0.402276 0.794462 -0.231687
C45   C     C_3   0.702650 0.783035 0.222217 0.357347
C46   C     C_3   0.297399 0.282998 0.777850 0.357876
C47   C     C_3   0.704933 0.890079 0.289212 -0.200931
C48   C     C_3   0.295119 0.390001 0.710855 -0.200848
C49   C     C_3   0.722527 0.957552 0.186999 0.325716
C50   C     C_3   0.277518 0.457529 0.813067 0.325541
C51   C     C_3   0.724648 0.067076 0.254665 -0.167854
C52   C     C_3   0.275399 0.567010 0.745401 -0.167641
C53   C     C_1   0.836936 0.920299 0.158643 0.264496
C54   C     C_1   0.163098 0.420256 0.841401 0.264406
C55   C     C_1   0.658564 0.872132 0.336227 0.180823
C56   C     C_1   0.341479 0.372083 0.663828 0.178620
O11   O     O_R   0.056650 0.288730 0.942060 -0.534318
O12   O     O_R   0.943350 0.788730 0.057940 -0.534306
O13   O     O_R   0.058660 0.616870 0.085540 -0.542101
O14   O     O_R   0.941340 0.116870 0.914460 -0.542025
C57   C     C_R   0.072834 0.449230 0.109167 0.710063
C58   C     C_R   0.927169 0.949198 0.890841 0.710117
O15   O     O_R   0.063700 0.618520 0.944220 -0.524067
O16   O     O_R   0.936300 0.118520 0.055780 -0.524059
O17   O     O_R   0.948460 0.787610 0.915680 -0.532999
O18   O     O_R   0.051540 0.287610 0.084320 -0.532940
C59   C     C_R   0.078833 0.449740 0.924964 0.693705
C60   C     C_R   0.921172 0.949745 0.075042 0.693732
O19   O     O_3   0.962230 0.453430 0.990860 -0.378825
O20   O     O_3   0.037770 0.953430 0.009140 -0.378853
V3    V     V_3+5 0.007010 0.728750 0.001700 1.540749
V4    V     V_3+5 0.992990 0.228750 0.998300 1.540838
S1    S     S_3+6 0.687949 0.033871 0.104901 0.117240
O21   O     O_2   0.724968 0.186290 0.080137 -0.271612
O22   O     O_2   0.685041 0.877110 0.055324 -0.301701
O23   O     O_3   0.616812 0.108840 0.110634 -0.452199
H17   H     H_    0.598622 0.134876 0.063023 0.372093
S2    S     S_3+6 0.312090 0.533904 0.895170 0.117303
O24   O     O_2   0.275074 0.686361 0.919917 -0.271768
O25   O     O_2   0.314976 0.377196 0.944753 -0.301574
O26   O     O_3   0.383235 0.608835 0.889458 -0.452042
H18   H     H_    0.401276 0.636062 0.937017 0.372042
S3    S     S_3+6 0.641695 0.633282 0.189164 0.117951
O27   O     O_2   0.632932 0.490134 0.241475 -0.320524
O28   O     O_2   0.583857 0.742996 0.173070 -0.306569
O29   O     O_3   0.658592 0.531403 0.117945 -0.408070
H19   H     H_    0.618674 0.492492 0.092988 0.389617
S4    S     S_3+6 0.358354 0.133293 0.810903 0.118090
O30   O     O_2   0.367115 0.990102 0.758595 -0.320433
O31   O     O_2   0.416194 0.243041 0.826989 -0.306384
O32   O     O_3   0.341458 0.031470 0.882126 -0.408245
H20   H     H_    0.381387 0.992879 0.907141 0.389337
S5    S     S_3+6 0.803748 0.511780 0.246055 0.112192
O33   O     O_2   0.781761 0.401626 0.183558 -0.252401
O34   O     O_2   0.872278 0.528214 0.254026 -0.275005
O35   O     O_3   0.781693 0.415255 0.315852 -0.484017
H21   H     H_    0.810934 0.460758 0.354694 0.382836
S6    S     S_3+6 0.196300 0.011687 0.754005 0.112145
O36   O     O_2   0.218282 0.901580 0.816502 -0.252464
O37   O     O_2   0.127770 0.028091 0.746028 -0.274969
O38   O     O_3   0.218359 0.915125 0.684210 -0.484022
H22   H     H_    0.189116 0.960575 0.645367 0.382765
S7    S     S_3+6 0.909772 0.172669 0.643757 0.082566
O39   O     O_2   0.873867 0.341697 0.620394 -0.304343
O40   O     O_2   0.974775 0.226286 0.668939 -0.266889
O41   O     O_3   0.909281 0.027219 0.577725 -0.453077
H23   H     H_    0.922985 0.101470 0.540766 0.408103
S8    S     S_3+6 0.090659 0.675899 0.355891 0.082655
O42   O     O_2   0.126746 0.844922 0.378878 -0.304869
O43   O     O_2   0.025698 0.729797 0.330689 -0.266820
O44   O     O_3   0.091086 0.531494 0.422206 -0.452495
H24   H     H_    0.078164 0.606965 0.459303 0.407948
S9    S     S_3+6 0.697485 0.902457 0.538604 -0.027842
O45   O     O_2   0.664892 0.722219 0.529255 -0.343320
O46   O     O_2   0.658008 0.061344 0.512649 -0.373387
O47   O     O_3   0.758573 0.893113 0.496034 -0.475062
H25   H     H_    0.750652 0.984817 0.458968 0.366595
S10   S     S_3+6 0.302522 0.403762 0.461301 -0.027606
O48   O     O_2   0.334998 0.223360 0.470739 -0.344080
O49   O     O_2   0.342034 0.562496 0.487386 -0.372742
O50   O     O_3   0.241284 0.394847 0.503620 -0.474634
H26   H     H_    0.250192 0.481644 0.542187 0.366510
Cl1   Cl    Cl    0.862069 0.112879 0.312009 -0.414341
Cl2   Cl    Cl    0.137983 0.612716 0.688047 -0.414337

loop_
_geom_bond_atom_site_label_1
_geom_bond_atom_site_label_2
_ccdc_geom_bond_type
C34   H14   S    
C22   C24   A    
C39   C55   T    
S6    O36   D    
C7    C29   A    
C5    S7    S    
C45   C47   S    
C49   S1    S    
S3    O27   D    
O1    C3    A    
S7    O41   S    
O2    C4    A    
C8    C57   S    
C48   C56   S    
C2    O7    A    
O29   H19   S    
C12   H12   S    
C34   C48   S    
C23   C25   A    
H15   C51   S    
O5    C3    A    
C14   H10   S    
S1    O21   D    
C46   C48   S    
C16   C20   A    
C19   C21   A    
C5    C29   A    
O38   H22   S    
C4    C31   S    
C11   H11   S    
C33   C35   S    
C11   C13   A    
S2    O24   D    
C36   C44   S    
C34   C36   S    
O16   C60   A    
C7    C27   A    
S4    O30   D    
C36   Cl2   S    
C57   O18   A    
C41   C43   S    
S5    O35   S    
C44   C50   S    
C37   C60   S    
C12   C14   A    
C18   C26   A    
C42   C46   S    
C15   C17   A    
C6    S8    S    
C41   S5    S    
C19   C27   A    
C9    C31   A    
O13   V3    S    
C10   C32   A    
C42   S6    S    
O6    V2    S    
C24   C26   A    
C46   S4    S    
S1    O22   D    
H16   C52   S    
C3    C32   S    
S8    O44   S    
C6    C30   A    
O23   H17   S    
C1    C40   S    
C45   S3    S    
S10   O49   D    
C49   C51   S    
O35   H21   S    
C40   C56   T    
S8    O43   D    
S9    O47   S    
C35   C51   S    
C27   H5    S    
S6    O38   S    
S7    O40   D    
C13   H9    S    
C16   C18   A    
O4    V2    S    
C9    H7    S    
C25   S9    S    
O2    V1    S    
C10   H8    S    
C38   C54   T    
S10   O50   S    
C37   C53   T    
H3    C23   S    
O18   V4    S    
O6    C4    A    
H4    C24   S    
C7    C58   S    
S3    O28   D    
O1    V2    S    
C5    C21   A    
O32   H20   S    
C41   C45   S    
O12   V3    S    
S5    O33   D    
O14   V4    S    
O12   C60   A    
O4    C2    A    
C2    C39   S    
O14   C58   A    
S1    O23   S    
O13   C57   A    
C17   C31   A    
C15   C19   A    
C20   C28   A    
C18   C32   A    
S7    O39   D    
C26   S10   S    
C43   C49   S    
O19   V4    S    
O3    V1    S    
O16   V4    S    
C58   O17   A    
S10   O48   D    
C28   H6    S    
O17   V3    S    
C36   C52   S    
S6    O37   D    
C34   C42   S    
C48   C52   S    
O47   H25   S    
O3    C1    A    
O44   H24   S    
H1    C29   S    
C33   H13   S    
O41   H23   S    
C35   Cl1   S    
C9    C11   A    
C10   C12   A    
S4    O32   S    
C50   S2    S    
C8    C30   A    
C33   C47   S    
S9    O46   D    
C6    C22   A    
C17   C25   A    
C1    O8    A    
C21   C23   A    
O11   V4    S    
O8    V2    S    
S9    O45   D    
C20   C22   A    
C14   C16   A    
O11   C59   A    
C47   C55   S    
S2    O25   D    
C8    C28   A    
O5    V1    S    
S4    O31   D    
S3    O29   S    
C50   C52   S    
O7    V1    S    
H2    C30   S    
S5    O34   D    
O15   C59   A    
C13   C15   A    
O20   V3    S    
C46   C50   S    
O9    V2    S    
O26   H18   S    
C45   C49   S    
O10   V1    S    
S8    O42   D    
C42   C44   S    
C33   C41   S    
O15   V3    S    
O50   H26   S    
C47   C51   S    
C44   C54   S    
C35   C43   S    
C38   C59   S    
C43   C53   S    
S2    O26   S    
