data_str_m4_o1_o24_f0_acs.sym.21
_audit_creation_date              2012-12-11T14:52:35-0500
_audit_creation_method            fapswitch 2.2
_symmetry_space_group_name_H-M    P1
_symmetry_Int_Tables_number       1
_space_group_crystal_system       triclinic
_cell_length_a                    18.83711
_cell_length_b                    10.902307
_cell_length_c                    18.795001
_cell_angle_alpha                 89.999387
_cell_angle_beta                  90.894959
_cell_angle_gamma                 90.000747
_cell_volume                      3859.42007596

loop_
_atom_site_label
_atom_site_type_symbol
_atom_type_description
_atom_site_fract_x
_atom_site_fract_y
_atom_site_fract_z
_atom_type_partial_charge
C1    C     C_R   0.290731 0.997058 0.861157 0.542690
C2    C     C_R   0.714887 0.486861 0.047580 0.253013
C3    C     C_3   0.024456 0.323207 0.065550 0.032497
C4    C     C_1   0.553022 0.618427 0.928387 0.183789
C5    C     C_1   0.446967 0.618426 0.071626 0.183344
C6    C     C_1   0.053033 0.118429 0.928376 0.183344
C7    C     C_1   0.946978 0.118425 0.071615 0.183791
C8    C     C_3   0.402261 0.457510 0.930744 -0.059257
C9    C     C_3   0.597734 0.457508 0.069263 -0.059342
C10   C     C_3   0.902262 0.957501 0.930744 -0.059345
C11   C     C_3   0.097736 0.957512 0.069260 -0.059254
C12   C     C_1   0.104501 0.640927 0.052248 0.268419
C13   C     C_R   0.785110 0.986860 0.952421 0.253013
C14   C     C_1   0.895502 0.640917 0.947753 0.268492
C15   C     C_1   0.604498 0.140918 0.052247 0.268500
C16   C     C_1   0.395498 0.140927 0.947752 0.268415
C17   C     C_R   0.214888 0.986860 0.047581 0.252937
C18   C     C_R   0.273642 0.459790 0.024687 -0.126062
C19   C     C_R   0.726354 0.459793 0.975314 -0.126109
C20   C     C_R   0.773642 0.959790 0.024687 -0.126115
C21   C     C_R   0.226355 0.959794 0.975314 -0.126059
C22   C     C_R   0.218340 0.517684 0.061795 -0.039137
C23   C     C_R   0.781658 0.517683 0.938206 -0.039173
C24   C     C_R   0.718340 0.017681 0.061795 -0.039175
C25   C     C_R   0.709267 0.997056 0.138844 0.542890
C26   C     C_R   0.281657 0.017687 0.938205 -0.039132
C27   C     C_R   0.168897 0.590556 0.022924 -0.033077
C28   C     C_R   0.831104 0.590550 0.977077 -0.033080
C29   C     C_R   0.668895 0.090550 0.022923 -0.033081
C30   C     C_R   0.331102 0.090558 0.977076 -0.033073
C31   C     C_R   0.181042 0.617139 0.952633 -0.196416
C32   C     C_R   0.818960 0.617132 0.047369 -0.196348
C33   C     C_R   0.681041 0.117135 0.952633 -0.196349
C34   C     C_R   0.318958 0.117138 0.047368 -0.196417
C35   C     C_R   0.241312 0.573273 0.918107 0.028449
C36   C     C_R   0.790732 0.497056 0.861158 0.542887
C37   C     C_R   0.758687 0.573272 0.081894 0.028653
C38   C     C_R   0.741312 0.073273 0.918107 0.028652
C39   C     C_R   0.258687 0.073273 0.081894 0.028448
C40   C     C_R   0.469246 0.724050 0.528485 -0.124371
C41   C     C_R   0.475767 0.727875 0.455826 -0.131085
C42   C     C_R   0.024566 0.228144 0.544261 -0.131136
C43   C     C_R   0.031166 0.224278 0.471603 -0.124313
C44   C     C_R   0.500093 0.834607 0.423296 0.029528
C45   C     C_R   0.483859 0.828519 0.570013 0.033007
C46   C     C_R   0.016203 0.328520 0.429999 0.033042
C47   C     C_R   0.209268 0.497057 0.138844 0.542692
C48   C     C_R   0.999880 0.334694 0.576698 0.029513
C49   C     C_R   0.511530 0.941580 0.463823 -0.130045
C50   C     C_R   0.502800 0.938719 0.537207 -0.134712
C51   C     C_R   0.996878 0.438578 0.462715 -0.134805
C52   C     C_R   0.988112 0.441480 0.536090 -0.130048
C53   C     C_R   0.444313 0.817590 0.863031 0.525937
C54   C     C_R   0.555678 0.817592 0.136969 0.525219
C55   C     C_R   0.944322 0.317591 0.863031 0.525220
C56   C     C_R   0.055688 0.317591 0.136969 0.525932
C57   C     C_R   0.207289 0.685180 0.526316 -0.123626
C58   C     C_3   0.523239 0.723242 0.967003 -0.019825
C59   C     C_R   0.792995 0.684804 0.473644 -0.131103
C60   C     C_R   0.707033 0.184857 0.526347 -0.131021
C61   C     C_R   0.292613 0.185363 0.473706 -0.123605
C62   C     C_R   0.207511 0.678570 0.453773 -0.132342
C63   C     C_R   0.792877 0.678225 0.546178 -0.138763
C64   C     C_R   0.707148 0.178261 0.453812 -0.138688
C65   C     C_R   0.292399 0.178685 0.546250 -0.132399
C66   C     C_R   0.251947 0.594336 0.421033 0.035467
C67   C     C_R   0.748107 0.594607 0.579028 0.035129
C68   C     C_R   0.751899 0.094605 0.420970 0.035120
C69   C     C_3   0.476745 0.723241 0.033004 -0.019742
C70   C     C_R   0.248043 0.094291 0.578960 0.035444
C71   C     C_R   0.303855 0.530359 0.460581 -0.140861
C72   C     C_R   0.695701 0.531560 0.539639 -0.131324
C73   C     C_R   0.804288 0.031529 0.460365 -0.131279
C74   C     C_R   0.196218 0.030158 0.539386 -0.140933
C75   C     C_R   0.305143 0.539854 0.533951 -0.147423
C76   C     C_R   0.694084 0.541514 0.466288 -0.136435
C77   C     C_R   0.805904 0.041490 0.533716 -0.136403
C78   C     C_R   0.194945 0.039668 0.466020 -0.147618
C79   C     C_R   0.255148 0.614342 0.567039 0.041532
C80   C     C_3   0.023254 0.223242 0.966996 -0.019743
C81   C     C_R   0.744629 0.614783 0.433054 0.039045
C82   C     C_R   0.755376 0.114800 0.566944 0.039044
C83   C     C_R   0.244853 0.114362 0.432961 0.041538
C84   C     C_R   0.259109 0.632299 0.850301 0.553921
C85   C     C_R   0.740891 0.632299 0.149699 0.553581
C86   C     C_R   0.759109 0.132300 0.850302 0.553585
C87   C     C_R   0.240891 0.132299 0.149699 0.553926
C88   C     C_R   0.270042 0.048690 0.647443 0.562817
C89   C     C_R   0.729943 0.048722 0.352544 0.563317
C90   C     C_R   0.770058 0.548724 0.647456 0.563288
C91   C     C_3   0.976761 0.223241 0.032998 -0.019824
C92   C     C_R   0.229959 0.548701 0.352554 0.562805
C93   C     C_R   0.466948 0.822998 0.645022 0.559314
C94   C     C_R   0.529224 0.824184 0.352582 0.559316
C95   C     C_R   0.970764 0.324195 0.647412 0.559289
C96   C     C_R   0.033065 0.322995 0.354982 0.559272
C97   C     C_R   0.261021 0.641130 0.641700 0.554366
C98   C     C_R   0.738913 0.641309 0.358358 0.554915
C99   C     C_R   0.761088 0.141314 0.641640 0.554917
C100  C     C_R   0.238980 0.141131 0.358300 0.554346
C101  C     C_3   0.476797 0.923985 0.033817 -0.101189
C102  C     C_R   0.285109 0.486858 0.952420 0.252937
C103  C     C_3   0.523185 0.923987 0.966186 -0.101060
C104  C     C_3   0.976815 0.423985 0.033812 -0.101062
C105  C     C_3   0.023203 0.423986 0.966182 -0.101188
C106  C     C_3   0.428596 0.823197 0.000669 -0.166331
C107  C     C_3   0.571387 0.823203 0.999336 -0.166019
C108  C     C_3   0.928613 0.323200 0.000664 -0.166018
C109  C     C_3   0.071404 0.323200 0.999331 -0.166333
C110  C     C_3   0.475544 0.823206 0.934450 0.032498
C111  C     C_3   0.524439 0.823210 0.065555 0.032892
C112  C     C_3   0.975561 0.323209 0.934445 0.032892
Cr1   Cr    Cr6+3 0.229630 0.835900 0.747350 1.030859
Cr2   Cr    Cr6+3 0.614200 0.677120 0.250660 1.038494
Cr3   Cr    Cr6+3 0.885800 0.177120 0.749340 1.038536
Cr4   Cr    Cr6+3 0.114200 0.177120 0.250660 1.036858
Cr5   Cr    Cr6+3 0.770370 0.835900 0.252650 1.032823
Cr6   Cr    Cr6+3 0.729630 0.335900 0.747350 1.032807
Cr7   Cr    Cr6+3 0.270370 0.335900 0.252650 1.030842
Cr8   Cr    Cr6+3 0.387410 0.989850 0.750850 1.049038
Cr9   Cr    Cr6+3 0.612590 0.989850 0.249150 1.046672
Cr10  Cr    Cr6+3 0.887410 0.489850 0.750850 1.046660
Cr11  Cr    Cr6+3 0.112590 0.489850 0.249150 1.049055
Cr12  Cr    Cr6+3 0.385800 0.677120 0.749340 1.036851
H1    H     H_    0.369664 0.821809 0.000019 0.108819
H2    H     H_    0.832428 0.730209 0.575907 0.128498
H3    H     H_    0.667612 0.230267 0.424076 0.128492
H4    H     H_    0.331533 0.231355 0.576121 0.129220
H5    H     H_    0.339948 0.467068 0.435449 0.120585
H6    H     H_    0.659462 0.468573 0.564842 0.124662
H7    H     H_    0.840512 0.968511 0.435169 0.124719
H8    H     H_    0.160186 0.966733 0.564496 0.120691
H9    H     H_    0.344330 0.488758 0.564593 0.114456
H10   H     H_    0.654356 0.491417 0.435774 0.121877
H11   H     H_    0.845615 0.991365 0.564236 0.121927
H12   H     H_    0.630319 0.821820 0.999985 0.108841
H13   H     H_    0.155834 0.988433 0.435357 0.114443
H14   H     H_    0.457570 0.004293 0.064026 0.156277
H15   H     H_    0.542414 0.004295 0.935977 0.156313
H16   H     H_    0.957587 0.504293 0.064021 0.156311
H17   H     H_    0.042431 0.504295 0.935972 0.156279
H18   H     H_    0.307629 0.393865 0.051510 0.154302
H19   H     H_    0.692364 0.393870 0.948491 0.154233
H20   H     H_    0.807630 0.893864 0.051510 0.154232
H21   H     H_    0.192366 0.893869 0.948492 0.154301
H22   H     H_    0.143570 0.677428 0.925581 0.153457
H23   H     H_    0.869681 0.321815 0.000014 0.108839
H24   H     H_    0.856434 0.677418 0.074422 0.153444
H25   H     H_    0.643568 0.177423 0.925580 0.153445
H26   H     H_    0.356432 0.177424 0.074420 0.153455
H27   H     H_    0.451773 0.638667 0.551857 0.136340
H28   H     H_    0.465899 0.644692 0.425671 0.131249
H29   H     H_    0.034679 0.145125 0.574490 0.131220
H30   H     H_    0.048945 0.139052 0.448282 0.136453
H31   H     H_    0.530766 0.025097 0.439563 0.134965
H32   H     H_    0.511913 0.021142 0.568212 0.125380
H33   H     H_    0.987471 0.520831 0.431642 0.125290
H34   H     H_    0.130336 0.321814 0.999980 0.108821
H35   H     H_    0.968571 0.524842 0.560276 0.135111
H36   H     H_    0.420135 0.414397 0.981393 0.135144
H37   H     H_    0.407032 0.559002 0.933243 0.124418
H38   H     H_    0.438178 0.425832 0.888348 0.181493
H39   H     H_    0.579857 0.414394 0.018615 0.135099
H40   H     H_    0.592964 0.559001 0.066762 0.124495
H41   H     H_    0.561820 0.425829 0.111661 0.181359
H42   H     H_    0.920134 0.914382 0.981391 0.135097
H43   H     H_    0.907037 0.058993 0.933246 0.124490
H44   H     H_    0.938178 0.925823 0.888347 0.181366
H45   H     H_    0.169701 0.747339 0.550150 0.131726
H46   H     H_    0.079860 0.914401 0.018610 0.135144
H47   H     H_    0.092967 0.059005 0.066760 0.124418
H48   H     H_    0.061819 0.925833 0.111656 0.181494
H49   H     H_    0.830873 0.746375 0.449728 0.131339
H50   H     H_    0.669172 0.246463 0.550258 0.131343
H51   H     H_    0.330122 0.247688 0.449889 0.131744
H52   H     H_    0.168312 0.731136 0.423925 0.129276
N1    N     N_1   0.576379 0.537000 0.896961 -0.312670
N2    N     N_1   0.423614 0.536999 0.103058 -0.313663
N3    N     N_1   0.076386 0.037003 0.896945 -0.313661
N4    N     N_1   0.923622 0.036996 0.103043 -0.312663
N5    N     N_1   0.052974 0.680948 0.075634 -0.312214
N6    N     N_1   0.947031 0.680934 0.924367 -0.312176
N7    N     N_1   0.552970 0.180936 0.075633 -0.312175
N8    N     N_1   0.447027 0.180947 0.924366 -0.312218
O1    O     O_R   0.214270 0.709000 0.827470 -0.540470
O2    O     O_R   0.543270 0.717630 0.330160 -0.515082
O3    O     O_R   0.956730 0.217630 0.669840 -0.514985
O4    O     O_R   0.043270 0.217630 0.330160 -0.518683
O5    O     O_R   0.320620 0.625640 0.672920 -0.505222
O6    O     O_R   0.679380 0.625640 0.327080 -0.500029
O7    O     O_R   0.820620 0.125640 0.672920 -0.500020
O8    O     O_R   0.179380 0.125640 0.327080 -0.505260
O9    O     O_3   0.334280 0.834290 0.749180 -0.297257
O10   O     O_3   0.665720 0.834290 0.250820 -0.295779
O11   O     O_3   0.834280 0.334290 0.749180 -0.295794
O12   O     O_R   0.785730 0.709000 0.172530 -0.540748
O13   O     O_3   0.165720 0.334290 0.250820 -0.297275
O14   O     O_R   0.236160 0.958490 0.823130 -0.478780
O15   O     O_R   0.763840 0.958490 0.176870 -0.478283
O16   O     O_R   0.736160 0.458490 0.823130 -0.478279
O17   O     O_R   0.263840 0.458490 0.176870 -0.478778
O18   O     O_R   0.332080 0.075470 0.831280 -0.477122
O19   O     O_R   0.667920 0.075470 0.168720 -0.476635
O20   O     O_R   0.832080 0.575470 0.831280 -0.476621
O21   O     O_R   0.167920 0.575470 0.168720 -0.477119
O22   O     O_R   0.446300 0.918110 0.826620 -0.501131
O23   O     O_R   0.714270 0.209000 0.827470 -0.540746
O24   O     O_R   0.553700 0.918110 0.173380 -0.502127
O25   O     O_R   0.946300 0.418110 0.826620 -0.502118
O26   O     O_R   0.053700 0.418110 0.173380 -0.501132
O27   O     O_R   0.457110 0.716200 0.831760 -0.503521
O28   O     O_R   0.542890 0.716200 0.168240 -0.505713
O29   O     O_R   0.957110 0.216200 0.831760 -0.505710
O30   O     O_R   0.042890 0.216200 0.168240 -0.503515
O31   O     O_R   0.320980 0.624310 0.823030 -0.486541
O32   O     O_R   0.679020 0.624310 0.176970 -0.486940
O33   O     O_R   0.820980 0.124310 0.823030 -0.486932
O34   O     O_R   0.285730 0.209000 0.172530 -0.540471
O35   O     O_R   0.179020 0.124310 0.176970 -0.486538
O36   O     O_R   0.213890 0.710430 0.665540 -0.525691
O37   O     O_R   0.786110 0.710430 0.334460 -0.527091
O38   O     O_R   0.713890 0.210430 0.665540 -0.527078
O39   O     O_R   0.286110 0.210430 0.334460 -0.525687
O40   O     O_R   0.235810 0.959820 0.673020 -0.503751
O41   O     O_R   0.764190 0.959820 0.326980 -0.502145
O42   O     O_R   0.735810 0.459820 0.673020 -0.502147
O43   O     O_R   0.264190 0.459820 0.326980 -0.503748
O44   O     O_R   0.331700 0.076900 0.669350 -0.517248
O45   O     O_R   0.445950 0.919440 0.676520 -0.496650
O46   O     O_R   0.668300 0.076900 0.330650 -0.520763
O47   O     O_R   0.831700 0.576900 0.669350 -0.520825
O48   O     O_R   0.168300 0.576900 0.330650 -0.517245
O49   O     O_3   0.332871 0.419991 0.913035 -0.548905
O50   O     O_3   0.667126 0.419990 0.086967 -0.548839
O51   O     O_3   0.832871 0.919992 0.913034 -0.548838
O52   O     O_3   0.167126 0.919991 0.086966 -0.548902
O53   O     O_R   0.554050 0.919440 0.323480 -0.501152
O54   O     O_R   0.945950 0.419440 0.676520 -0.501205
O55   O     O_R   0.054050 0.419440 0.323480 -0.496611
O56   O     O_R   0.456730 0.717630 0.669840 -0.518723

loop_
_geom_bond_atom_site_label_1
_geom_bond_atom_site_label_2
_ccdc_geom_bond_type
C44   C49   A    
C3    C104  S    
C99   O7    A    
C21   C26   A    
C73   H7    S    
C11   H47   S    
Cr2   O6    S    
C48   C95   S    
C74   H8    S    
C6    N3    T    
Cr6   O38   S    
Cr8   O18   S    
C82   C99   S    
C96   O4    A    
Cr5   O37   S    
C1    O14   A    
Cr7   O17   S    
C39   C87   S    
Cr10  O11   S    
C98   O6    A    
C35   C102  A    
Cr6   O16   S    
C59   C81   A    
C34   H26   S    
Cr7   O43   S    
C57   C62   A    
C41   H28   S    
C88   O44   A    
Cr6   O42   S    
C101  H14   S    
C105  H17   S    
Cr10  O47   S    
Cr4   O4    S    
C106  H1    S    
Cr5   O41   S    
C10   O51   S    
C10   H42   S    
C38   C86   S    
C103  C110  S    
C64   C68   A    
C37   C85   S    
C58   C107  S    
C8    H37   S    
C17   C39   A    
Cr12  O56   S    
C71   H5    S    
C81   C98   S    
C1    O18   A    
C93   O56   A    
Cr2   O28   S    
C65   C70   A    
C23   C36   S    
C98   O37   A    
C29   C33   A    
C101  C106  S    
C75   H9    S    
C60   H50   S    
Cr11  O21   S    
C3    C91   S    
C67   C72   A    
C18   C102  A    
C87   O34   A    
Cr10  O20   S    
C9    H39   S    
C90   O42   A    
C57   C79   A    
C24   C29   A    
Cr12  O5    S    
C5    C69   S    
Cr5   O10   S    
C31   H22   S    
C60   C82   A    
C78   C83   A    
C2    O50   S    
C53   C110  S    
Cr11  O48   S    
C20   C24   A    
C92   O43   A    
C50   H32   S    
C10   H43   S    
C15   N7    T    
C80   C109  S    
C70   C74   A    
Cr7   O34   S    
Cr1   O14   S    
C88   O40   A    
C92   O48   A    
C87   O35   A    
C89   O46   A    
C43   H30   S    
Cr8   O44   S    
Cr1   O36   S    
C56   O30   A    
Cr5   O15   S    
C84   O31   A    
C72   C76   A    
C13   O51   S    
C108  H23   S    
Cr3   O7    S    
C8    O49   S    
C52   H35   S    
C97   O5    A    
C22   C47   S    
C2    C19   A    
C99   O38   A    
C70   C88   S    
C11   H48   S    
C101  C103  S    
Cr7   O13   S    
C84   O1    A    
C100  O8    A    
C107  C111  S    
C109  H34   S    
C104  C105  S    
C14   N6    T    
Cr11  O13   S    
C15   C29   S    
C57   H45   S    
C40   C45   A    
C63   C67   A    
Cr10  O25   S    
C62   C66   A    
C12   C27   S    
C95   O3    A    
C34   C39   A    
C65   H4    S    
Cr2   O32   S    
C18   H18   S    
C42   H29   S    
C24   C25   S    
Cr9   O19   S    
Cr4   O30   S    
C61   C83   A    
C85   O32   A    
C76   H10   S    
C66   C92   S    
C100  O39   A    
C59   H49   S    
C68   C73   A    
C23   C28   A    
C27   C31   A    
C46   C51   A    
C51   H33   S    
C67   C90   S    
C17   C21   A    
Cr9   O10   S    
C51   C52   A    
C40   H27   S    
C61   H51   S    
C86   O33   A    
C21   H21   S    
Cr12  O9    S    
C9    H40   S    
C19   C23   A    
C66   C71   A    
Cr1   O40   S    
C56   O26   A    
C107  H12   S    
C25   O15   A    
C103  H15   S    
C55   O25   A    
Cr3   O3    S    
C3    C56   S    
C20   H20   S    
C94   O53   A    
C6    C80   S    
C12   N5    T    
C4    N1    T    
C28   C32   A    
C69   C106  S    
C64   H3    S    
Cr1   O1    S    
C80   C112  S    
C47   O17   A    
Cr7   O39   S    
C53   O22   A    
C97   O36   A    
C58   C69   S    
C42   C48   A    
C32   C37   A    
Cr4   O35   S    
C72   H6    S    
Cr6   O11   S    
C13   C38   A    
C11   H46   S    
Cr11  O55   S    
C40   C41   A    
C105  C112  S    
C45   C93   S    
C26   C30   A    
C54   O24   A    
C22   C27   A    
C1    C26   S    
C47   O21   A    
C31   C35   A    
C90   O47   A    
C75   C79   A    
C42   C43   A    
C14   C28   S    
C8    H36   S    
C78   H13   S    
C7    C91   S    
C104  C108  S    
C55   C112  S    
C106  C110  S    
C17   O52   S    
C93   O45   A    
C11   O52   S    
Cr3   O11   S    
Cr3   O29   S    
C30   C34   A    
C19   H19   S    
Cr9   O46   S    
Cr2   O10   S    
C13   C20   A    
C9    O50   S    
C18   C22   A    
Cr1   O9    S    
C91   C108  S    
C49   H31   S    
C94   O2    A    
C89   O41   A    
C25   O19   A    
C76   C81   A    
C55   O29   A    
C35   C84   S    
C16   N8    T    
C85   O12   A    
C79   C97   S    
C36   O16   A    
C32   H24   S    
Cr12  O27   S    
C58   C110  S    
C101  C111  S    
C54   C111  S    
C77   H11   S    
C86   O23   A    
C59   C63   A    
Cr8   O9    S    
Cr2   O2    S    
C60   C64   A    
C83   C100  S    
Cr8   O22   S    
C80   C91   S    
C9    H41   S    
Cr6   O23   S    
Cr5   O12   S    
C33   H25   S    
C53   O27   A    
C71   C75   A    
Cr4   O13   S    
C69   C111  S    
C2    C37   A    
Cr10  O54   S    
C105  C109  S    
C77   C82   A    
C3    C109  S    
Cr9   O53   S    
C54   O28   A    
C96   O55   A    
C41   C44   A    
C7    N4    T    
C61   C65   A    
Cr4   O8    S    
C43   C46   A    
C5    N2    T    
C63   H2    S    
C44   C94   S    
C108  C112  S    
C48   C52   A    
C46   C96   S    
C102  O49   S    
C10   H44   S    
C49   C50   A    
C74   C78   A    
C4    C58   S    
C8    H38   S    
C73   C77   A    
Cr3   O33   S    
C33   C38   A    
C103  C107  S    
C45   C50   A    
C36   O20   A    
Cr9   O24   S    
C68   C89   S    
Cr8   O45   S    
C16   C30   S    
C95   O54   A    
C62   H52   S    
C104  H16   S    
Cr11  O26   S    
Cr12  O31   S    
