data_str_m2_o10_o17_f0_pcu.sym.65
_audit_creation_date              2012-10-26T19:40:08-0400
_audit_creation_method            fapswitch 2.2
_symmetry_space_group_name_H-M    P1
_symmetry_Int_Tables_number       1
_space_group_crystal_system       triclinic
_cell_length_a                    15.034744
_cell_length_b                    8.706211
_cell_length_c                    7.423688
_cell_angle_alpha                 101.90884
_cell_angle_beta                  94.702057
_cell_angle_gamma                 92.498579
_cell_volume                      945.788089051

loop_
_atom_site_label
_atom_site_type_symbol
_atom_type_description
_atom_site_fract_x
_atom_site_fract_y
_atom_site_fract_z
_atom_type_partial_charge
C1    C     C_R   0.494584 0.200690 0.455998 0.598115
C2    C     C_R   0.177773 0.434174 0.340247 -0.056435
C3    C     C_R   0.767940 0.502935 0.496577 0.014599
C4    C     C_R   0.232058 0.496838 0.503413 0.016657
C5    C     C_R   0.805897 0.440056 0.333607 -0.083615
C6    C     C_R   0.194095 0.559604 0.666409 -0.088608
C7    C     C_R   0.898751 0.436973 0.332502 0.032279
C8    C     C_R   0.101243 0.562573 0.667544 0.032877
C9    C     C_R   0.953355 0.500494 0.498484 0.024998
C10   C     C_R   0.046641 0.499022 0.501568 0.026155
C11   C     C_R   0.914682 0.565285 0.661816 0.006662
C12   C     C_R   0.505435 0.799318 0.543971 0.586650
C13   C     C_R   0.085317 0.434264 0.338227 0.005748
C14   C     C_R   0.938504 0.371389 0.170734 0.227833
C15   C     C_R   0.061492 0.628110 0.829328 0.225650
C16   C     C_R   0.031297 0.370913 0.174795 -0.052781
C17   C     C_R   0.968702 0.628580 0.825265 -0.046691
C18   C     C_2   0.476411 0.036794 0.441784 0.169125
C19   C     C_2   0.523805 0.963226 0.557992 0.118073
C20   C     C_R   0.328727 0.498602 0.501469 0.584083
C21   C     C_R   0.671272 0.501344 0.498524 0.575787
C22   C     C_R   0.822229 0.565524 0.659755 -0.048659
Cl1   Cl    Cl    0.875145 0.286768 0.960151 -0.536285
Cl2   Cl    Cl    0.124844 0.712719 0.039923 -0.587409
Cu1   Cu    Cu3+1 0.510010 0.517380 0.684380 1.116956
Cu2   Cu    Cu3+1 0.489990 0.482620 0.315620 1.111915
H1    H     H_    0.792494 0.615131 0.785515 0.164048
H2    H     H_    0.554700 0.086721 0.954101 0.352269
H3    H     H_    0.207510 0.384670 0.214456 0.157329
H4    H     H_    0.762471 0.391626 0.209358 0.209634
H5    H     H_    0.237514 0.608072 0.790655 0.203588
H6    H     H_    0.061304 0.321003 0.049557 0.160284
H7    H     H_    0.938698 0.678479 0.950509 0.166469
H8    H     H_    0.430622 0.377631 0.948366 0.246209
H9    H     H_    0.569379 0.622358 0.051640 0.248900
H10   H     H_    0.263842 0.040924 0.163192 0.391490
N1    N     N_2   0.474890 0.456420 0.038520 -0.225112
N2    N     N_2   0.525110 0.543580 0.961480 -0.218321
O1    O     O_R   0.506510 0.286130 0.619770 -0.483675
O2    O     O_2   0.323734 0.850033 0.390624 -0.256422
O3    O     O_3   0.315641 0.096281 0.245708 -0.535906
O4    O     O_2   0.678526 0.921035 0.751022 -0.265376
O5    O     O_2   0.676613 0.149138 0.607261 -0.226547
O6    O     O_3   0.592448 0.158804 0.900727 -0.468341
O7    O     O_R   0.493490 0.713870 0.380230 -0.480308
O8    O     O_R   0.489600 0.256770 0.308360 -0.472984
O9    O     O_R   0.510400 0.743230 0.691640 -0.477763
O10   O     O_R   0.378710 0.514640 0.655720 -0.526662
O11   O     O_R   0.621290 0.485360 0.344280 -0.525896
O12   O     O_R   0.361800 0.485290 0.344300 -0.467413
O13   O     O_R   0.638200 0.514710 0.655700 -0.470623
O14   O     O_2   0.405478 0.856111 0.118727 -0.264074
S1    S     S_3+6 0.378452 0.952616 0.295775 0.034835
S2    S     S_3+6 0.621906 0.047933 0.703715 0.056691

loop_
_geom_bond_atom_site_label_1
_geom_bond_atom_site_label_2
_ccdc_geom_bond_type
C14   Cl1   S    
C2    C4    A    
Cu1   O13   S    
Cu2   N1    S    
C15   C17   A    
N1    N2    D    
O6    S2    S    
Cu1   N2    S    
C16   H6    S    
H8    N1    S    
C9    C10   A    
Cu1   O9    S    
O5    S2    D    
C18   S1    S    
Cu2   O12   S    
C21   O11   A    
C6    H5    S    
C1    C18   S    
Cu1   O1    S    
C9    C11   A    
Cu1   O10   S    
O3    S1    S    
H10   O3    S    
C20   O10   A    
C17   H7    S    
C12   O9    A    
C6    C8    A    
C12   C19   S    
C4    C6    A    
C15   Cl2   S    
C18   C19   D    
C8    C15   A    
C22   H1    S    
C2    H3    S    
C14   C16   A    
C1    O8    A    
C3    C21   S    
Cu2   O8    S    
O2    S1    D    
C4    C20   S    
C7    C9    A    
C21   O13   A    
H9    N2    S    
O14   S1    D    
C19   S2    S    
C8    C10   A    
C5    H4    S    
C13   C16   A    
C5    C7    A    
C2    C13   A    
C1    O1    A    
C11   C17   A    
C3    C22   A    
C20   O12   A    
C11   C22   A    
Cu2   O7    S    
Cu1   Cu2   S    
H2    O6    S    
C7    C14   A    
O4    S2    D    
C12   O7    A    
C3    C5    A    
C10   C13   A    
Cu2   O11   S    
