data_str_m3_o10_o18_f0_pcu.sym.133
_audit_creation_date              2012-12-10T16:52:37-0500
_audit_creation_method            fapswitch 2.2
_symmetry_space_group_name_H-M    P1
_symmetry_Int_Tables_number       1
_space_group_crystal_system       triclinic
_cell_length_a                    7.830655
_cell_length_b                    8.623243
_cell_length_c                    13.793838
_cell_angle_alpha                 93.442623
_cell_angle_beta                  93.158257
_cell_angle_gamma                 94.143498
_cell_volume                      925.672914248

loop_
_atom_site_label
_atom_site_type_symbol
_atom_type_description
_atom_site_fract_x
_atom_site_fract_y
_atom_site_fract_z
_atom_type_partial_charge
C1    C     C_R   0.044772 0.794281 0.497655 0.879100
C2    C     C_R   0.936921 0.489101 0.317961 0.852897
C3    C     C_R   0.100529 0.547393 0.785394 -0.063342
C4    C     C_R   0.907721 0.482132 0.212948 -0.050995
C5    C     C_R   0.079484 0.714122 0.930440 -0.188696
C6    C     C_R   0.966830 0.380088 0.052659 -0.189928
C7    C     C_R   0.013565 0.657396 0.838185 -0.185545
C8    C     C_R   0.014754 0.404988 0.151316 -0.189312
C9    C     C_R   0.247799 0.490945 0.825548 -0.272563
C10   C     C_R   0.762134 0.545374 0.175191 -0.267625
C11   C     C_R   0.326989 0.559309 0.912094 0.092092
C12   C     C_R   0.955254 0.205729 0.502441 0.878222
C13   C     C_R   0.712096 0.523603 0.076520 0.085679
C14   C     C_R   0.237373 0.667784 0.967107 0.170038
C15   C     C_R   0.812802 0.433457 0.015673 0.175953
C16   C     C_R   0.493112 0.523171 0.944442 0.062086
C17   C     C_R   0.557402 0.578483 0.038936 0.059147
C18   C     C_R   0.465054 0.686510 0.092596 -0.223055
C19   C     C_R   0.598894 0.437489 0.884288 -0.226417
C20   C     C_R   0.308239 0.730982 0.056644 -0.218562
C21   C     C_R   0.756650 0.394673 0.919449 -0.217019
C22   C     C_2   0.068473 0.956928 0.496462 0.262661
C23   C     C_2   0.931589 0.043092 0.503780 0.260616
C24   C     C_R   0.063748 0.513889 0.681923 0.851681
F1    F     F_    0.232379 0.017675 0.487847 -0.631347
F2    F     F_    0.767700 0.982351 0.512459 -0.631618
H1    H     H_    0.242275 0.815268 0.099156 0.153957
H2    H     H_    0.565785 0.405639 0.808469 0.164331
H3    H     H_    0.487430 0.374592 0.427839 0.214172
H4    H     H_    0.512574 0.625364 0.572195 0.214742
H5    H     H_    0.833417 0.328091 0.871553 0.154746
H6    H     H_    0.683130 0.602281 0.225744 0.165289
H7    H     H_    0.302024 0.397456 0.785065 0.156694
H8    H     H_    0.129916 0.357279 0.180022 0.163412
H9    H     H_    0.898799 0.702733 0.807066 0.166441
H10   H     H_    0.010956 0.798426 0.971294 0.141288
H11   H     H_    0.046670 0.314582 0.006055 0.143225
H12   H     H_    0.514002 0.743926 0.161123 0.160709
N1    N     N_2   0.440860 0.456490 0.474790 -0.149025
N2    N     N_2   0.559140 0.543510 0.525210 -0.149894
O1    O     O_R   0.891570 0.738930 0.506190 -0.571745
O2    O     O_R   0.108430 0.261070 0.493810 -0.571178
O3    O     O_R   0.174650 0.711050 0.490030 -0.577518
O4    O     O_R   0.825350 0.288950 0.509970 -0.578213
O5    O     O_R   0.909850 0.521900 0.644940 -0.624686
O6    O     O_R   0.090150 0.478100 0.355060 -0.621142
O7    O     O_R   0.192930 0.494020 0.628780 -0.618544
O8    O     O_R   0.807070 0.505980 0.371220 -0.624038
Zn1   Zn    Zn3+2 0.810990 0.518620 0.510790 1.004381
Zn2   Zn    Zn3+2 0.189010 0.481380 0.489210 1.008449

loop_
_geom_bond_atom_site_label_1
_geom_bond_atom_site_label_2
_ccdc_geom_bond_type
O4    Zn1   S    
C2    C4    S    
C10   C13   A    
O3    Zn2   S    
C3    C9    A    
C20   H1    S    
O5    Zn1   S    
C9    C11   A    
C11   C16   A    
O6    Zn2   S    
C18   C20   A    
C13   C17   A    
C4    C8    A    
H3    N1    S    
C17   C18   A    
C5    C14   A    
C6    H11   S    
H4    N2    S    
C1    C22   S    
C12   O4    A    
C8    H8    S    
C2    O6    A    
C9    H7    S    
C19   H2    S    
C21   H5    S    
C12   C23   S    
C3    C24   S    
O2    Zn2   S    
C16   C19   A    
C6    C8    A    
C24   O5    A    
O1    Zn1   S    
O8    Zn1   S    
C19   C21   A    
O7    Zn2   S    
C3    C7    A    
C13   C15   A    
C18   H12   S    
C11   C14   A    
C4    C10   A    
N2    Zn1   S    
C5    H10   S    
C10   H6    S    
C15   C21   A    
N1    Zn2   S    
C14   C20   A    
C23   F2    S    
C1    O1    A    
N1    N2    D    
C5    C7    A    
C22   C23   D    
C12   O2    A    
C2    O8    A    
C6    C15   A    
C24   O7    A    
C7    H9    S    
C1    O3    A    
C16   C17   A    
C22   F1    S    
