data_str_m2_o10_o29_f0_pcu.sym.142
_audit_creation_date              2012-12-10T16:51:13-0500
_audit_creation_method            fapswitch 2.2
_symmetry_space_group_name_H-M    P1
_symmetry_Int_Tables_number       1
_space_group_crystal_system       triclinic
_cell_length_a                    27.766058
_cell_length_b                    8.682374
_cell_length_c                    7.468996
_cell_angle_alpha                 103.526969
_cell_angle_beta                  94.239162
_cell_angle_gamma                 92.754351
_cell_volume                      1741.88335699

loop_
_atom_site_label
_atom_site_type_symbol
_atom_type_description
_atom_site_fract_x
_atom_site_fract_y
_atom_site_fract_z
_atom_type_partial_charge
C1    C     C_R   0.498501 0.199528 0.452785 0.864437
C2    C     C_R   0.501469 0.800469 0.547218 0.865493
C3    C     C_R   0.100915 0.482594 0.494678 -0.106876
C4    C     C_R   0.897083 0.500380 0.455748 -0.100857
C5    C     C_R   0.122633 0.341067 0.422158 -0.046535
C6    C     C_R   0.875695 0.646864 0.498708 -0.051948
C7    C     C_R   0.093919 0.207479 0.323840 -0.198895
C8    C     C_R   0.904783 0.788254 0.539196 -0.200832
C9    C     C_R   0.130491 0.620211 0.582488 -0.132104
C10   C     C_R   0.867322 0.357609 0.414187 -0.114261
C11   C     C_R   0.354605 0.492047 0.505329 -0.110366
C12   C     C_R   0.645402 0.504456 0.491602 -0.111004
C13   C     C_R   0.969318 0.349671 0.399451 0.002117
C14   C     C_R   0.028552 0.631153 0.550685 -0.006624
C15   C     C_R   0.977756 0.640485 0.519322 0.042764
C16   C     C_R   0.020407 0.347158 0.390712 0.045280
C17   C     C_R   0.948176 0.496934 0.456858 -0.003708
C18   C     C_R   0.049796 0.486725 0.478888 -0.008836
C19   C     C_R   0.938710 0.209238 0.359268 -0.151277
C20   C     C_R   0.058618 0.758986 0.661348 -0.116431
C21   C     C_R   0.888742 0.211482 0.359923 0.379976
C22   C     C_R   0.108702 0.755694 0.677625 0.412867
C23   C     C_R   0.407541 0.498648 0.502097 0.830187
C24   C     C_R   0.592479 0.500651 0.497600 0.832666
C25   C     C_R   0.043465 0.211417 0.297760 0.410566
C26   C     C_R   0.955345 0.787515 0.548694 0.383982
C27   C     C_2   0.497813 0.031182 0.426669 -0.353229
C28   C     C_2   0.502117 0.968812 0.573341 -0.352501
C29   C     C_R   0.173197 0.338415 0.442257 0.621939
C30   C     C_R   0.825226 0.648869 0.497559 0.617972
C31   C     C_R   0.180749 0.617571 0.568873 0.644090
C32   C     C_R   0.817467 0.366595 0.436987 0.636754
C33   C     C_R   0.282669 0.532371 0.673757 0.362889
C34   C     C_R   0.715831 0.473668 0.314221 0.357697
C35   C     C_R   0.333275 0.537938 0.672057 -0.329596
C36   C     C_R   0.665530 0.471826 0.321181 -0.319709
C37   C     C_R   0.325163 0.437379 0.339947 -0.343778
C38   C     C_R   0.675979 0.541635 0.656104 -0.348606
C39   C     C_R   0.274614 0.424212 0.339101 0.432167
C40   C     C_R   0.726687 0.553164 0.651864 0.435625
C41   C     C_R   0.253244 0.476519 0.506493 0.238662
C42   C     C_R   0.746101 0.514127 0.479484 0.266519
Cu1   Cu    Cu3+1 0.505380 0.517380 0.684380 1.029305
Cu2   Cu    Cu3+1 0.494620 0.482620 0.315620 1.028869
H1    H     H_    0.341533 0.403084 0.210886 0.173001
H2    H     H_    0.659905 0.559294 0.785948 0.166004
H3    H     H_    0.110957 0.101784 0.257563 0.189014
H4    H     H_    0.888239 0.900942 0.564378 0.214099
H5    H     H_    0.642212 0.442085 0.193423 0.177087
H6    H     H_    0.355890 0.579984 0.800565 0.173574
H7    H     H_    0.952520 0.093292 0.330921 0.243460
H8    H     H_    0.043888 0.859864 0.748203 0.215604
H9    H     H_    0.493796 0.958341 0.285888 0.191526
H10   H     H_    0.506129 0.041652 0.714123 0.191712
N1    N     N_R   0.201333 0.476937 0.506667 -0.430368
N2    N     N_R   0.797489 0.510178 0.471631 -0.422108
N3    N     N_2   0.486510 0.456430 0.038510 0.138746
N4    N     N_2   0.513490 0.543570 0.961490 0.138235
O1    O     O_R   0.503500 0.286120 0.619780 -0.536572
O2    O     O_R   0.496500 0.713880 0.380220 -0.536365
O3    O     O_R   0.494410 0.256780 0.308360 -0.608954
O4    O     O_R   0.505590 0.743220 0.691640 -0.608460
O5    O     O_R   0.434810 0.514700 0.655690 -0.542785
O6    O     O_R   0.565190 0.485300 0.344310 -0.544043
O7    O     O_R   0.425720 0.485350 0.344280 -0.611700
O8    O     O_R   0.574280 0.514650 0.655720 -0.611459
O9    O     O_2   0.194019 0.198942 0.396802 -0.549807
O10   O     O_2   0.804002 0.788008 0.523125 -0.545466
O11   O     O_2   0.789216 0.234455 0.430726 -0.521056
O12   O     O_2   0.208670 0.754617 0.610386 -0.516753
O13   O     O_3   0.453007 0.357301 0.924844 -0.615685
H11   H     H_    0.435724 0.302515 0.005985 0.324375
O14   O     O_3   0.546955 0.642818 0.075180 -0.616981
H12   H     H_    0.564202 0.697696 0.994040 0.324916
O15   O     O_3   0.245460 0.372048 0.174271 -0.580659
C43   C     C_3   0.256621 0.218019 0.078620 0.125196
H13   H     H_    0.222495 0.140815 0.047841 0.207424
H14   H     H_    0.281888 0.158572 0.160312 0.132344
C44   C     C_3   0.276503 0.224494 0.894460 -0.354096
H15   H     H_    0.246745 0.247836 0.798345 0.269211
H16   H     H_    0.305129 0.322133 0.915978 0.222646
C45   C     C_3   0.298132 0.069514 0.806391 -0.836428
H17   H     H_    0.330781 0.051871 0.892734 0.236259
H18   H     H_    0.308781 0.073778 0.667108 0.265863
H19   H     H_    0.271345 0.967743 0.792578 0.311412
O16   O     O_3   0.758832 0.588881 0.810671 -0.584002
C46   C     C_3   0.745491 0.717361 0.949647 0.105219
H20   H     H_    0.771974 0.729999 0.072098 0.216605
H21   H     H_    0.709997 0.692963 0.999783 0.134882
C47   C     C_3   0.747926 0.875752 0.891198 -0.379138
H22   H     H_    0.786289 0.911149 0.878537 0.260243
H23   H     H_    0.727074 0.864534 0.755521 0.244633
C48   C     C_3   0.727081 0.005636 0.032939 -0.840462
H24   H     H_    0.744873 0.013568 0.172941 0.303087
H25   H     H_    0.687548 0.979766 0.034157 0.244912
H26   H     H_    0.733133 0.121195 0.996225 0.291940
O17   O     O_3   0.736515 0.435460 0.148430 -0.723043
H27   H     H_    0.710465 0.407529 0.045815 0.326668
O18   O     O_3   0.260983 0.579717 0.836622 -0.704658
H28   H     H_    0.286423 0.616874 0.940359 0.331834
O19   O     O_3   0.862233 0.067849 0.302183 -0.694917
H29   H     H_    0.835849 0.081277 0.211408 0.355225
O20   O     O_3   0.134552 0.884034 0.795471 -0.700589
H30   H     H_    0.161590 0.843572 0.861470 0.354403
O21   O     O_3   0.017302 0.090582 0.168317 -0.737121
H31   H     H_    0.038976 0.007298 0.115579 0.334169
O22   O     O_3   0.982724 0.929036 0.572339 -0.743775
H32   H     H_    0.962488 0.018959 0.616482 0.327076

loop_
_geom_bond_atom_site_label_1
_geom_bond_atom_site_label_2
_ccdc_geom_bond_type
C46   H20   S    
C48   H24   S    
C8    C26   A    
O14   H12   S    
C14   C18   A    
C34   C42   A    
C43   C44   S    
Cu1   Cu2   S    
O17   H27   S    
N3    N4    D    
C25   O21   S    
C39   C41   A    
Cu2   O6    S    
O19   H29   S    
C19   C21   A    
C43   H14   S    
C1    O1    A    
C2    O2    A    
C9    C22   A    
C34   O17   S    
C3    C18   A    
C40   O16   S    
C11   C23   S    
C11   C37   A    
C41   N1    S    
Cu1   N4    S    
C42   N2    S    
C29   O9    S    
C31   O12   S    
O22   H32   S    
C39   O15   S    
C12   C36   A    
Cu1   O1    S    
C21   O19   S    
C23   O5    A    
C24   O6    A    
Cu2   O7    S    
C5    C29   A    
C10   C21   A    
C13   C19   A    
Cu1   O5    S    
C14   C20   A    
C43   H13   S    
C4    C6    A    
C5    C7    A    
C28   H10   S    
O16   C46   S    
C15   C26   A    
C6    C8    A    
C29   N1    A    
C30   N2    A    
C22   O20   S    
C33   O18   S    
C7    H3    S    
O15   C43   S    
C8    H4    S    
C3    C9    A    
C19   H7    S    
C47   H23   S    
O18   H28   S    
Cu2   N3    S    
C35   H6    S    
N3    O13   S    
C4    C17   A    
C6    C30   A    
C20   C22   A    
C48   H26   S    
C45   H18   S    
C46   H21   S    
C13   C16   A    
C37   H1    S    
O20   H30   S    
C47   C48   S    
C44   H16   S    
C16   C25   A    
C15   C17   A    
C3    C5    A    
C1    O3    A    
C26   O22   S    
C44   C45   S    
C27   H9    S    
C32   O11   S    
C24   O8    A    
Cu2   O3    S    
C45   H19   S    
O21   H31   S    
C12   C24   S    
C7    C25   A    
C13   C17   A    
C20   H8    S    
C33   C41   A    
C23   O7    A    
C11   C35   A    
O13   H11   S    
C37   C39   A    
C38   C40   A    
C47   H22   S    
C48   H25   S    
Cu2   O2    S    
Cu1   O8    S    
C40   C42   A    
C33   C35   A    
C34   C36   A    
C12   C38   A    
C38   H2    S    
C9    C31   A    
C44   H15   S    
C10   C32   A    
N4    O14   S    
C16   C18   A    
C45   H17   S    
C46   C47   S    
C27   C28   D    
C1    C27   S    
C14   C15   A    
C2    C28   S    
C31   N1    A    
C4    C10   A    
C32   N2    A    
C30   O10   S    
C36   H5    S    
C2    O4    A    
Cu1   O4    S    
