data_str_m12_o9_o12_f0_bcu.sym.20
_audit_creation_date              2012-12-11T17:41:33-0500
_audit_creation_method            fapswitch 2.2
_symmetry_space_group_name_H-M    P1
_symmetry_Int_Tables_number       1
_space_group_crystal_system       triclinic
_cell_length_a                    15.592742
_cell_length_b                    14.929242
_cell_length_c                    14.883308
_cell_angle_alpha                 109.542615
_cell_angle_beta                  121.426285
_cell_angle_gamma                 59.371452
_cell_volume                      2532.75755373

loop_
_atom_site_label
_atom_site_type_symbol
_atom_type_description
_atom_site_fract_x
_atom_site_fract_y
_atom_site_fract_z
_atom_type_partial_charge
C1    C     C_R   0.748908 0.997433 0.791867 -0.092338
C2    C     C_R   0.144449 0.219680 0.969293 -0.209948
C3    C     C_R   0.694637 0.646981 0.884962 0.476406
C4    C     C_R   0.251712 0.148571 0.980653 0.545637
C5    C     C_R   0.691380 0.744117 0.945121 -0.075977
C6    C     C_R   0.279383 0.039688 0.964000 -0.149836
C7    C     C_R   0.788976 0.759624 0.003050 -0.274874
C8    C     C_R   0.197989 0.005418 0.932274 -0.179369
C9    C     C_R   0.888064 0.681019 0.000940 -0.071914
C10   C     C_R   0.091510 0.077332 0.919877 -0.105307
C11   C     C_R   0.891264 0.585769 0.941331 -0.082436
C12   C     C_R   0.197366 0.061248 0.225243 -0.131959
C13   C     C_R   0.064907 0.184306 0.938831 -0.146004
C14   C     C_R   0.584726 0.847916 0.051080 -0.133384
C15   C     C_R   0.392984 0.929658 0.872517 -0.044111
C16   C     C_R   0.243547 0.289980 0.490566 -0.113067
C17   C     C_R   0.799200 0.725030 0.558642 -0.126641
C18   C     C_R   0.487255 0.922014 0.061714 0.100631
C19   C     C_R   0.494574 0.881941 0.868806 0.131609
C20   C     C_R   0.388432 0.959997 0.968691 0.086759
C21   C     C_R   0.589521 0.827252 0.954619 0.101532
C22   C     C_2   0.148469 0.396135 0.612339 -0.162659
C23   C     C_R   0.211358 0.298971 0.565712 0.129393
C24   C     C_2   0.973734 0.650836 0.534130 -0.121605
C25   C     C_2   0.129563 0.488514 0.595919 -0.080661
C26   C     C_2   0.034499 0.580762 0.604831 -0.059819
C27   C     C_2   0.827874 0.132451 0.901655 -0.231516
C28   C     C_2   0.020534 0.039156 0.152268 -0.137156
C29   C     C_R   0.174856 0.766217 0.466928 0.616577
C30   C     C_R   0.780354 0.126867 0.321800 0.660474
C31   C     C_R   0.270842 0.681671 0.463112 -0.338030
C32   C     C_R   0.685878 0.214593 0.324743 -0.346446
C33   C     C_R   0.282030 0.646562 0.367995 -0.192331
C34   C     C_R   0.860621 0.725120 0.517220 0.129680
C35   C     C_R   0.693783 0.292617 0.409871 -0.195301
C36   C     C_R   0.193675 0.693567 0.274334 0.491654
C37   C     C_R   0.799301 0.280370 0.494866 0.561137
C38   C     C_R   0.096248 0.775655 0.278532 -0.357476
C39   C     C_R   0.893764 0.194315 0.488413 -0.282399
C40   C     C_R   0.591414 0.215577 0.483543 -0.053427
C41   C     C_R   0.405059 0.771312 0.442671 -0.081475
C42   C     C_R   0.087908 0.812159 0.374366 -0.298472
C43   C     C_R   0.884430 0.118683 0.402314 -0.291492
C44   C     C_R   0.393001 0.462781 0.349642 -0.109965
C45   C     C_R   0.499737 0.295560 0.423285 0.104577
C46   C     C_R   0.583002 0.484771 0.412028 -0.169115
C47   C     C_R   0.495149 0.377506 0.384895 0.032355
C48   C     C_R   0.486477 0.573976 0.408616 0.054120
C49   C     C_R   0.590270 0.385562 0.404852 0.188296
C50   C     C_R   0.387939 0.561774 0.369872 0.184463
C51   C     C_2   0.856515 0.106728 0.994323 -0.044139
C52   C     C_2   0.955034 0.114401 0.086385 -0.134416
C53   C     C_R   0.408435 0.979043 0.711214 -0.065416
C54   C     C_R   0.588398 0.949012 0.264762 -0.044942
C55   C     C_R   0.408617 0.286162 0.406870 -0.108441
C56   C     C_R   0.493559 0.675190 0.453701 0.069208
C57   C     C_R   0.588901 0.693278 0.521610 -0.114223
C58   C     C_R   0.590925 0.906146 0.787073 -0.119609
C59   C     C_R   0.404489 0.022488 0.193433 -0.079137
C60   C     C_R   0.242543 0.198609 0.582835 -0.107547
C61   C     C_R   0.800250 0.815517 0.467035 -0.130976
C62   C     C_R   0.749335 0.090634 0.701503 -0.103694
C63   C     C_R   0.196876 0.969892 0.315527 -0.154920
C64   C     C_R   0.775275 0.077329 0.802257 0.136286
C65   C     C_R   0.134983 0.021327 0.225634 0.145501
C66   C     C_R   0.499283 0.918723 0.792024 0.098339
C67   C     C_R   0.493193 0.961035 0.168817 0.090522
C68   C     C_R   0.795156 0.568805 0.883630 -0.279846
H1    H     H_    0.993599 0.982105 0.145563 0.190352
H2    H     H_    0.316702 0.960727 0.803720 0.136850
H3    H     H_    0.005162 0.581988 0.657408 0.150403
H4    H     H_    0.170334 0.493652 0.558109 0.140766
H5    H     H_    0.003937 0.647872 0.481327 0.148825
H6    H     H_    0.106314 0.392010 0.649434 0.175166
H7    H     H_    0.014547 0.877720 0.377561 0.233092
H8    H     H_    0.958549 0.053034 0.399587 0.188535
H9    H     H_    0.231032 0.351698 0.456722 0.094834
H10   H     H_    0.826204 0.673707 0.613659 0.124416
H11   H     H_    0.338625 0.645203 0.534445 0.242008
H12   H     H_    0.858684 0.181664 0.898939 0.136887
H13   H     H_    0.605572 0.222386 0.260786 0.241712
H14   H     H_    0.027715 0.813804 0.208415 0.212551
H15   H     H_    0.975177 0.184553 0.551347 0.204433
H16   H     H_    0.316879 0.456990 0.323071 0.124521
H17   H     H_    0.655036 0.492499 0.427668 0.156076
H18   H     H_    0.676764 0.191636 0.503586 0.111755
H19   H     H_    0.319838 0.791378 0.391257 0.102836
H20   H     H_    0.323726 0.324305 0.351523 0.095229
H21   H     H_    0.673607 0.636075 0.548243 0.140403
H22   H     H_    0.675571 0.854262 0.829369 0.120221
H23   H     H_    0.968398 0.524829 0.940038 0.181431
H24   H     H_    0.318550 0.043939 0.143422 0.104393
H25   H     H_    0.229682 0.177063 0.635929 0.126961
H26   H     H_    0.830610 0.846908 0.439460 0.170097
H27   H     H_    0.758800 0.147045 0.681104 0.135654
H28   H     H_    0.165614 0.945149 0.348486 0.125070
H29   H     H_    0.982248 0.170252 0.090464 0.127925
H30   H     H_    0.824420 0.058954 0.997669 0.172330
H31   H     H_    0.757651 0.965944 0.853144 0.109386
H32   H     H_    0.168372 0.118413 0.175232 0.097924
H33   H     H_    0.799839 0.493935 0.838805 0.219633
H34   H     H_    0.982426 0.240511 0.929282 0.145868
H35   H     H_    0.121619 0.303047 0.983176 0.177879
H36   H     H_    0.652289 0.462839 0.853295 0.340422
H37   H     H_    0.470404 0.167830 0.968975 0.398804
H38   H     H_    0.120519 0.975377 0.667428 0.373099
H39   H     H_    0.836922 0.857207 0.224503 0.352573
H40   H     H_    0.330293 0.710589 0.202630 0.333610
H41   H     H_    0.682023 0.499534 0.641352 0.379065
H42   H     H_    0.323204 0.993603 0.680889 0.129641
H43   H     H_    0.672701 0.902617 0.276766 0.150772
H44   H     H_    0.787420 0.833832 0.047700 0.207735
H45   H     H_    0.217121 0.922659 0.916540 0.189953
H46   H     H_    0.962403 0.694017 0.045697 0.193999
H47   H     H_    0.029871 0.049483 0.894939 0.148498
H48   H     H_    0.658556 0.808814 0.118266 0.116849
N1    N     N_R   0.705410 0.966550 0.689210 -0.049937
N2    N     N_R   0.556610 0.796750 0.548620 -0.045617
N3    N     N_R   0.556610 0.951620 0.703500 -0.050584
N4    N     N_R   0.443390 0.048380 0.296500 -0.049145
N5    N     N_R   0.294590 0.131500 0.522480 -0.049485
N6    N     N_R   0.705410 0.868500 0.477520 -0.056205
N7    N     N_R   0.705410 0.023370 0.632390 -0.048822
N8    N     N_R   0.294590 0.976630 0.367610 -0.051318
N9    N     N_R   0.294590 0.033450 0.310790 -0.051286
N10   N     N_R   0.294590 0.188320 0.465660 -0.048669
N11   N     N_R   0.705410 0.811680 0.534340 -0.050853
N12   N     N_R   0.556610 0.157790 0.497330 -0.055254
N13   N     N_R   0.443390 0.842210 0.502670 -0.044090
N14   N     N_R   0.443390 0.997080 0.657540 -0.051819
N15   N     N_R   0.556610 0.002920 0.342460 -0.054793
N16   N     N_R   0.443390 0.203250 0.451380 -0.047172
Ni1   Ni    Ni4+2 0.629830 0.882720 0.617850 0.232981
Ni2   Ni    Ni4+2 0.370170 0.117280 0.382150 0.221734
Ni3   Ni    Ni4+2 0.629830 0.013030 0.487540 0.247853
Ni4   Ni    Ni4+2 0.370170 0.986970 0.512460 0.237769
O1    O     O_2   0.507915 0.663814 0.872128 -0.262653
O2    O     O_2   0.650277 0.050120 0.141765 -0.260764
O3    O     O_2   0.834995 0.005584 0.165705 -0.382329
O4    O     O_3   0.819675 0.916725 0.276644 -0.613528
O5    O     O_2   0.195337 0.554697 0.106081 -0.234992
O6    O     O_2   0.117491 0.738058 0.077785 -0.322566
O7    O     O_3   0.330420 0.640186 0.176341 -0.482562
O8    O     O_2   0.913416 0.304359 0.705291 -0.288341
O9    O     O_2   0.842526 0.446434 0.604963 -0.368958
O10   O     O_3   0.703454 0.423469 0.633718 -0.509277
O11   O     O_2   0.507557 0.670337 0.709818 -0.283033
O12   O     O_3   0.611906 0.490569 0.783724 -0.474189
O13   O     O_2   0.288149 0.311825 0.995928 -0.243428
O14   O     O_2   0.423116 0.190575 0.133042 -0.300028
O15   O     O_3   0.423744 0.131190 0.948051 -0.541012
O16   O     O_2   0.066799 0.813788 0.579670 -0.320105
O17   O     O_2   0.267305 0.761062 0.677715 -0.217552
O18   O     O_3   0.142448 0.945571 0.608471 -0.590542
S1    S     S_3+6 0.575954 0.620122 0.811635 -0.025942
S2    S     S_3+6 0.347986 0.198810 0.017029 -0.028162
S3    S     S_3+6 0.163914 0.819457 0.587382 -0.050803
S4    S     S_3+6 0.768701 0.024554 0.220724 -0.098487
S5    S     S_3+6 0.206223 0.656442 0.154194 -0.033192
S6    S     S_3+6 0.817487 0.365313 0.612989 -0.085621

loop_
_geom_bond_atom_site_label_1
_geom_bond_atom_site_label_2
_ccdc_geom_bond_type
C53   H42   S    
N9    Ni2   S    
C41   N13   A    
C63   C65   A    
C59   N4    A    
C29   C42   A    
N4    N15   A    
H36   O12   S    
C3    C68   A    
C48   C56   S    
O6    S5    D    
N1    Ni1   S    
C1    H31   S    
C63   N8    A    
C47   C49   A    
C7    H44   S    
C15   C19   A    
C32   H13   S    
C46   C49   A    
C42   H7    S    
N3    Ni1   S    
C57   H21   S    
C9    H46   S    
C14   C21   A    
C35   C37   A    
O13   S2    D    
C24   C26   D    
C38   C42   A    
N15   Ni3   S    
C24   H5    S    
O10   S6    S    
C40   N12   A    
C52   H29   S    
H39   O4    S    
N3    N14   A    
C56   C57   A    
O1    S1    D    
C19   C66   S    
C30   S4    S    
C16   H9    S    
C40   H18   S    
N6    N11   A    
C2    C13   A    
C14   C18   A    
C58   N3    A    
C62   C64   A    
C33   C50   S    
C36   S5    S    
C59   C67   A    
O5    S5    D    
H41   O10   S    
O3    S4    D    
C27   C51   D    
H38   O18   S    
C22   C25   D    
C35   C49   S    
C31   C33   A    
C33   C36   A    
O12   S1    S    
O8    S6    D    
O11   S1    D    
N4    Ni2   S    
C44   C47   A    
C46   H17   S    
O4    S4    S    
C60   H25   S    
C51   H30   S    
C48   C50   A    
O14   S2    D    
C62   H27   S    
C38   H14   S    
C26   H3    S    
C23   C60   A    
H37   O15   S    
N12   N16   A    
C62   N7    A    
C25   C26   S    
C58   C66   A    
C45   C47   S    
C40   C45   A    
C41   H19   S    
C46   C48   A    
N8    N9    A    
N8    Ni4   S    
C29   S3    S    
C51   C52   S    
C32   C35   A    
C68   H33   S    
O18   S3    S    
C4    C6    A    
C27   H12   S    
N12   Ni3   S    
C5    C7    A    
O9    S6    D    
C61   H26   S    
C17   N11   A    
C6    C8    A    
C12   N9    A    
C44   H16   S    
C18   C67   S    
C63   H28   S    
C34   C61   A    
C24   C34   S    
N7    Ni3   S    
C15   C20   A    
C2    C4    A    
C41   C56   A    
C54   N15   A    
N13   Ni4   S    
C9    C11   A    
O2    S4    D    
C28   H1    S    
C3    S1    S    
C25   H4    S    
C1    N1    A    
O15   S2    S    
O7    S5    S    
C53   C66   A    
C58   H22   S    
C45   C55   A    
N2    Ni1   S    
C8    H45   S    
N16   Ni2   S    
C4    S2    S    
C16   C23   A    
C30   C43   A    
C17   C34   A    
C22   H6    S    
C1    C64   A    
C11   C68   A    
C37   S6    S    
C44   C50   A    
C43   H8    S    
C7    C9    A    
C15   H2    S    
O16   S3    D    
C19   C21   A    
N14   Ni4   S    
N11   Ni1   S    
C3    C5    A    
C10   C13   A    
C39   C43   A    
C31   H11   S    
C54   C67   A    
C6    C20   S    
C12   C65   A    
C36   C38   A    
C28   C65   S    
N1    N7    A    
C39   H15   S    
N5    N10   A    
C29   C31   A    
N2    N13   A    
C30   C32   A    
C28   C52   D    
C2    H35   S    
C14   H48   S    
C17   H10   S    
C54   H43   S    
C55   H20   S    
C18   C20   A    
C59   H24   S    
N5    Ni4   S    
O17   S3    D    
C60   N5    A    
N6    Ni3   S    
C12   H32   S    
C27   C64   S    
C11   H23   S    
C37   C39   A    
C5    C21   S    
N10   Ni2   S    
C8    C10   A    
C55   N16   A    
C22   C23   S    
C61   N6    A    
C53   N14   A    
C13   H34   S    
C16   N10   A    
H40   O7    S    
C10   H47   S    
C57   N2    A    
