data_str_m3_o10_o29_f0_pcu.sym.24
_audit_creation_date              2012-12-10T16:59:19-0500
_audit_creation_method            fapswitch 2.2
_symmetry_space_group_name_H-M    P1
_symmetry_Int_Tables_number       1
_space_group_crystal_system       triclinic
_cell_length_a                    7.754888
_cell_length_b                    8.554673
_cell_length_c                    27.580369
_cell_angle_alpha                 90.017717
_cell_angle_beta                  86.620527
_cell_angle_gamma                 94.024203
_cell_volume                      1821.99776144

loop_
_atom_site_label
_atom_site_type_symbol
_atom_type_description
_atom_site_fract_x
_atom_site_fract_y
_atom_site_fract_z
_atom_type_partial_charge
Br1   Br    Br    0.909711 0.503419 0.742291 -0.488110
Br2   Br    Br    0.108034 0.548440 0.254702 -0.459773
Br3   Br    Br    0.967106 0.822072 0.017069 -0.498723
Br4   Br    Br    0.435599 0.997532 0.991455 -0.562367
C1    C     C_R   0.546111 0.794817 0.498637 0.954568
C2    C     C_R   0.599647 0.658199 0.122971 -0.179007
C3    C     C_R   0.510629 0.476624 0.646497 -0.221501
C4    C     C_R   0.494106 0.530366 0.353543 -0.227130
C5    C     C_R   0.647252 0.613162 0.021529 -0.062199
C6    C     C_R   0.491594 0.340734 0.978405 -0.087490
C7    C     C_R   0.461000 0.368238 0.028696 0.116858
C8    C     C_R   0.638397 0.605038 0.970468 0.136460
C9    C     C_R   0.543619 0.502066 0.050271 0.054471
C10   C     C_R   0.563650 0.467075 0.949091 0.042660
C11   C     C_R   0.748278 0.731421 0.045252 0.145899
C12   C     C_R   0.453888 0.205182 0.501352 0.956743
C13   C     C_R   0.452318 0.193750 0.956015 0.125200
C14   C     C_R   0.710832 0.764115 0.094457 0.486214
C15   C     C_R   0.450833 0.182764 0.905173 0.454911
C16   C     C_R   0.502864 0.495405 0.593955 0.913717
C17   C     C_R   0.497753 0.506311 0.406047 0.914473
C18   C     C_R   0.687276 0.735617 0.940415 -0.114127
C19   C     C_R   0.340749 0.272767 0.057648 -0.165690
C20   C     C_2   0.570162 0.958642 0.497833 -0.377489
C21   C     C_2   0.429836 0.041353 0.502128 -0.376914
C22   C     C_R   0.588034 0.584647 0.819595 0.578189
C23   C     C_R   0.557795 0.457350 0.898120 -0.126138
C24   C     C_R   0.415324 0.425889 0.179925 0.585044
C25   C     C_R   0.501457 0.311503 0.824719 0.578955
C26   C     C_R   0.570675 0.676563 0.173537 0.599974
C27   C     C_R   0.374868 0.415740 0.726222 -0.228237
C28   C     C_R   0.641481 0.581933 0.274872 -0.223582
C29   C     C_R   0.361659 0.429265 0.676195 0.470463
C30   C     C_R   0.647909 0.571005 0.325021 0.462177
C31   C     C_R   0.672133 0.496872 0.666955 -0.325171
C32   C     C_R   0.334649 0.522394 0.331770 -0.333410
C33   C     C_R   0.685349 0.477612 0.716516 0.360115
C34   C     C_R   0.521534 0.524549 0.100933 -0.126119
C35   C     C_R   0.328649 0.545123 0.281949 0.375700
C36   C     C_R   0.535285 0.441795 0.746502 0.156370
C37   C     C_R   0.483539 0.566336 0.252928 0.139351
C38   C     C_3   0.827418 0.758360 0.357249 0.144726
C39   C     C_3   0.995277 0.789796 0.382599 -0.750803
C40   C     C_3   0.177239 0.240460 0.646465 0.135974
C41   C     C_3   0.007555 0.209788 0.621941 -0.744414
C42   C     C_3   0.717519 0.027550 0.104754 0.166950
C43   C     C_3   0.813339 0.167728 0.127381 -0.696083
C44   C     C_3   0.232048 0.009576 0.883686 0.160268
C45   C     C_R   0.605765 0.591309 0.869429 -0.016455
C46   C     C_3   0.191045 0.844356 0.865175 -0.668360
C47   C     C_R   0.421376 0.412060 0.129618 -0.006405
C48   C     C_R   0.668334 0.729813 0.890940 -0.110633
C49   C     C_R   0.329005 0.288400 0.107629 -0.164820
C50   C     C_R   0.501128 0.315665 0.875887 -0.187459
H1    H     H_    0.788706 0.528693 0.644515 0.221865
H2    H     H_    0.250574 0.188074 0.042065 0.213456
H3    H     H_    0.702356 0.010558 0.493721 0.179053
H4    H     H_    0.297642 0.989433 0.506233 0.179211
H5    H     H_    0.719229 0.794022 0.382353 0.116425
H6    H     H_    0.834449 0.831998 0.323771 0.169941
H7    H     H_    0.107488 0.768186 0.357266 0.259349
H8    H     H_    0.007624 0.913841 0.394553 0.197848
H9    H     H_    0.996052 0.712487 0.414907 0.260732
H10   H     H_    0.170579 0.169352 0.680450 0.163500
H11   H     H_    0.283625 0.201819 0.621252 0.117617
H12   H     H_    0.214428 0.498644 0.353367 0.224316
H13   H     H_    0.008626 0.282006 0.588447 0.258690
H14   H     H_    0.989903 0.084096 0.612033 0.199031
H15   H     H_    0.897447 0.239282 0.647023 0.262021
H16   H     H_    0.580625 0.020114 0.119831 0.172990
H17   H     H_    0.720191 0.048311 0.064850 0.172282
H18   H     H_    0.948664 0.180099 0.111826 0.245757
H19   H     H_    0.749898 0.276205 0.119371 0.195542
H20   H     H_    0.813095 0.152258 0.167365 0.285368
H21   H     H_    0.177460 0.094033 0.859053 0.149925
H22   H     H_    0.167303 0.018796 0.920618 0.172518
H23   H     H_    0.013684 0.384214 0.463554 0.201201
H24   H     H_    0.241523 0.757599 0.889717 0.259432
H25   H     H_    0.048777 0.820659 0.864009 0.200684
H26   H     H_    0.251795 0.831318 0.828040 0.280390
H27   H     H_    0.986315 0.615801 0.536442 0.200335
H28   H     H_    0.703739 0.834745 0.869598 0.214821
H29   H     H_    0.243672 0.205731 0.128922 0.205456
H30   H     H_    0.759862 0.603044 0.252629 0.229264
H31   H     H_    0.260020 0.386437 0.749535 0.205230
H32   H     H_    0.729205 0.847924 0.954789 0.209456
N1    N     N_R   0.542532 0.445266 0.798136 -0.335872
N2    N     N_R   0.484533 0.558889 0.200952 -0.333113
N3    N     N_2   0.950320 0.457960 0.486880 -0.184900
N4    N     N_2   0.049680 0.542040 0.513120 -0.185405
O1    O     O_R   0.389250 0.738570 0.503220 -0.613000
O2    O     O_2   0.344172 0.305491 0.207728 -0.520033
O3    O     O_2   0.630000 0.808965 0.195472 -0.506836
O4    O     O_2   0.462041 0.176102 0.801473 -0.503929
O5    O     O_3   0.805711 0.597558 0.345540 -0.570371
O6    O     O_3   0.201805 0.401803 0.656953 -0.567359
O7    O     O_3   0.799202 0.890132 0.115597 -0.538922
O8    O     O_3   0.413678 0.037988 0.884321 -0.549735
O9    O     O_R   0.610750 0.261430 0.496780 -0.612653
O10   O     O_R   0.678390 0.711630 0.494810 -0.637524
O11   O     O_R   0.321610 0.288370 0.505190 -0.636738
O12   O     O_R   0.355440 0.513440 0.575450 -0.563105
O13   O     O_R   0.644560 0.486560 0.424550 -0.563249
O14   O     O_R   0.644590 0.486500 0.567040 -0.638930
O15   O     O_R   0.355410 0.513500 0.432960 -0.637895
O16   O     O_2   0.616508 0.716492 0.792497 -0.511555
Zn1   Zn    Zn3+2 0.306940 0.517990 0.505620 0.949830
Zn2   Zn    Zn3+2 0.693060 0.482010 0.494380 0.949769

loop_
_geom_bond_atom_site_label_1
_geom_bond_atom_site_label_2
_ccdc_geom_bond_type
O11   Zn1   S    
C11   C14   A    
C27   H31   S    
C44   H22   S    
C46   H25   S    
C22   O16   S    
C23   C50   A    
C39   H9    S    
C19   H2    S    
C35   C37   A    
C40   H10   S    
O9    Zn2   S    
O15   Zn1   S    
H23   N3    S    
C36   N1    S    
C31   C33   A    
N4    Zn1   S    
C26   O3    S    
C25   O4    S    
C24   C47   A    
C32   H12   S    
C16   O12   A    
C25   C50   A    
C6    C13   A    
C8    C18   A    
C27   C36   A    
C4    C32   A    
C5    C9    A    
Br2   C35   S    
C20   H3    S    
C24   N2    A    
C28   C37   A    
C2    C34   A    
O13   Zn2   S    
C14   O7    S    
C10   C23   A    
Br1   C33   S    
C44   C46   S    
C3    C29   A    
C44   H21   S    
C40   H11   S    
C2    C14   A    
C46   H24   S    
C15   O8    S    
C19   C49   A    
C28   H30   S    
O10   Zn2   S    
C42   H16   S    
C41   H15   S    
C38   O5    S    
O1    Zn1   S    
C20   C21   D    
C43   H19   S    
C6    C10   A    
C22   C45   A    
C38   H6    S    
C22   N1    A    
C34   C47   A    
C31   H1    S    
C47   C49   A    
C28   C30   A    
C41   H13   S    
C40   O6    S    
C1    O10   A    
C45   C48   A    
C41   H14   S    
C27   C29   A    
C4    C17   S    
C42   H17   S    
O12   Zn1   S    
C24   O2    S    
C4    C30   A    
C30   O5    S    
C48   H28   S    
C9    C34   A    
C1    O1    A    
H27   N4    S    
C15   C50   A    
C2    C26   A    
C42   O7    S    
C8    C10   A    
C21   H4    S    
Br4   C13   S    
C26   N2    A    
C29   O6    S    
O14   Zn2   S    
Br3   C11   S    
C40   C41   S    
C39   H7    S    
C18   C48   A    
C12   C21   S    
C37   N2    S    
C42   C43   S    
C3    C31   A    
C32   C35   A    
C43   H20   S    
C46   H26   S    
C38   H5    S    
C12   O9    A    
C16   O14   A    
C33   C36   A    
C44   O8    S    
C49   H29   S    
C5    C11   A    
C7    C9    A    
C1    C20   S    
N3    Zn2   S    
C7    C19   A    
C13   C15   A    
C18   H32   S    
C5    C8    A    
C43   H18   S    
C25   N1    A    
C6    C7    A    
C17   O13   A    
C12   O11   A    
C3    C16   S    
C38   C39   S    
N3    N4    D    
C17   O15   A    
C23   C45   A    
C39   H8    S    
