data_str_m3_o10_o17_f0_pcu.sym.222
_audit_creation_date              2012-12-10T16:52:07-0500
_audit_creation_method            fapswitch 2.2
_symmetry_space_group_name_H-M    P1
_symmetry_Int_Tables_number       1
_space_group_crystal_system       triclinic
_cell_length_a                    7.773807
_cell_length_b                    8.550447
_cell_length_c                    14.895307
_cell_angle_alpha                 91.151119
_cell_angle_beta                  85.929353
_cell_angle_gamma                 93.669583
_cell_volume                      985.441261402

loop_
_atom_site_label
_atom_site_type_symbol
_atom_type_description
_atom_site_fract_x
_atom_site_fract_y
_atom_site_fract_z
_atom_type_partial_charge
C1    C     C_R   0.545747 0.794680 0.497481 0.952666
C2    C     C_R   0.454253 0.205320 0.502519 0.952666
C3    C     C_R   0.628743 0.775576 0.959614 0.203725
C4    C     C_R   0.371256 0.224424 0.040386 0.203724
C5    C     C_2   0.569864 0.958229 0.496226 -0.380864
C6    C     C_2   0.430135 0.041771 0.503773 -0.380864
C7    C     C_R   0.502727 0.502411 0.672559 0.894195
C8    C     C_R   0.497273 0.497589 0.327441 0.894195
C9    C     C_R   0.452065 0.349269 0.186538 0.134116
C10   C     C_R   0.547935 0.650731 0.813462 0.134116
C11   C     C_R   0.491295 0.491216 0.232383 -0.047653
C12   C     C_R   0.508705 0.508784 0.767617 -0.047653
C13   C     C_R   0.534209 0.630285 0.188421 -0.293919
C14   C     C_R   0.465791 0.369715 0.811579 -0.293919
C15   C     C_R   0.544861 0.632356 0.096024 0.090513
C16   C     C_R   0.455138 0.367644 0.903976 0.090513
C17   C     C_R   0.495641 0.496351 0.047031 -0.017633
C18   C     C_R   0.504359 0.503649 0.952968 -0.017633
C19   C     C_R   0.437850 0.353971 0.092187 0.089441
C20   C     C_R   0.562150 0.646029 0.907813 0.089440
C21   C     C_R   0.610966 0.768384 0.053021 -0.221006
C22   C     C_R   0.389033 0.231616 0.946979 -0.221005
H1    H     H_    0.567997 0.735934 0.226805 0.140111
H2    H     H_    0.432003 0.264066 0.773195 0.140111
H3    H     H_    0.655818 0.868372 0.093049 0.147381
H4    H     H_    0.344181 0.131628 0.906951 0.147381
H5    H     H_    0.701834 0.009309 0.489160 0.182426
H6    H     H_    0.298166 0.990691 0.510840 0.182425
H7    H     H_    0.013621 0.382482 0.432012 0.194040
H8    H     H_    0.986379 0.617518 0.567988 0.194039
N1    N     N_2   0.950330 0.457950 0.475660 -0.172323
N2    N     N_2   0.049670 0.542050 0.524340 -0.172323
O1    O     O_R   0.389250 0.738570 0.505970 -0.616088
O2    O     O_R   0.610750 0.261430 0.494030 -0.616088
O3    O     O_R   0.678390 0.711620 0.490370 -0.629287
O4    O     O_R   0.321610 0.288380 0.509630 -0.629287
O5    O     O_R   0.355420 0.513510 0.639950 -0.616196
O6    O     O_R   0.644580 0.486490 0.360050 -0.616196
O7    O     O_R   0.644560 0.486560 0.624350 -0.620642
O8    O     O_R   0.355440 0.513440 0.375650 -0.620641
Zn1   Zn    Zn3+2 0.306940 0.517990 0.510420 0.945874
Zn2   Zn    Zn3+2 0.693060 0.482010 0.489580 0.945874
C23   C     C_3   0.450553 0.196101 0.236811 -0.909947
H9    H     H_    0.514123 0.208778 0.301000 0.232337
H10   H     H_    0.316584 0.148611 0.253901 0.245276
H11   H     H_    0.527427 0.110969 0.196828 0.239322
C24   C     C_3   0.549447 0.803899 0.763188 -0.909947
H12   H     H_    0.485877 0.791222 0.698999 0.232337
H13   H     H_    0.472572 0.889030 0.803172 0.239322
H14   H     H_    0.683416 0.851390 0.746099 0.245276
C25   C     C_3   0.738598 0.913744 0.920632 -0.893553
H15   H     H_    0.813631 0.976562 0.972615 0.233300
H16   H     H_    0.836011 0.872785 0.868893 0.244969
H17   H     H_    0.658084 0.001408 0.893526 0.249421
C26   C     C_3   0.261401 0.086256 0.079368 -0.893554
H18   H     H_    0.186368 0.023439 0.027385 0.233300
H19   H     H_    0.341915 0.998591 0.106474 0.249421
H20   H     H_    0.163989 0.127216 0.131107 0.244969

loop_
_geom_bond_atom_site_label_1
_geom_bond_atom_site_label_2
_ccdc_geom_bond_type
C16   C22   A    
N2    Zn1   S    
N1    Zn2   S    
O7    Zn2   S    
C11   C13   A    
C24   H12   S    
O2    Zn2   S    
C4    C19   A    
C9    C11   A    
C25   H17   S    
O1    Zn1   S    
C2    O2    A    
C26   H18   S    
C13   C15   A    
C17   C18   A    
C7    O5    A    
C1    O1    A    
C3    C20   A    
H7    N1    S    
H8    N2    S    
C23   H10   S    
C1    O3    A    
O4    Zn1   S    
C2    C6    S    
C10   C12   A    
C8    O6    A    
C8    C11   S    
C1    C5    S    
C16   C18   A    
O8    Zn1   S    
C17   C19   A    
C12   C14   A    
O6    Zn2   S    
C24   H14   S    
C18   C20   A    
C26   H19   S    
C23   H9    S    
O5    Zn1   S    
C5    C6    D    
C23   H11   S    
C14   C16   A    
C7    C12   S    
C9    C23   S    
C3    C21   A    
C14   H2    S    
C25   H15   S    
C15   C21   A    
C4    C22   A    
C13   H1    S    
C24   H13   S    
C21   H3    S    
C22   H4    S    
C26   H20   S    
C2    O4    A    
C4    C26   S    
C15   C17   A    
O3    Zn2   S    
C7    O7    A    
C3    C25   S    
C8    O8    A    
C5    H5    S    
C10   C24   S    
C9    C19   A    
C6    H6    S    
N1    N2    D    
C10   C20   A    
C25   H16   S    
