data_str_m9_o18_o25_f0_sra.sym.129
_audit_creation_date              2013-03-05T15:53:04-0500
_audit_creation_method            fapswitch 2.2
_symmetry_space_group_name_H-M    P1
_symmetry_Int_Tables_number       1
_space_group_crystal_system       triclinic
_cell_length_a                    6.961358
_cell_length_b                    20.420738
_cell_length_c                    24.38917
_cell_angle_alpha                 89.701816
_cell_angle_beta                  90.160905
_cell_angle_gamma                 89.733742
_cell_volume                      3466.97020873

loop_
_atom_site_label
_atom_site_type_symbol
_atom_site_description
_atom_site_fract_x
_atom_site_fract_y
_atom_site_fract_z
_atom_type_partial_charge
O1    O     O_R   0.507320 0.423560 0.460500 -0.591278
O2    O     O_R   0.170760 0.556250 0.437010 -0.586515
O3    O     O_R   0.004030 0.576440 0.539500 -0.590703
C1    C     C_R   0.339572 0.575802 0.420799 0.999881
O4    O     O_R   0.177370 0.422820 0.454110 -0.580493
O5    O     O_R   0.010680 0.442050 0.556720 -0.591623
C2    C     C_R   0.345916 0.398861 0.443447 0.954084
O6    O     O_R   0.500680 0.557950 0.443280 -0.595587
O7    O     O_3   0.340380 0.506470 0.533650 -0.276565
V1    V     V_3+5 0.064130 0.498800 0.493760 1.179804
O8    O     O_R   0.681160 0.443750 0.562990 -0.590497
C3    C     C_R   0.850038 0.423616 0.578826 0.977550
O9    O     O_R   0.674560 0.577180 0.545890 -0.592375
C4    C     C_R   0.842455 0.601124 0.556635 0.917832
V2    V     V_3+5 0.564560 0.501200 0.506240 1.170185
O10   O     O_3   0.838180 0.493530 0.466350 -0.265649
C5    C     C_R   0.979713 0.836715 0.912506 -0.156913
C6    C     C_R   0.844619 0.661574 0.589514 -0.099120
C7    C     C_R   0.093572 0.724540 0.905049 0.397191
C8    C     C_R   0.069264 0.781894 0.935213 -0.265246
C9    C     C_R   0.916184 0.834945 0.858006 -0.188965
C10   C     C_R   0.940340 0.777919 0.825125 0.042831
C11   C     C_R   0.021855 0.720878 0.850344 -0.180663
C12   C     C_R   0.889994 0.776345 0.767863 0.094306
C13   C     C_R   0.917873 0.717625 0.736825 0.014489
C14   C     C_R   0.983489 0.661360 0.764699 -0.377636
C15   C     C_R   0.026038 0.661566 0.820701 0.597260
C16   C     C_R   0.815938 0.832041 0.740256 -0.178307
C17   C     C_R   0.770678 0.830617 0.684867 -0.249441
C18   C     C_R   0.798591 0.774148 0.654114 0.180042
C19   C     C_R   0.874358 0.716636 0.679086 0.148075
C20   C     C_R   0.747500 0.774812 0.598438 -0.179427
C21   C     C_R   0.767234 0.718777 0.566801 -0.165381
C22   C     C_R   0.899844 0.660533 0.645088 -0.246562
H1    H     H_    0.956366 0.614832 0.660532 0.108220
H2    H     H_    0.719127 0.719764 0.524553 0.117276
H3    H     H_    0.712235 0.874464 0.665825 0.147391
H4    H     H_    0.128334 0.784689 0.976322 0.161457
H5    H     H_    0.854095 0.879659 0.842372 0.101765
H6    H     H_    0.001119 0.615082 0.744382 0.149388
H7    H     H_    0.790649 0.878177 0.760092 0.127252
H8    H     H_    0.687676 0.818567 0.579546 0.119995
C23   C     C_3   0.804088 0.304523 0.768049 -0.384442
C24   C     C_3   0.000490 0.283001 0.793248 -0.213368
H9    H     H_    0.073404 0.308158 0.827692 0.137684
H10   H     H_    0.720181 0.348080 0.781036 0.148347
H11   H     H_    0.225207 0.291603 0.720193 0.142787
C25   C     C_1   0.964557 0.123356 0.876340 -0.307441
C26   C     C_1   0.859823 0.378329 0.624807 -0.304828
C27   C     C_3   0.741540 0.231809 0.768702 0.499304
C28   C     C_3   0.935445 0.210527 0.793131 0.046266
C29   C     C_3   0.823579 0.222147 0.711053 0.510665
C30   C     C_3   0.887853 0.294055 0.710015 0.079653
C31   C     C_3   0.019251 0.200658 0.735043 -0.354567
C32   C     C_3   0.083844 0.273567 0.734641 -0.132098
C33   C     C_1   0.953879 0.162751 0.838929 0.028377
C34   C     C_1   0.870071 0.340271 0.663172 0.062971
H12   H     H_    0.108352 0.158388 0.721922 0.156720
C35   C     C_3   0.486937 0.718345 0.205018 0.513047
C36   C     C_3   0.295764 0.699911 0.233326 -0.329130
H13   H     H_    0.194908 0.660834 0.220631 0.178198
H14   H     H_    0.102684 0.796021 0.227226 0.156263
C37   C     C_1   0.351955 0.620068 0.374166 -0.303024
C38   C     C_1   0.473559 0.877687 0.124425 -0.296129
C39   C     C_3   0.589901 0.722498 0.260599 0.489118
C40   C     C_3   0.400058 0.704126 0.289496 -0.005068
C41   C     C_3   0.540051 0.796130 0.263699 -0.340308
C42   C     C_3   0.436394 0.791273 0.207950 0.057003
C43   C     C_3   0.348493 0.777971 0.293204 -0.190336
C44   C     C_3   0.245224 0.774082 0.236737 -0.108197
C45   C     C_1   0.370699 0.657601 0.335695 0.014606
C46   C     C_1   0.458104 0.838869 0.162141 0.083250
H15   H     H_    0.290587 0.802860 0.330022 0.140650
H16   H     H_    0.639411 0.835690 0.276309 0.146712
C47   C     C_R   0.472662 0.162115 0.088750 -0.098841
C48   C     C_R   0.348211 0.338082 0.411087 -0.139717
C49   C     C_R   0.533870 0.278298 0.093937 -0.128255
C50   C     C_R   0.535682 0.220107 0.064506 -0.170678
C51   C     C_R   0.415762 0.162042 0.144026 -0.229509
C52   C     C_R   0.419590 0.220527 0.175813 0.113020
C53   C     C_R   0.475351 0.279108 0.148994 0.122413
C54   C     C_R   0.372315 0.222941 0.233044 0.042546
C55   C     C_R   0.379103 0.284136 0.262088 -0.112768
C56   C     C_R   0.405634 0.342603 0.230825 0.348871
C57   C     C_R   0.465058 0.338783 0.176293 -0.328943
C58   C     C_R   0.316915 0.166149 0.262083 -0.160264
C59   C     C_R   0.273437 0.168077 0.317464 -0.234700
C60   C     C_R   0.293681 0.225626 0.347197 0.188256
C61   C     C_R   0.354982 0.284022 0.320838 0.135951
C62   C     C_R   0.254130 0.224749 0.403577 -0.182323
C63   C     C_R   0.275830 0.281002 0.434804 -0.153579
C64   C     C_R   0.395031 0.338790 0.354994 -0.159151
H17   H     H_    0.491770 0.383690 0.153730 0.178175
H18   H     H_    0.461813 0.382503 0.339279 0.153088
H19   H     H_    0.236407 0.280009 0.477753 0.117737
H20   H     H_    0.228113 0.123306 0.337625 0.127532
H21   H     H_    0.578583 0.322960 0.073528 0.120064
H22   H     H_    0.584785 0.220217 0.022439 0.116460
H23   H     H_    0.372918 0.115508 0.160834 0.097159
H24   H     H_    0.303164 0.118973 0.243078 0.122098
H25   H     H_    0.203069 0.180555 0.423446 0.119755
O11   O     O_R   0.323550 0.942140 0.056770 -0.590095
O12   O     O_R   0.647080 0.077200 0.045890 -0.593414
O13   O     O_R   0.813610 0.057920 0.943260 -0.590859
C65   C     C_R   0.478396 0.101132 0.056653 0.920678
O14   O     O_R   0.653470 0.943760 0.063000 -0.587418
O15   O     O_R   0.820050 0.923540 0.960490 -0.586681
C66   C     C_R   0.484839 0.923598 0.078816 0.980737
O16   O     O_R   0.317110 0.076520 0.039540 -0.589069
O17   O     O_3   0.483830 0.993580 0.966380 -0.270701
V3    V     V_3+5 0.760140 0.001190 0.006240 1.168453
O18   O     O_R   0.149510 0.922740 0.954070 -0.590775
C67   C     C_R   0.981623 0.898467 0.943755 0.956210
O19   O     O_R   0.143120 0.056170 0.936970 -0.589843
C68   C     C_R   0.974306 0.076733 0.921410 0.976317
V4    V     V_3+5 0.259690 0.998700 0.993700 1.170526
O20   O     O_3   0.986130 0.006420 0.033620 -0.274501
O21   O     O_3   0.081366 0.603249 0.845647 -0.620294
C69   C     C_3   0.921689 0.560959 0.851554 0.142976
H26   H     H_    0.976807 0.509826 0.850302 0.135582
H27   H     H_    0.814319 0.565360 0.817664 0.091760
C70   C     C_3   0.823535 0.571797 0.906944 -0.273456
H28   H     H_    0.930081 0.564770 0.940495 0.238048
H29   H     H_    0.766959 0.622698 0.908984 0.224776
C71   C     C_3   0.658127 0.524038 0.915497 -0.886766
H30   H     H_    0.548701 0.530251 0.882605 0.289657
H31   H     H_    0.588986 0.533633 0.955680 0.286634
H32   H     H_    0.712227 0.472763 0.915302 0.236774
O22   O     O_3   0.724584 0.193602 0.666685 -0.666806
C72   C     C_3   0.698383 0.125717 0.675660 0.234128
H33   H     H_    0.545267 0.114324 0.667177 0.127854
H34   H     H_    0.727647 0.109081 0.718581 0.103780
C73   C     C_3   0.824169 0.087000 0.635883 -0.300618
H35   H     H_    0.785029 0.100450 0.593050 0.212471
H36   H     H_    0.977501 0.099581 0.642537 0.196804
C74   C     C_3   0.798925 0.013374 0.643769 -1.049250
H37   H     H_    0.841623 0.998616 0.686006 0.270530
H38   H     H_    0.891032 0.986668 0.614173 0.276314
H39   H     H_    0.646912 0.999456 0.636525 0.267429
O23   O     O_3   0.569015 0.202206 0.786173 -0.678628
C75   C     C_3   0.464806 0.243509 0.821643 0.214177
H40   H     H_    0.323170 0.220330 0.827612 0.156630
H41   H     H_    0.437855 0.292357 0.802716 0.084828
C76   C     C_3   0.556833 0.249772 0.878691 -0.337537
H42   H     H_    0.575202 0.200362 0.897362 0.216912
H43   H     H_    0.699867 0.273166 0.875703 0.204063
C77   C     C_3   0.431121 0.291770 0.915918 -1.022901
H44   H     H_    0.403196 0.340326 0.896653 0.269559
H45   H     H_    0.505541 0.299891 0.955537 0.271300
H46   H     H_    0.292108 0.266991 0.923855 0.269878
O24   O     O_3   0.565934 0.690538 0.157191 -0.648091
C78   C     C_3   0.563198 0.621626 0.161308 0.225926
H47   H     H_    0.412532 0.603739 0.159544 0.118501
H48   H     H_    0.632200 0.604383 0.200109 0.138765
C79   C     C_3   0.673760 0.592829 0.112976 -0.241357
H49   H     H_    0.608644 0.610503 0.073899 0.229159
H50   H     H_    0.825362 0.609621 0.114584 0.217042
C80   C     C_3   0.670179 0.518110 0.113997 -0.957809
H51   H     H_    0.737421 0.499186 0.152322 0.293865
H52   H     H_    0.751728 0.498842 0.078445 0.265079
H53   H     H_    0.519929 0.500305 0.111293 0.272883
O25   O     O_3   0.780130 0.698361 0.265680 -0.673459
C81   C     C_3   0.828248 0.681573 0.320298 0.227689
H54   H     H_    0.973878 0.659463 0.319210 0.158974
H55   H     H_    0.734328 0.642460 0.336529 0.108093
C82   C     C_3   0.834608 0.741142 0.358563 -0.360102
H56   H     H_    0.921650 0.780559 0.339452 0.209912
H57   H     H_    0.687078 0.760063 0.365537 0.199555
C83   C     C_3   0.920900 0.723156 0.414221 -0.985408
H58   H     H_    0.074425 0.709669 0.409801 0.269400
H59   H     H_    0.841839 0.681488 0.432822 0.265287
H60   H     H_    0.911120 0.765897 0.442041 0.261467
N1    N     N_R   0.346423 0.405753 0.250400 0.224099
O26   O     O_R   0.177443 0.412905 0.272354 -0.404713
O27   O     O_R   0.445244 0.457687 0.237979 -0.433804
N2    N     N_R   0.208795 0.673389 0.929042 0.250151
O28   O     O_R   0.365983 0.655080 0.904652 -0.384476
O29   O     O_R   0.183110 0.656822 0.980090 -0.427210

loop_
_geom_bond_atom_site_label_1
_geom_bond_atom_site_label_2
_geom_bond_distance
_ccdc_geom_bond_type
C13   C19   1.439849 A    
C80   H52   1.110487 S    
C59   C60   1.391634 A    
C79   H50   1.111828 S    
C83   H58   1.108108 S    
C4    C6    1.475625 S    
C30   C32   1.544270 S    
C72   H34   1.116755 S    
C81   H54   1.108307 S    
C1    O6    1.296928 A    
C21   H2    1.082601 S    
O19   C68   1.301007 A    
C5    C67   1.476913 S    
N1    O26   1.301745 A    
C24   H9    1.109847 S    
C1    C37   1.452132 S    
C14   C15   1.396805 A    
C29   O22   1.411278 S    
C51   H23   1.076704 S    
C16   C17   1.386771 A    
C77   H45   1.108712 S    
C22   H1    1.076917 S    
C74   H39   1.110891 S    
O5    C3    1.299289 A    
C18   C19   1.418951 A    
C27   O23   1.412924 S    
C69   C70   1.532233 S    
C40   C43   1.551650 S    
V2    O10   2.146715 S    
C16   H7    1.075320 S    
C5    C8    1.390575 A    
C26   C34   1.214949 T    
V4    O20   2.146752 S    
H14   C44   1.110239 S    
O12   V3    1.993090 S    
C28   C33   1.484127 S    
O21   C69   1.417983 S    
O15   C67   1.301248 A    
O16   V4    1.989211 S    
O17   V3    2.159376 S    
C57   H17   1.084087 S    
C56   C57   1.396417 A    
C23   C30   1.547819 S    
C77   H44   1.111122 S    
C39   C41   1.543870 S    
C39   O25   1.415741 S    
C50   H22   1.082334 S    
C71   H32   1.111124 S    
C27   C29   1.532425 S    
O24   C78   1.410500 S    
O11   C66   1.297561 A    
O1    V2    1.984628 S    
C11   C15   1.414015 A    
C58   H24   1.075783 S    
O7    V1    2.159427 S    
C80   H53   1.110829 S    
C69   H27   1.115823 S    
C71   H30   1.111080 S    
C36   C40   1.551619 S    
C35   C36   1.548087 S    
O9    C4    1.295656 A    
C79   C80   1.526222 S    
C82   H57   1.109479 S    
C83   H59   1.111071 S    
C36   C44   1.556058 S    
O8    V2    1.979601 S    
C76   C77   1.526854 S    
C47   C50   1.394089 A    
O18   C67   1.296114 A    
C6    C21   1.395475 A    
C29   C31   1.541965 S    
C3    C26   1.451105 S    
O14   V3    1.959621 S    
N1    O27   1.301661 A    
C55   C61   1.443128 A    
C41   C42   1.541361 S    
O8    C3    1.300616 A    
C77   H46   1.111104 S    
C12   C13   1.434111 A    
C74   H38   1.110395 S    
C75   C76   1.536312 S    
O4    C2    1.296681 A    
C30   C34   1.482608 S    
C58   C59   1.385750 A    
C52   C53   1.416762 A    
C13   C14   1.405777 A    
C49   C50   1.391502 A    
C54   C55   1.440563 A    
C5    C9    1.400368 A    
C7    N2    1.435281 S    
C36   H13   1.110013 S    
C41   C43   1.562304 S    
C80   H51   1.110952 S    
O2    C1    1.304630 A    
C23   C24   1.557891 S    
C62   H25   1.084001 S    
C17   C18   1.392043 A    
C35   C42   1.530727 S    
C73   C74   1.525791 S    
O13   C68   1.299308 A    
C8    H4    1.084483 S    
C55   C56   1.426317 A    
C9    H5    1.075984 S    
C78   C79   1.528334 S    
C49   C53   1.404465 A    
C42   C46   1.485508 S    
C59   H20   1.084452 S    
C81   C82   1.537772 S    
C64   H18   1.077584 S    
C27   C28   1.534032 S    
C19   C22   1.428431 A    
O12   C65   1.297834 A    
C41   H16   1.110038 S    
O23   C75   1.411201 S    
C61   C64   1.426104 A    
C43   H15   1.109974 S    
C6    C22   1.407839 A    
C37   C45   1.216114 T    
O3    C4    1.301322 A    
C40   C45   1.485237 S    
C48   C64   1.407256 A    
C25   C68   1.451694 S    
C24   C28   1.549714 S    
C76   H43   1.108795 S    
N2    O28   1.301227 A    
C78   H47   1.113018 S    
C78   H48   1.114751 S    
C47   C65   1.474833 S    
O6    V2    1.967609 S    
O9    V2    1.987808 S    
C82   H56   1.111083 S    
C83   H60   1.110267 S    
C10   C12   1.439482 A    
C72   C73   1.529496 S    
C70   H29   1.111236 S    
C56   N1    1.436450 S    
O2    V1    1.959589 S    
O17   V4    1.701338 S    
O18   V4    1.987737 S    
C29   C30   1.537164 S    
C7    C11   1.425700 A    
H11   C32   1.110047 S    
O25   C81   1.412740 S    
C31   H12   1.109595 S    
C15   O21   1.386930 S    
C25   C33   1.215180 T    
C65   O16   1.300849 A    
C31   C32   1.557268 S    
C81   H55   1.106863 S    
O1    C2    1.301790 A    
O15   V3    1.987005 S    
C12   C16   1.413261 A    
C60   C62   1.403135 A    
C74   H37   1.111119 S    
O5    V1    1.956533 S    
O13   V3    1.956703 S    
O19   V4    1.979418 S    
C69   H26   1.111361 S    
C23   C27   1.549357 S    
C2    C48   1.474323 S    
C35   O24   1.411759 S    
V3    O20   1.711340 S    
C28   C31   1.547441 S    
C20   C21   1.389941 A    
C7    C8    1.396210 A    
C75   H41   1.111891 S    
C72   H33   1.111140 S    
O22   C72   1.415033 S    
O4    V1    1.993106 S    
O3    V1    1.986980 S    
C54   C58   1.411542 A    
C75   H40   1.105357 S    
C35   C39   1.534565 S    
C18   C20   1.402719 A    
C24   C32   1.556723 S    
C14   H6    1.076023 S    
C62   C63   1.390150 A    
C73   H35   1.111627 S    
O14   C66   1.304507 A    
C70   C71   1.526505 S    
N2    O29   1.301495 A    
C52   C54   1.436018 A    
C38   C46   1.216488 T    
O7    V2    1.702644 S    
C43   C44   1.554291 S    
C23   H10   1.109858 S    
O11   V4    1.967401 S    
C48   C63   1.395426 A    
C63   H19   1.083704 S    
C51   C52   1.427559 A    
C76   H42   1.111511 S    
C60   C61   1.419766 A    
C82   C83   1.525318 S    
C42   C44   1.547335 S    
C39   C40   1.546310 S    
C17   H3    1.083584 S    
C79   H49   1.112000 S    
C71   H31   1.110993 S    
C73   H36   1.110713 S    
C20   H8    1.084088 S    
C10   C11   1.428830 A    
V1    O10   1.711424 S    
C49   H21   1.084091 S    
C70   H28   1.111154 S    
C9    C10   1.426946 A    
C47   C51   1.406166 A    
C53   C57   1.393311 A    
C38   C66   1.453559 S    
