data_str_m3_o14_o14_f0_pcu.sym.224
_audit_creation_date              2013-03-05T15:52:20-0500
_audit_creation_method            fapswitch 2.2
_symmetry_space_group_name_H-M    P1
_symmetry_Int_Tables_number       1
_space_group_crystal_system       triclinic
_cell_length_a                    14.864638
_cell_length_b                    15.262558
_cell_length_c                    9.911039
_cell_angle_alpha                 89.4107
_cell_angle_beta                  89.939475
_cell_angle_gamma                 90.076025
_cell_volume                      2248.41900323

loop_
_atom_site_label
_atom_site_type_symbol
_atom_site_description
_atom_site_fract_x
_atom_site_fract_y
_atom_site_fract_z
_atom_type_partial_charge
O1    O     O_R   0.408390 0.908380 0.614690 -0.655846
O2    O     O_R   0.408390 0.091620 0.614690 -0.634200
O3    O     O_R   0.908390 0.408380 0.614690 -0.631674
O4    O     O_R   0.908390 0.591620 0.614690 -0.652292
O5    O     O_R   0.408370 0.908380 0.385360 -0.592875
O6    O     O_R   0.408370 0.091620 0.385360 -0.630788
O7    O     O_R   0.908370 0.408380 0.385360 -0.640909
O8    O     O_R   0.908370 0.591620 0.385360 -0.581379
C1    C     C_R   0.392278 0.870557 0.501952 1.003521
C2    C     C_R   0.380688 0.120097 0.500051 0.954414
C3    C     C_R   0.879593 0.381089 0.500795 0.954426
C4    C     C_R   0.890288 0.628391 0.499404 0.962647
Zn1   Zn    Zn3+2 0.500010 0.000000 0.653130 0.937496
Zn2   Zn    Zn3+2 0.000010 0.500000 0.653130 0.934357
Zn3   Zn    Zn3+2 0.499980 0.000000 0.346870 0.990187
Zn4   Zn    Zn3+2 0.999980 0.500000 0.346870 0.991109
O9    O     O_R   0.591620 0.091610 0.614640 -0.632010
O10   O     O_R   0.591620 0.908390 0.614640 -0.635458
O11   O     O_R   0.091620 0.591610 0.614640 -0.647151
O12   O     O_R   0.091620 0.408390 0.614640 -0.620965
O13   O     O_R   0.591610 0.091610 0.385310 -0.618500
O14   O     O_R   0.591610 0.908390 0.385310 -0.598378
O15   O     O_R   0.091610 0.591610 0.385310 -0.603643
O16   O     O_R   0.091610 0.408390 0.385310 -0.611424
C5    C     C_R   0.620611 0.118792 0.499066 0.852666
C6    C     C_R   0.626260 0.886230 0.500706 0.900692
C7    C     C_R   0.117927 0.623089 0.499964 0.860950
C8    C     C_R   0.121264 0.382000 0.500118 0.870661
C9    C     C_R   0.428864 0.290711 0.596041 -0.169167
C10   C     C_R   0.333625 0.784114 0.762123 -0.126298
C11   C     C_R   0.886203 0.752307 0.732958 -0.161255
C12   C     C_R   0.932225 0.205859 0.568189 -0.172032
H1    H     H_    0.480747 0.241346 0.599888 0.141000
H2    H     H_    0.404054 0.799177 0.776873 0.176470
H3    H     H_    0.940847 0.707064 0.739625 0.159055
H4    H     H_    0.983121 0.255812 0.579037 0.136729
C13   C     C_R   0.451449 0.374609 0.639200 -0.084295
C14   C     C_R   0.278384 0.782333 0.875607 -0.087635
C15   C     C_R   0.875433 0.805702 0.844680 -0.078203
C16   C     C_R   0.957904 0.118937 0.589599 -0.090292
H5    H     H_    0.518979 0.388200 0.674167 0.156633
H6    H     H_    0.304987 0.800716 0.972645 0.202595
H7    H     H_    0.918521 0.797338 0.931881 0.178605
H8    H     H_    0.026890 0.103494 0.615357 0.165083
C17   C     C_R   0.812690 0.872499 0.841501 -0.122413
C18   C     C_R   0.895110 0.051980 0.575762 -0.105607
C19   C     C_R   0.387354 0.440934 0.636814 -0.097129
C20   C     C_R   0.187932 0.761730 0.862127 -0.163669
H9    H     H_    0.807133 0.916848 0.925664 0.142127
H10   H     H_    0.915345 0.984374 0.589651 0.155226
H11   H     H_    0.405026 0.506156 0.669677 0.154434
H12   H     H_    0.143569 0.764377 0.948696 0.160564
C21   C     C_R   0.759313 0.884485 0.727803 -0.171696
C22   C     C_R   0.806169 0.072126 0.543560 -0.182276
C23   C     C_R   0.300447 0.423430 0.591692 -0.171197
C24   C     C_R   0.155150 0.735452 0.737289 -0.135165
H13   H     H_    0.718909 0.942486 0.725791 0.154254
H14   H     H_    0.759493 0.018872 0.529842 0.110603
H15   H     H_    0.252788 0.476954 0.590070 0.139804
H16   H     H_    0.084774 0.721096 0.730781 0.142615
C25   C     C_R   0.764730 0.827475 0.616190 0.102646
C26   C     C_R   0.778725 0.159932 0.525340 0.102425
C27   C     C_R   0.276550 0.338521 0.547953 0.104679
C28   C     C_R   0.212528 0.729879 0.623540 0.109523
C29   C     C_R   0.341096 0.271727 0.548987 0.056775
C30   C     C_R   0.297960 0.766904 0.632465 0.056034
C31   C     C_R   0.831366 0.761995 0.616364 0.070504
C32   C     C_R   0.842444 0.227153 0.533275 0.057024
C33   C     C_R   0.315924 0.187920 0.501824 -0.224956
C34   C     C_R   0.342826 0.788453 0.510522 -0.241417
C35   C     C_R   0.843168 0.711843 0.497091 -0.243932
C36   C     C_R   0.814606 0.313680 0.503634 -0.223742
C37   C     C_R   0.228443 0.169247 0.456084 0.297691
C38   C     C_R   0.323856 0.741937 0.392397 0.296431
C39   C     C_R   0.804539 0.741108 0.374307 0.323547
C40   C     C_R   0.725294 0.334723 0.469407 0.281598
H17   H     H_    0.698084 0.813311 0.286807 0.220392
H18   H     H_    0.594054 0.281896 0.438986 0.182187
H19   H     H_    0.099602 0.224530 0.414895 0.187727
H20   H     H_    0.231638 0.653605 0.300450 0.207350
C41   C     C_R   0.733458 0.798053 0.379648 -0.230854
C42   C     C_R   0.663415 0.267623 0.464403 -0.283608
C43   C     C_R   0.167135 0.236677 0.451414 -0.286368
C44   C     C_R   0.246078 0.691772 0.389421 -0.257747
C45   C     C_R   0.708335 0.835587 0.501314 -0.193888
C46   C     C_R   0.689352 0.182551 0.495944 -0.137552
C47   C     C_R   0.190166 0.318663 0.499920 -0.148893
C48   C     C_R   0.188924 0.687682 0.501942 -0.172248
H21   H     H_    0.640564 0.007467 0.125212 0.140954
H22   H     H_    0.140852 0.502183 0.124971 0.151858
C49   C     C_R   0.335500 0.997103 0.139852 -0.114022
C50   C     C_R   0.835531 0.499082 0.140104 -0.071376
H23   H     H_    0.329847 0.998869 0.246680 0.234781
H24   H     H_    0.829822 0.500348 0.247011 0.221845
C51   C     C_R   0.254603 0.995133 0.069465 -0.166549
C52   C     C_R   0.754584 0.498385 0.069827 -0.102399
H25   H     H_    0.191364 0.993263 0.123412 0.216169
H26   H     H_    0.691378 0.498639 0.124050 0.211854
C53   C     C_R   0.254667 0.996086 0.929918 -0.209764
C54   C     C_R   0.754639 0.498262 0.930240 -0.176476
H27   H     H_    0.191576 0.995092 0.875417 0.175152
H28   H     H_    0.691520 0.497972 0.875786 0.175420
C55   C     C_R   0.335668 0.997762 0.859827 -0.139694
C56   C     C_R   0.835644 0.498815 0.860066 -0.128056
H29   H     H_    0.330035 0.998632 0.752907 0.235666
H30   H     H_    0.830082 0.498930 0.753171 0.237501
C57   C     C_R   0.418992 0.998036 0.927649 0.144399
C58   C     C_R   0.918990 0.499346 0.927776 0.143384
C59   C     C_R   0.418983 0.998039 0.072267 0.158512
C60   C     C_R   0.918992 0.499393 0.072365 0.168198
N1    N     N_R   0.498810 0.000000 0.142780 -0.118778
N2    N     N_R   0.998810 0.500000 0.142780 -0.118756
C61   C     C_R   0.577321 0.004029 0.071582 -0.077946
C62   C     C_R   0.077512 0.501209 0.071348 -0.081379
H31   H     H_    0.640106 0.011771 0.876030 0.128665
H32   H     H_    0.140788 0.502260 0.874246 0.156533
C63   C     C_R   0.577143 0.005077 0.928702 -0.092617
C64   C     C_R   0.077477 0.501242 0.928208 -0.104492
N3    N     N_R   0.498740 0.000000 0.857170 -0.126121
N4    N     N_R   0.998740 0.500000 0.857170 -0.130656
N5    N     N_R   0.199712 0.082174 0.420264 0.180567
O17   O     O_R   0.229796 0.014044 0.485975 -0.453952
O18   O     O_R   0.131885 0.071787 0.339030 -0.427020
N6    N     N_R   0.386169 0.739516 0.280868 0.218798
O19   O     O_R   0.361065 0.708047 0.165385 -0.429159
O20   O     O_R   0.471701 0.751880 0.301465 -0.366073
N7    N     N_R   0.837166 0.715437 0.243810 0.209923
O21   O     O_R   0.780828 0.702148 0.145654 -0.398258
O22   O     O_R   0.922175 0.724775 0.215325 -0.410165
N8    N     N_R   0.696080 0.423328 0.442890 0.184060
O23   O     O_R   0.728815 0.488290 0.511395 -0.443381
O24   O     O_R   0.627450 0.437907 0.364310 -0.401579

loop_
_geom_bond_atom_site_label_1
_geom_bond_atom_site_label_2
_geom_bond_distance
_ccdc_geom_bond_type
C43   C47   1.387685 A    
C27   C29   1.400837 A    
C23   H15   1.082026 S    
C58   N4    1.375922 A    
C38   N6    1.442185 S    
O10   C6    1.289080 A    
C54   C56   1.389876 A    
H20   C44   1.083336 S    
C56   H30   1.062728 S    
C11   C31   1.421421 A    
C26   C46   1.403185 A    
Zn1   O10   1.992432 S    
C12   H4    1.079610 S    
C19   C23   1.393913 A    
C14   H6    1.079871 S    
C63   N3    1.367287 A    
C51   C53   1.382990 A    
C31   C35   1.425697 A    
C9    H1    1.079316 S    
C50   C52   1.391022 A    
C10   C14   1.391911 A    
O2    Zn1   1.987588 S    
C25   C31   1.408023 A    
O6    Zn3   1.992539 S    
C21   C25   1.416706 A    
Zn3   O14   1.987583 S    
H32   C64   1.081970 S    
H31   C63   1.075426 S    
C23   C27   1.415693 A    
C34   C38   1.404087 A    
C24   C28   1.416245 A    
C33   C37   1.407342 A    
H17   C41   1.083667 S    
O4    C4    1.296454 A    
O11   C7    1.289513 A    
C16   H8    1.082690 S    
C14   C20   1.387315 A    
C36   C40   1.407320 A    
C15   C17   1.382786 A    
H22   C62   1.081822 S    
C17   C21   1.389557 A    
O8    Zn4   1.992539 S    
C13   H5    1.082778 S    
C57   C59   1.433311 A    
C40   N8    1.442551 S    
C57   N3    1.375429 A    
Zn1   N3    2.022317 S    
C58   C60   1.433033 A    
O7    C3    1.286108 A    
C60   N2    1.377199 A    
H21   C61   1.081906 S    
O5    Zn3   1.984481 S    
C10   H2    1.081947 S    
Zn3   N1    2.022837 S    
O1    C1    1.285508 A    
C1    C34   1.453654 S    
N1    C61   1.364140 A    
C53   C55   1.389520 A    
C40   C42   1.376939 A    
C21   H13   1.070429 S    
C3    C36   1.410383 S    
C39   C41   1.370354 A    
C37   N5    1.443278 S    
C19   H11   1.082667 S    
O12   C8    1.285890 A    
C42   C46   1.387626 A    
C24   H16   1.070679 S    
C52   H26   1.081921 S    
C32   C36   1.412563 A    
C28   C30   1.392560 A    
N8    O24   1.302109 A    
N7    O22   1.301813 A    
O5    C1    1.308085 A    
Zn2   O12   1.992432 S    
C49   H23   1.062631 S    
H18   C42   1.083486 S    
C17   H9    1.082769 S    
O8    C4    1.295214 A    
C18   C22   1.394352 A    
C8    C47   1.409308 S    
C50   H24   1.063245 S    
C55   H29   1.063032 S    
C10   C30   1.417535 A    
N5    O17   1.301274 A    
C62   C64   1.418665 A    
O3    Zn2   1.990558 S    
C25   C45   1.419058 A    
C9    C29   1.416536 A    
N2    C62   1.366783 A    
O7    Zn4   1.984481 S    
C53   H27   1.082917 S    
C4    C35   1.454366 S    
Zn4   O15   1.990550 S    
O15   C7    1.298770 A    
C61   C63   1.416021 A    
Zn3   O13   1.990550 S    
C13   C19   1.391089 A    
C16   C18   1.391057 A    
N7    O21   1.301600 A    
O2    C2    1.280899 A    
C56   C58   1.409665 A    
Zn4   N2    2.022837 S    
N6    O20   1.301718 A    
C54   H28   1.082910 S    
C22   H14   1.077726 S    
C20   C24   1.392886 A    
O13   C5    1.280335 A    
C27   C47   1.403761 A    
Zn2   O11   1.984372 S    
O16   C8    1.281944 A    
C38   C44   1.386340 A    
O6    C2    1.288402 A    
C15   H7    1.082856 S    
C51   H25   1.081151 S    
Zn1   O9    1.984372 S    
C22   C26   1.411248 A    
C18   H10   1.082638 S    
Zn2   N4    2.022317 S    
C12   C32   1.416413 A    
O9    C5    1.287872 A    
C49   C59   1.409552 A    
C59   N1    1.378192 A    
N8    O23   1.301562 A    
C35   C39   1.414596 A    
C50   C60   1.409973 A    
C30   C34   1.415326 A    
C44   C48   1.402055 A    
C6    C45   1.445104 S    
C29   C33   1.416344 A    
C52   C54   1.383476 A    
C11   H3    1.068463 S    
C5    C46   1.410210 S    
C11   C15   1.390820 A    
C39   N7    1.439126 S    
C26   C32   1.398254 A    
C12   C16   1.395156 A    
O4    Zn2   1.987588 S    
C7    C48   1.443509 S    
C64   N4    1.366692 A    
N5    O18   1.301454 A    
O3    C3    1.281087 A    
C49   C51   1.391286 A    
H19   C43   1.083856 S    
C2    C33   1.414778 S    
C20   H12   1.082685 S    
O1    Zn1   1.990558 S    
Zn4   O16   1.987583 S    
O14   C6    1.296715 A    
C9    C13   1.394926 A    
C55   C57   1.409863 A    
C37   C43   1.376017 A    
C28   C48   1.416535 A    
C41   C45   1.391223 A    
N6    O19   1.300645 A    
