data_str_m2_o1_o10_f0_pcu.sym.119
_audit_creation_date              2013-03-05T16:03:41-0500
_audit_creation_method            fapswitch 2.2
_symmetry_space_group_name_H-M    P1
_symmetry_Int_Tables_number       1
_space_group_crystal_system       triclinic
_cell_length_a                    8.733507
_cell_length_b                    10.847449
_cell_length_c                    9.575252
_cell_angle_alpha                 90.78567
_cell_angle_beta                  98.390422
_cell_angle_gamma                 91.120313
_cell_volume                      897.117110503

loop_
_atom_site_label
_atom_site_type_symbol
_atom_site_description
_atom_site_fract_x
_atom_site_fract_y
_atom_site_fract_z
_atom_type_partial_charge
O1    O     O_R   0.499990 0.319660 0.618740 -0.554077
O2    O     O_R   0.500010 0.680340 0.381260 -0.554099
O3    O     O_R   0.499990 0.319630 0.381170 -0.562389
O4    O     O_R   0.500010 0.680370 0.618830 -0.571192
C1    C     C_R   0.502934 0.262350 0.499894 0.861406
C2    C     C_R   0.497617 0.737632 0.500123 0.854830
O5    O     O_R   0.274840 0.500010 0.591370 -0.603635
O6    O     O_R   0.725160 0.499990 0.408630 -0.604199
O7    O     O_R   0.274830 0.499980 0.353800 -0.525423
O8    O     O_R   0.725170 0.500020 0.646200 -0.527253
C3    C     C_R   0.203781 0.499817 0.463529 0.894266
C4    C     C_R   0.796220 0.500102 0.536452 0.889956
Cu1   Cu    Cu3+1 0.500000 0.500020 0.640660 1.030131
Cu2   Cu    Cu3+1 0.500000 0.499980 0.359340 1.031251
N1    N     N_R   0.500040 0.500030 0.852080 -0.245111
N2    N     N_R   0.499960 0.499970 0.147920 -0.242940
C5    C     C_2   0.037526 0.499894 0.443772 -0.331120
C6    C     C_2   0.962477 0.499888 0.556140 -0.327485
H1    H     H_    0.976718 0.500057 0.336281 0.210562
H2    H     H_    0.023343 0.499663 0.663590 0.213838
C7    C     C_R   0.445863 0.062609 0.377285 -0.317947
C8    C     C_R   0.556931 0.937215 0.622258 -0.322171
H3    H     H_    0.399102 0.110567 0.283459 0.229404
H4    H     H_    0.604959 0.888820 0.715389 0.231721
C9    C     C_R   0.441099 0.934253 0.375005 0.493035
C10   C     C_R   0.561229 0.065688 0.624718 0.495143
C11   C     C_R   0.495999 0.871571 0.499465 -0.183662
C12   C     C_R   0.505704 0.128362 0.500376 -0.184560
C13   C     C_R   0.381493 0.444156 0.055734 0.435515
C14   C     C_R   0.616882 0.557790 0.943954 0.444918
C15   C     C_R   0.383015 0.443912 0.907994 -0.153839
C16   C     C_R   0.616352 0.556973 0.091833 -0.148835
H5    H     H_    0.289655 0.398328 0.838350 0.178354
H6    H     H_    0.709069 0.603537 0.161281 0.176816
O9    O     O_3   0.368174 0.869740 0.256934 -0.548240
C17   C     C_3   0.451219 0.887498 0.142701 -0.219665
H7    H     H_    0.409696 0.817842 0.059106 0.196598
H8    H     H_    0.577825 0.874182 0.173429 0.155594
H9    H     H_    0.429038 0.979871 0.096499 0.146671
O10   O     O_3   0.634414 0.130493 0.742503 -0.546461
C18   C     C_3   0.554735 0.110042 0.858414 -0.226816
H10   H     H_    0.427185 0.119433 0.829700 0.150060
H11   H     H_    0.594441 0.180775 0.941282 0.194608
H12   H     H_    0.582427 0.018454 0.904708 0.157633
N3    N     N_R   0.251382 0.387808 0.105679 0.135797
O11   O     O_R   0.113849 0.429150 0.063781 -0.324887
O12   O     O_R   0.264067 0.279207 0.160686 -0.392009
N4    N     N_R   0.741215 0.621443 0.892997 0.137291
O13   O     O_R   0.733983 0.740212 0.879216 -0.409875
O14   O     O_R   0.876437 0.571177 0.908076 -0.317509

loop_
_geom_bond_atom_site_label_1
_geom_bond_atom_site_label_2
_geom_bond_distance
_ccdc_geom_bond_type
C17   H7    1.109559 S    
C14   C16   1.416813 A    
O7    Cu2   1.959487 S    
C15   H5    1.081914 S    
N1    C15   1.358692 A    
Cu2   N2    2.024346 S    
C9    C11   1.407364 A    
C1    C12   1.454156 S    
C18   H11   1.109582 S    
C18   H10   1.114761 S    
C10   C12   1.407657 A    
O9    C17   1.411172 S    
Cu1   N1    2.024348 S    
O6    C4    1.288960 A    
N4    O14   1.300155 A    
C5    C6    1.339064 D    
C13   C15   1.416618 A    
N3    O11   1.300071 A    
O5    C3    1.289093 A    
O7    C3    1.295854 A    
C10   O10   1.387449 S    
O2    C2    1.292314 A    
O3    Cu2   1.970320 S    
O8    C4    1.296016 A    
C9    O9    1.387176 S    
O1    C1    1.293021 A    
C14   N4    1.424242 S    
N4    O13   1.298707 A    
C5    H1    1.087178 S    
C7    C12   1.397727 A    
C6    H2    1.087037 S    
C8    C11   1.397241 A    
C7    H3    1.076371 S    
O2    Cu2   1.964807 S    
C18   H12   1.110051 S    
C8    H4    1.076586 S    
O1    Cu1   1.964805 S    
C17   H8    1.114676 S    
O5    Cu1   1.954167 S    
N1    C14   1.380453 A    
O4    C2    1.300452 A    
C8    C10   1.393158 A    
N3    O12   1.297139 A    
C4    C6    1.436708 S    
O4    Cu1   1.970321 S    
C7    C9    1.391918 A    
N2    C16   1.359377 A    
O10   C18   1.411162 S    
O6    Cu2   1.954165 S    
N2    C13   1.382215 A    
Cu1   Cu2   2.693704 S    
C17   H9    1.109957 S    
C3    C5    1.436645 S    
C2    C11   1.453337 S    
C13   N3    1.425831 S    
O3    C1    1.300203 A    
O8    Cu1   1.959485 S    
C16   H6    1.081971 S    
