data_str_m3_o22_o22_f0_pcu.sym.94
_audit_creation_date              2012-12-10T19:09:34-0500
_audit_creation_method            fapswitch 2.2
_symmetry_space_group_name_H-M    P1
_symmetry_Int_Tables_number       1
_space_group_crystal_system       triclinic
_cell_length_a                    15.058128
_cell_length_b                    15.11571
_cell_length_c                    9.685718
_cell_angle_alpha                 90.088986
_cell_angle_beta                  90.183492
_cell_angle_gamma                 89.84892
_cell_volume                      2204.58628395

loop_
_atom_site_label
_atom_site_type_symbol
_atom_type_description
_atom_site_fract_x
_atom_site_fract_y
_atom_site_fract_z
_atom_type_partial_charge
C1    C     C_R   0.124443 0.382432 0.500008 1.006332
C2    C     C_R   0.123316 0.618832 0.500096 1.012322
C3    C     C_R   0.624443 0.882432 0.500007 1.006320
C4    C     C_R   0.623321 0.118827 0.500096 1.012368
C5    C     C_3   0.907464 0.508732 0.080974 -0.239883
C6    C     C_3   0.907466 0.508789 0.918195 -0.221172
C7    C     C_3   0.407552 0.009576 0.080975 -0.239757
C8    C     C_3   0.407556 0.009648 0.918197 -0.221556
C9    C     C_R   0.880270 0.377182 0.499665 1.125053
C10   C     C_R   0.882121 0.624417 0.499788 1.048032
C11   C     C_R   0.380269 0.877183 0.499666 1.125001
C12   C     C_R   0.382117 0.124414 0.499788 1.048140
C13   C     C_3   0.839813 0.231919 0.601144 0.240556
C14   C     C_3   0.801427 0.268885 0.349879 0.235810
C15   C     C_3   0.823438 0.752305 0.365524 0.299608
C16   C     C_3   0.825312 0.754536 0.629893 0.225479
C17   C     C_3   0.339807 0.731923 0.601150 0.240568
C18   C     C_3   0.301428 0.768886 0.349882 0.235865
C19   C     C_3   0.323454 0.252322 0.365556 0.299660
C20   C     C_3   0.325286 0.254509 0.629927 0.225497
C21   C     C_3   0.266632 0.660501 0.602882 -0.622077
C22   C     C_3   0.232419 0.695012 0.353244 -0.541401
C23   C     C_3   0.246224 0.319268 0.361612 -0.589401
C24   C     C_3   0.259331 0.331664 0.620414 -0.486522
C25   C     C_3   0.766615 0.160521 0.602936 -0.622341
C26   C     C_3   0.732458 0.194973 0.353258 -0.541362
C27   C     C_3   0.746208 0.819251 0.361589 -0.589295
C28   C     C_3   0.759348 0.831684 0.620384 -0.486486
C29   C     C_3   0.721065 0.349893 0.543238 0.515315
C30   C     C_3   0.719895 0.649481 0.496260 0.506737
C31   C     C_3   0.221061 0.849900 0.543232 0.515346
C32   C     C_3   0.219890 0.149478 0.496215 0.506702
C33   C     C_3   0.812752 0.308000 0.498931 -0.183752
C34   C     C_3   0.814905 0.693880 0.498841 -0.263471
C35   C     C_3   0.312750 0.808003 0.498933 -0.183756
C36   C     C_3   0.314900 0.193875 0.498846 -0.263461
C37   C     C_3   0.191759 0.686438 0.500381 -0.177470
C38   C     C_3   0.193399 0.315262 0.499540 -0.247191
C39   C     C_3   0.691764 0.186432 0.500379 -0.177485
C40   C     C_3   0.693401 0.815264 0.499537 -0.247218
C41   C     C_3   0.149308 0.775602 0.545128 1.031797
C42   C     C_3   0.148876 0.223222 0.515918 1.129490
C43   C     C_3   0.649301 0.275605 0.545051 1.031830
C44   C     C_3   0.648883 0.723226 0.515962 1.129468
C45   C     C_3   0.036832 0.416898 0.081262 -0.226143
C46   C     C_3   0.036766 0.416867 0.918704 -0.227285
C47   C     C_3   0.051761 0.574267 0.919154 -0.226124
C48   C     C_3   0.051752 0.574275 0.081678 -0.236945
C49   C     C_3   0.536049 0.916551 0.081258 -0.225890
C50   C     C_3   0.535969 0.916514 0.918697 -0.226874
C51   C     C_3   0.552468 0.073755 0.919156 -0.226681
C52   C     C_3   0.552448 0.073772 0.081679 -0.237158
H1    H     H_    0.845699 0.258957 0.707363 0.138479
H2    H     H_    0.776662 0.321898 0.279263 0.158163
H3    H     H_    0.816865 0.709989 0.271967 0.170699
H4    H     H_    0.808957 0.716706 0.725116 0.083184
H5    H     H_    0.345652 0.758955 0.707376 0.138398
H6    H     H_    0.276705 0.821906 0.279243 0.158220
H7    H     H_    0.316896 0.210022 0.271981 0.170648
H8    H     H_    0.308903 0.216666 0.725124 0.083120
H9    H     H_    0.293359 0.593941 0.576094 0.206809
H10   H     H_    0.263109 0.630830 0.322378 0.218055
H11   H     H_    0.270632 0.387628 0.342540 0.199931
H12   H     H_    0.294784 0.395329 0.603633 0.225383
H13   H     H_    0.793329 0.093942 0.576240 0.206849
H14   H     H_    0.763193 0.130795 0.322475 0.218040
H15   H     H_    0.770613 0.887608 0.342487 0.199931
H16   H     H_    0.794792 0.895350 0.603573 0.225387
H17   H     H_    0.239896 0.655049 0.709561 0.209990
H18   H     H_    0.179956 0.710545 0.275581 0.213535
H19   H     H_    0.201758 0.302330 0.273389 0.224402
H20   H     H_    0.224195 0.337649 0.720927 0.198380
H21   H     H_    0.739859 0.155131 0.709610 0.209992
H22   H     H_    0.680013 0.210448 0.275538 0.213515
H23   H     H_    0.701730 0.802302 0.273386 0.224377
H24   H     H_    0.724224 0.837679 0.720908 0.198371
H25   H     H_    0.998712 0.359119 0.119945 0.190216
H26   H     H_    0.998517 0.359121 0.879486 0.183866
H27   H     H_    0.024978 0.638290 0.880486 0.181801
H28   H     H_    0.024983 0.638316 0.120443 0.186965
H29   H     H_    0.497396 0.859133 0.119950 0.189958
H30   H     H_    0.497162 0.859137 0.879492 0.183360
H31   H     H_    0.526296 0.138026 0.880491 0.182472
H32   H     H_    0.526264 0.138056 0.120414 0.186866
H33   H     H_    0.106136 0.408244 0.118914 0.157051
H34   H     H_    0.106012 0.408089 0.881548 0.161645
H35   H     H_    0.121363 0.569640 0.881620 0.157920
H36   H     H_    0.121379 0.569611 0.119763 0.147912
H37   H     H_    0.605269 0.907251 0.118891 0.157397
H38   H     H_    0.605121 0.907066 0.881528 0.162179
H39   H     H_    0.622020 0.068467 0.881608 0.157453
H40   H     H_    0.622021 0.068475 0.119803 0.147782
H41   H     H_    0.865272 0.453699 0.119111 0.159843
H42   H     H_    0.865235 0.453805 0.879379 0.178948
H43   H     H_    0.876364 0.571008 0.880235 0.157184
H44   H     H_    0.876329 0.570904 0.118991 0.162921
H45   H     H_    0.364847 0.954942 0.119121 0.159781
H46   H     H_    0.364798 0.955084 0.879340 0.179287
H47   H     H_    0.377058 0.072167 0.880282 0.156841
H48   H     H_    0.377001 0.072033 0.118980 0.163042
N1    N     N_3   0.998760 0.500000 0.138610 -0.056106
N2    N     N_3   0.998760 0.500000 0.861390 -0.064465
N3    N     N_3   0.498760 0.000000 0.138610 -0.056101
N4    N     N_3   0.498760 1.000000 0.861390 -0.064386
O1    O     O_R   0.092530 0.407440 0.616040 -0.625145
O2    O     O_R   0.092530 0.407440 0.383960 -0.622500
O3    O     O_R   0.092530 0.592560 0.383960 -0.638060
O4    O     O_R   0.092530 0.592560 0.616040 -0.620688
O5    O     O_R   0.592530 0.907440 0.616040 -0.625121
O6    O     O_R   0.592530 0.907440 0.383960 -0.622505
O7    O     O_R   0.592530 0.092560 0.383960 -0.638046
O8    O     O_R   0.592530 0.092560 0.616040 -0.620688
O9    O     O_R   0.907330 0.407420 0.616040 -0.622481
O10   O     O_R   0.907330 0.407420 0.383960 -0.615308
O11   O     O_R   0.907330 0.592580 0.383960 -0.643485
O12   O     O_R   0.907330 0.592580 0.616040 -0.638508
O13   O     O_R   0.407330 0.907420 0.616040 -0.622473
O14   O     O_R   0.407330 0.907420 0.383960 -0.615379
O15   O     O_R   0.407330 0.092580 0.383960 -0.643501
O16   O     O_R   0.407330 0.092580 0.616040 -0.638476
Zn1   Zn    Zn3+2 0.999890 0.500000 0.654960 0.958983
Zn2   Zn    Zn3+2 0.999890 0.500000 0.345040 0.956867
Zn3   Zn    Zn3+2 0.499890 0.000000 0.654960 0.959000
Zn4   Zn    Zn3+2 0.499890 0.000000 0.345040 0.956869
O17   O     O_3   0.924144 0.196339 0.570838 -0.601320
H49   H     H_    0.918043 0.150069 0.498854 0.417619
O18   O     O_3   0.882487 0.237037 0.297320 -0.691360
H50   H     H_    0.874196 0.228940 0.196328 0.331297
O19   O     O_3   0.907179 0.793193 0.355202 -0.648030
H51   H     H_    0.906678 0.848921 0.409301 0.411635
O20   O     O_3   0.912183 0.787947 0.642357 -0.649863
H52   H     H_    0.943782 0.751695 0.712411 0.377766
O21   O     O_3   0.424159 0.696374 0.570903 -0.601375
H53   H     H_    0.418097 0.650095 0.498926 0.417679
O22   O     O_3   0.382480 0.736991 0.297365 -0.691456
H54   H     H_    0.374195 0.728868 0.196378 0.331253
O23   O     O_3   0.407195 0.293214 0.355283 -0.647886
H55   H     H_    0.406687 0.348927 0.409420 0.411620
O24   O     O_3   0.412160 0.287905 0.642454 -0.649876
H56   H     H_    0.443722 0.251671 0.712573 0.377771
O25   O     O_3   0.727628 0.392961 0.672790 -0.696237
H57   H     H_    0.736798 0.348508 0.746406 0.322090
O26   O     O_3   0.696617 0.414001 0.444891 -0.739559
H58   H     H_    0.642437 0.444307 0.479472 0.445466
O27   O     O_3   0.704488 0.609814 0.366342 -0.712488
H59   H     H_    0.745844 0.559218 0.356198 0.373897
O28   O     O_3   0.711052 0.583035 0.597850 -0.675687
H60   H     H_    0.720067 0.608944 0.690604 0.342164
O29   O     O_3   0.227629 0.893015 0.672746 -0.696227
H61   H     H_    0.236842 0.848594 0.746395 0.322145
O30   O     O_3   0.196594 0.913970 0.444834 -0.739622
H62   H     H_    0.142422 0.944291 0.479409 0.445473
O31   O     O_3   0.204504 0.109829 0.366277 -0.712522
H63   H     H_    0.245839 0.059215 0.356154 0.373914
O32   O     O_3   0.211032 0.083017 0.597778 -0.675717
H64   H     H_    0.220027 0.108912 0.690546 0.342215
F1    F     F_    0.112642 0.767707 0.675875 -0.683024
F2    F     F_    0.080421 0.795859 0.454923 -0.614695
F3    F     F_    0.081659 0.213733 0.418339 -0.581623
F4    F     F_    0.109914 0.217586 0.645411 -0.658081
F5    F     F_    0.612557 0.267731 0.675747 -0.682932
F6    F     F_    0.580470 0.295862 0.454743 -0.614688
F7    F     F_    0.581653 0.713723 0.418406 -0.581641
F8    F     F_    0.609937 0.717606 0.645468 -0.658076

loop_
_geom_bond_atom_site_label_1
_geom_bond_atom_site_label_2
_ccdc_geom_bond_type
C16   C28   S    
C52   N3    S    
C50   N4    S    
C19   C23   S    
C42   F3    S    
C47   H27   S    
O4    Zn1   S    
C30   C44   S    
C14   C33   S    
O27   H59   S    
C7    C8    S    
N4    Zn3   S    
O15   Zn4   S    
C46   N2    S    
C51   H39   S    
C50   H30   S    
C9    O10   A    
C32   C36   S    
C20   O24   S    
C28   H16   S    
C8    H47   S    
C38   C42   S    
C19   C36   S    
C5    C6    S    
C31   O29   S    
C26   C39   S    
C28   C40   S    
C3    O6    A    
O26   H58   S    
C12   O15   A    
C29   C33   S    
C2    O3    A    
C21   C37   S    
C49   H29   S    
C52   H32   S    
C16   O20   S    
C8    H46   S    
O6    Zn4   S    
C12   O16   A    
C18   H6    S    
O28   H60   S    
C6    H42   S    
C24   C38   S    
O30   H62   S    
C48   H36   S    
C44   F7    S    
C12   C36   S    
N2    Zn1   S    
C7    H45   S    
C18   C35   S    
C15   C34   S    
C21   H9    S    
O16   Zn3   S    
C1    O2    A    
C13   O17   S    
C23   H11   S    
C4    O8    A    
C24   H12   S    
O11   Zn2   S    
C7    N3    S    
C29   C43   S    
C9    C33   S    
C13   C25   S    
C27   H23   S    
N3    Zn4   S    
C50   H38   S    
C13   H1    S    
C5    N1    S    
C7    H48   S    
C30   C34   S    
C51   C52   S    
C26   H14   S    
C23   H19   S    
O22   H54   S    
C25   H13   S    
O8    Zn3   S    
O12   Zn1   S    
C46   H26   S    
O5    Zn3   S    
C20   C36   S    
C39   C43   S    
C19   H7    S    
C51   N4    S    
C45   C46   S    
C22   C37   S    
C17   C21   S    
C14   O18   S    
C41   F2    S    
C21   H17   S    
C15   H3    S    
C45   H33   S    
C16   H4    S    
C13   C33   S    
C16   C34   S    
C22   H10   S    
C32   O32   S    
C31   O30   S    
C15   C27   S    
C47   C48   S    
C15   O19   S    
C4    C39   S    
C27   C40   S    
C19   O23   S    
C29   O25   S    
O2    Zn2   S    
O1    Zn1   S    
C18   O22   S    
C10   C34   S    
O14   Zn4   S    
C14   C26   S    
C8    N4    S    
C45   N1    S    
C1    C38   S    
C41   F1    S    
C43   F5    S    
C14   H2    S    
C4    O7    A    
C3    C40   S    
C49   C50   S    
C17   O21   S    
O21   H53   S    
C31   C35   S    
C52   H40   S    
C20   H8    S    
O20   H52   S    
C28   H24   S    
C51   H31   S    
C5    H44   S    
C10   O12   A    
C47   H35   S    
C24   H20   S    
C30   O27   S    
O19   H51   S    
C31   C41   S    
O7    Zn4   S    
C18   C22   S    
C42   F4    S    
C49   H37   S    
C49   N3    S    
C5    H41   S    
O24   H56   S    
C23   C38   S    
C17   C35   S    
O23   H55   S    
N1    Zn2   S    
C9    O9    A    
C48   H28   S    
C11   C35   S    
O13   Zn3   S    
C30   O28   S    
O29   H61   S    
C25   C39   S    
C2    C37   S    
O17   H49   S    
C3    O5    A    
C48   N1    S    
C2    O4    A    
C26   H22   S    
C22   H18   S    
C25   H21   S    
C6    N2    S    
C37   C41   S    
C27   H15   S    
C32   O31   S    
O10   Zn2   S    
C43   F6    S    
C40   C44   S    
O9    Zn1   S    
C29   O26   S    
C6    H43   S    
C17   H5    S    
O32   H64   S    
C47   N2    S    
C32   C42   S    
C45   H25   S    
C44   F8    S    
O3    Zn2   S    
O31   H63   S    
O25   H57   S    
C11   O14   A    
C20   C24   S    
C10   O11   A    
O18   H50   S    
C1    O1    A    
C46   H34   S    
C11   O13   A    
