data_str_m2_o40_o40_f0_fof.sym.69
_audit_creation_date              2012-10-26T17:12:31-0400
_audit_creation_method            fapswitch 2.2
_symmetry_space_group_name_H-M    P1
_symmetry_Int_Tables_number       1
_space_group_crystal_system       triclinic
_cell_length_a                    16.705287
_cell_length_b                    16.705287
_cell_length_c                    16.705288
_cell_angle_alpha                 67.758506
_cell_angle_beta                  67.758492
_cell_angle_gamma                 67.758499
_cell_volume                      3840.4644574

loop_
_atom_site_label
_atom_site_type_symbol
_atom_type_description
_atom_site_fract_x
_atom_site_fract_y
_atom_site_fract_z
_atom_type_partial_charge
C1    C     C_R   0.029632 0.827892 0.564109 0.836995
C2    C     C_R   0.029632 0.564109 0.827892 0.836996
C3    C     C_R   0.172108 0.970368 0.435891 0.836996
C4    C     C_R   0.827892 0.029632 0.564109 0.836995
C5    C     C_R   0.449005 0.070310 0.704093 0.392546
C6    C     C_R   0.550995 0.929689 0.295907 0.392546
C7    C     C_R   0.070311 0.704093 0.449005 0.392547
C8    C     C_R   0.929689 0.295907 0.550995 0.392546
C9    C     C_R   0.704092 0.449005 0.070311 0.392546
C10   C     C_R   0.295907 0.550995 0.929690 0.392546
C11   C     C_R   0.295908 0.929688 0.550995 0.392547
C12   C     C_R   0.970368 0.172108 0.435891 0.836995
C13   C     C_R   0.704092 0.070311 0.449005 0.392547
C14   C     C_R   0.550995 0.295907 0.929689 0.392547
C15   C     C_R   0.449005 0.704092 0.070311 0.392546
C16   C     C_R   0.929689 0.550995 0.295908 0.392546
C17   C     C_R   0.070311 0.449005 0.704092 0.392546
C18   C     C_R   0.542518 0.024357 0.542518 0.034274
C19   C     C_R   0.457482 0.975642 0.457482 0.034274
C20   C     C_R   0.024358 0.542518 0.542518 0.034274
C21   C     C_R   0.975643 0.457482 0.457482 0.034274
C22   C     C_R   0.542518 0.542518 0.024358 0.034274
C23   C     C_R   0.827892 0.564109 0.029632 0.836996
C24   C     C_R   0.457482 0.457482 0.975643 0.034274
C25   C     C_R   0.586051 0.014597 0.454606 0.017269
C26   C     C_R   0.413949 0.985403 0.545394 0.017268
C27   C     C_R   0.014597 0.454606 0.586051 0.017268
C28   C     C_R   0.985404 0.545393 0.413949 0.017268
C29   C     C_R   0.454606 0.586051 0.014597 0.017268
C30   C     C_R   0.545394 0.413949 0.985403 0.017269
C31   C     C_R   0.545394 0.985404 0.413949 0.017268
C32   C     C_R   0.454606 0.014596 0.586051 0.017268
C33   C     C_R   0.413949 0.545394 0.985404 0.017269
C34   C     C_R   0.172108 0.435891 0.970368 0.836995
C35   C     C_R   0.586051 0.454606 0.014597 0.017268
C36   C     C_R   0.985404 0.413949 0.545393 0.017268
C37   C     C_R   0.014597 0.586051 0.454606 0.017268
C38   C     C_R   0.406796 0.044033 0.664046 -0.242375
C39   C     C_R   0.593204 0.955966 0.335954 -0.242375
C40   C     C_R   0.044034 0.664045 0.406796 -0.242374
C41   C     C_R   0.955966 0.335954 0.593204 -0.242375
C42   C     C_R   0.664046 0.406796 0.044034 -0.242374
C43   C     C_R   0.335954 0.593204 0.955966 -0.242374
C44   C     C_R   0.335955 0.955965 0.593205 -0.242374
C45   C     C_R   0.564109 0.029632 0.827892 0.836996
C46   C     C_R   0.664045 0.044034 0.406796 -0.242375
C47   C     C_R   0.593204 0.335954 0.955966 -0.242375
C48   C     C_R   0.406796 0.664046 0.044034 -0.242375
C49   C     C_R   0.955966 0.593204 0.335954 -0.242375
C50   C     C_R   0.044035 0.406795 0.664045 -0.242374
C51   C     C_R   0.543847 0.054044 0.675156 -0.004649
C52   C     C_R   0.456153 0.945956 0.324844 -0.004649
C53   C     C_R   0.054044 0.675156 0.543847 -0.004650
C54   C     C_R   0.945956 0.324844 0.456153 -0.004649
C55   C     C_R   0.675156 0.543847 0.054044 -0.004649
C56   C     C_R   0.435891 0.970368 0.172108 0.836995
C57   C     C_R   0.324844 0.456153 0.945956 -0.004649
C58   C     C_R   0.324844 0.945956 0.456153 -0.004650
C59   C     C_R   0.675156 0.054044 0.543847 -0.004649
C60   C     C_R   0.456153 0.324844 0.945956 -0.004649
C61   C     C_R   0.543847 0.675156 0.054044 -0.004649
C62   C     C_R   0.945956 0.456153 0.324844 -0.004649
C63   C     C_R   0.054044 0.543847 0.675156 -0.004649
C64   C     C_R   0.596727 0.048706 0.728166 -0.089719
C65   C     C_R   0.403273 0.951294 0.271834 -0.089719
C66   C     C_R   0.048706 0.728166 0.596727 -0.089719
C67   C     C_R   0.435891 0.172108 0.970368 0.836995
C68   C     C_R   0.951294 0.271834 0.403273 -0.089720
C69   C     C_R   0.728166 0.596727 0.048706 -0.089719
C70   C     C_R   0.271834 0.403273 0.951294 -0.089719
C71   C     C_R   0.271834 0.951294 0.403273 -0.089719
C72   C     C_R   0.728166 0.048706 0.596727 -0.089719
C73   C     C_R   0.403273 0.271834 0.951294 -0.089719
C74   C     C_R   0.596727 0.728166 0.048706 -0.089719
C75   C     C_R   0.951294 0.403273 0.271834 -0.089720
C76   C     C_R   0.048706 0.596727 0.728166 -0.089719
C77   C     C_R   0.687561 0.046560 0.687561 -0.204718
C78   C     C_R   0.564109 0.827892 0.029632 0.836995
C79   C     C_R   0.312439 0.953440 0.312439 -0.204718
C80   C     C_R   0.046560 0.687561 0.687561 -0.204718
C81   C     C_R   0.953440 0.312439 0.312439 -0.204718
C82   C     C_R   0.687561 0.687561 0.046560 -0.204718
C83   C     C_R   0.312439 0.312439 0.953440 -0.204718
C84   C     C_R   0.587506 0.043501 0.587506 -0.022469
C85   C     C_R   0.412494 0.956498 0.412494 -0.022469
C86   C     C_R   0.043502 0.587506 0.587506 -0.022469
C87   C     C_R   0.956499 0.412494 0.412494 -0.022469
C88   C     C_R   0.587506 0.587506 0.043502 -0.022470
C89   C     C_R   0.970368 0.435891 0.172108 0.836996
C90   C     C_R   0.412494 0.412494 0.956498 -0.022469
Cl1   Cl    Cl    0.378188 0.147170 0.768219 -0.522973
Cl2   Cl    Cl    0.378189 0.768219 0.147171 -0.522973
Cl3   Cl    Cl    0.852830 0.621811 0.231781 -0.522973
Cl4   Cl    Cl    0.147171 0.378189 0.768219 -0.522973
Cl5   Cl    Cl    0.621811 0.852830 0.231781 -0.522973
Cl6   Cl    Cl    0.147170 0.768219 0.378189 -0.522973
Cl7   Cl    Cl    0.852830 0.231781 0.621811 -0.522973
Cl8   Cl    Cl    0.768219 0.378189 0.147170 -0.522973
Cl9   Cl    Cl    0.231781 0.621811 0.852830 -0.522973
Cl10  Cl    Cl    0.231781 0.852829 0.621811 -0.522973
Cl11  Cl    Cl    0.768219 0.147170 0.378189 -0.522973
Cl12  Cl    Cl    0.621811 0.231781 0.852830 -0.522973
Cu1   Cu    Cu3+1 0.995180 0.995180 0.424630 1.086947
Cu2   Cu    Cu3+1 0.004820 0.004820 0.575370 1.086947
Cu3   Cu    Cu3+1 0.995180 0.424630 0.995180 1.086947
Cu4   Cu    Cu3+1 0.004820 0.575370 0.004820 1.086947
Cu5   Cu    Cu3+1 0.424630 0.995180 0.995180 1.086947
Cu6   Cu    Cu3+1 0.575370 0.004820 0.004820 1.086947
H1    H     H_    0.334662 0.054877 0.689587 0.182338
H2    H     H_    0.334662 0.689586 0.054879 0.182338
H3    H     H_    0.945121 0.665338 0.310414 0.182338
H4    H     H_    0.054880 0.334662 0.689585 0.182339
H5    H     H_    0.728469 0.039058 0.728469 0.207155
H6    H     H_    0.271531 0.960942 0.271531 0.207154
H7    H     H_    0.039058 0.728469 0.728469 0.207154
H8    H     H_    0.960942 0.271531 0.271531 0.207154
H9    H     H_    0.728469 0.728469 0.039058 0.207154
H10   H     H_    0.271531 0.271531 0.960942 0.207155
H11   H     H_    0.665337 0.945122 0.310413 0.182338
H12   H     H_    0.054879 0.689586 0.334662 0.182338
H13   H     H_    0.945122 0.310414 0.665337 0.182339
H14   H     H_    0.689586 0.334662 0.054878 0.182338
H15   H     H_    0.310413 0.665337 0.945123 0.182338
H16   H     H_    0.310415 0.945120 0.665338 0.182338
H17   H     H_    0.689586 0.054879 0.334662 0.182338
H18   H     H_    0.665337 0.310414 0.945122 0.182338
O1    O     O_R   0.124540 0.978640 0.385460 -0.560730
O2    O     O_R   0.124540 0.385460 0.978640 -0.560729
O3    O     O_R   0.021360 0.875460 0.614540 -0.560730
O4    O     O_R   0.978640 0.124540 0.385460 -0.560730
O5    O     O_R   0.013780 0.867370 0.487190 -0.559296
O6    O     O_R   0.986220 0.132630 0.512810 -0.559296
O7    O     O_R   0.867370 0.487190 0.013780 -0.559296
O8    O     O_R   0.132630 0.512810 0.986220 -0.559296
O9    O     O_R   0.487190 0.013780 0.867370 -0.559296
O10   O     O_R   0.512810 0.986220 0.132630 -0.559296
O11   O     O_R   0.512810 0.132630 0.986220 -0.559297
O12   O     O_R   0.875460 0.021360 0.614540 -0.560730
O13   O     O_R   0.487190 0.867370 0.013780 -0.559296
O14   O     O_R   0.986220 0.512810 0.132630 -0.559296
O15   O     O_R   0.013780 0.487190 0.867370 -0.559296
O16   O     O_R   0.132630 0.986220 0.512810 -0.559297
O17   O     O_R   0.867370 0.013780 0.487190 -0.559296
O18   O     O_R   0.978640 0.385460 0.124540 -0.560730
O19   O     O_R   0.021360 0.614540 0.875460 -0.560730
O20   O     O_R   0.385460 0.124540 0.978640 -0.560730
O21   O     O_R   0.614540 0.875460 0.021360 -0.560730
O22   O     O_R   0.614540 0.021360 0.875460 -0.560731
O23   O     O_R   0.385460 0.978640 0.124540 -0.560730
O24   O     O_R   0.875460 0.614540 0.021360 -0.560730

loop_
_geom_bond_atom_site_label_1
_geom_bond_atom_site_label_2
_ccdc_geom_bond_type
C25   C31   A    
C48   H2    S    
C21   C87   A    
C26   C32   A    
C9    Cl8   S    
Cu4   O24   S    
C22   C29   A    
C45   O22   A    
C64   C77   A    
C23   C69   S    
C46   H17   S    
C3    O16   A    
C19   C31   A    
C78   O13   A    
Cu3   O18   S    
C71   C79   A    
C26   C44   A    
C66   C80   A    
C21   C36   A    
C2    O19   A    
C22   C35   A    
C12   C68   S    
C9    C42   A    
Cu4   O19   S    
C12   O4    A    
C30   C35   A    
C65   C79   A    
C68   C81   A    
C83   H10   S    
C52   C85   A    
Cu6   O10   S    
C37   C40   A    
C1    O3    A    
Cu3   O15   S    
Cu6   O11   S    
C3    O1    A    
C58   C71   A    
C14   Cl12  S    
C54   C68   A    
C63   C76   A    
C34   O8    A    
C56   C65   S    
C29   C33   A    
C60   C73   A    
C41   H13   S    
C55   C88   A    
C35   C42   A    
C19   C26   A    
Cu5   O9    S    
C69   C82   A    
C15   Cl2   S    
Cu2   O12   S    
C20   C86   A    
C18   C84   A    
Cu5   Cu6   S    
C53   C86   A    
C67   C73   S    
C22   C88   A    
C57   C70   A    
C11   C58   A    
Cu1   O1    S    
C34   C70   S    
C27   C50   A    
C59   C72   A    
C49   H3    S    
Cu6   O21   S    
C5    C38   A    
C36   C41   A    
C18   C25   A    
C16   C62   A    
C15   C48   A    
C74   C82   A    
C77   H5    S    
C4    O17   A    
C56   O10   A    
C24   C33   A    
C15   C61   A    
C45   O9    A    
C57   C90   A    
C23   O7    A    
C29   C48   A    
C33   C43   A    
C70   C83   A    
C30   C47   A    
C10   C57   A    
C8    C41   A    
C8    C54   A    
Cu5   O20   S    
C75   C81   A    
C1    O5    A    
C44   H16   S    
Cu1   O17   S    
C11   Cl10  S    
C3    C71   S    
C8    Cl7   S    
C72   C77   A    
C7    Cl6   S    
C61   C88   A    
C28   C49   A    
Cu4   O14   S    
C80   H7    S    
C7    C40   A    
C89   O14   A    
C67   O20   A    
C50   H4    S    
C1    C66   S    
C16   Cl3   S    
C11   C44   A    
C5    Cl1   S    
C16   C49   A    
C38   H1    S    
C53   C66   A    
C55   C69   A    
C78   O21   A    
C9    C55   A    
C40   H12   S    
C21   C28   A    
C32   C38   A    
Cu2   O3    S    
C63   C86   A    
C74   C78   S    
C61   C74   A    
Cu2   O16   S    
C62   C75   A    
C18   C32   A    
C7    C53   A    
C13   Cl11  S    
C58   C85   A    
C43   H15   S    
C4    C72   S    
C2    C76   S    
C42   H14   S    
C47   H18   S    
Cu3   O7    S    
Cu3   Cu4   S    
C13   C46   A    
C12   O6    A    
Cu3   O2    S    
C10   C43   A    
C23   O24   A    
C51   C64   A    
C76   C80   A    
C19   C85   A    
C24   C90   A    
C17   C50   A    
C14   C47   A    
C13   C59   A    
C20   C27   A    
C60   C90   A    
C27   C36   A    
C89   O18   A    
C14   C60   A    
C62   C87   A    
C45   C64   S    
C59   C84   A    
C17   C63   A    
C20   C37   A    
C54   C87   A    
C28   C37   A    
C39   H11   S    
C51   C84   A    
C81   H8    S    
C31   C39   A    
Cu5   O13   S    
C10   Cl9   S    
C67   O11   A    
Cu1   O4    S    
C24   C30   A    
C75   C89   S    
C4    O12   A    
Cu5   O23   S    
Cu4   O8    S    
C34   O2    A    
C6    Cl5   S    
Cu2   O6    S    
C79   H6    S    
Cu1   Cu2   S    
C2    O15   A    
C6    C39   A    
C5    C51   A    
C17   Cl4   S    
C82   H9    S    
C6    C52   A    
C56   O23   A    
Cu1   O5    S    
C25   C46   A    
C73   C83   A    
C52   C65   A    
Cu6   O22   S    
