data_str_m2_o10_o28_f0_pcu.sym.49
_audit_creation_date              2012-10-26T20:18:17-0400
_audit_creation_method            fapswitch 2.2
_symmetry_space_group_name_H-M    P1
_symmetry_Int_Tables_number       1
_space_group_crystal_system       triclinic
_cell_length_a                    23.556348
_cell_length_b                    8.645264
_cell_length_c                    7.474465
_cell_angle_alpha                 104.232564
_cell_angle_beta                  94.38823
_cell_angle_gamma                 93.224873
_cell_volume                      1466.68936652

loop_
_atom_site_label
_atom_site_type_symbol
_atom_type_description
_atom_site_fract_x
_atom_site_fract_y
_atom_site_fract_z
_atom_type_partial_charge
C1    C     C_R   0.498228 0.199160 0.452079 0.541287
C2    C     C_R   0.705903 0.593720 0.649330 -0.197471
C3    C     C_R   0.234912 0.452497 0.329169 -0.031996
C4    C     C_R   0.765441 0.600052 0.653130 -0.019612
C5    C     C_R   0.208484 0.495065 0.495387 0.226433
C6    C     C_R   0.791075 0.514736 0.495656 0.195047
C7    C     C_2   0.497488 0.030198 0.425959 -0.161645
C8    C     C_2   0.502569 0.969792 0.573991 -0.157174
C9    C     C_R   0.391017 0.502269 0.502538 0.555878
C10   C     C_R   0.608820 0.500930 0.498077 0.563904
C11   C     C_R   0.886572 0.653326 0.538905 0.396461
C12   C     C_R   0.501789 0.800838 0.547911 0.534335
C13   C     C_R   0.113427 0.355963 0.429853 0.410819
C14   C     C_R   0.876563 0.369152 0.445414 0.453847
C15   C     C_R   0.124054 0.638967 0.552597 0.440531
C16   C     C_R   0.934805 0.364920 0.417876 -0.006476
C17   C     C_R   0.065238 0.644103 0.569697 -0.000053
C18   C     C_R   0.970375 0.506457 0.491050 -0.146029
C19   C     C_R   0.029715 0.502875 0.490702 -0.143201
C20   C     C_R   0.946242 0.651752 0.563484 -0.004568
C21   C     C_R   0.053591 0.357922 0.412071 -0.006911
C22   C     C_R   0.957534 0.225960 0.314627 0.257654
C23   C     C_R   0.241903 0.548602 0.666963 0.330007
C24   C     C_R   0.041642 0.784129 0.668249 0.259352
C25   C     C_R   0.017527 0.221749 0.313258 0.264485
C26   C     C_R   0.981553 0.788744 0.662589 0.265899
C27   C     C_3   0.905632 0.978780 0.223977 -0.018342
C28   C     C_3   0.093273 0.031691 0.751945 -0.020825
C29   C     C_3   0.041614 0.959205 0.232518 -0.018583
C30   C     C_3   0.956601 0.050731 0.741719 -0.016862
C31   C     C_3   0.223928 0.730792 0.937132 -0.062471
C32   C     C_3   0.787980 0.426938 0.061212 -0.086144
C33   C     C_3   0.361706 0.760740 0.869050 -0.083452
C34   C     C_R   0.755437 0.425682 0.337901 0.312763
C35   C     C_3   0.652961 0.168269 0.210777 -0.071704
C36   C     C_3   0.200621 0.402829 0.142744 -0.347034
C37   C     C_3   0.799555 0.697517 0.827866 -0.350724
C38   C     C_R   0.302208 0.559399 0.673012 0.243013
C39   C     C_R   0.695925 0.416269 0.340051 0.246211
C40   C     C_R   0.328430 0.507601 0.505937 -0.051805
C41   C     C_R   0.671077 0.503775 0.494632 -0.046126
C42   C     C_R   0.294330 0.458167 0.336663 -0.191123
Cu1   Cu    Cu3+1 0.506340 0.517380 0.684380 0.961413
Cu2   Cu    Cu3+1 0.493660 0.482620 0.315620 0.972670
H1    H     H_    0.314136 0.421449 0.208299 0.171805
H2    H     H_    0.087451 0.018805 0.600186 0.120714
H3    H     H_    0.070936 0.134741 0.824894 0.136203
H4    H     H_    0.139427 0.062102 0.796282 0.171089
H5    H     H_    0.016715 0.950872 0.350344 0.024693
H6    H     H_    0.024832 0.860041 0.112201 0.178078
H7    H     H_    0.086608 0.937698 0.267179 0.176030
H8    H     H_    0.982709 0.060333 0.627001 0.027090
H9    H     H_    0.972215 0.149698 0.863733 0.180425
H10   H     H_    0.911789 0.071158 0.702931 0.185633
H11   H     H_    0.237173 0.819413 0.859416 0.142565
H12   H     H_    0.686400 0.660624 0.768320 0.146217
H13   H     H_    0.255997 0.734484 0.055130 0.149499
H14   H     H_    0.183676 0.768389 0.996732 0.167652
H15   H     H_    0.817481 0.534611 0.126552 0.105095
H16   H     H_    0.746736 0.460828 0.004797 0.145790
H17   H     H_    0.808476 0.354681 0.943079 0.163645
H18   H     H_    0.371126 0.793130 0.738347 0.100809
H19   H     H_    0.403020 0.767937 0.953782 0.165262
H20   H     H_    0.335835 0.852397 0.947805 0.087720
H21   H     H_    0.625453 0.094883 0.088969 0.136341
H22   H     H_    0.630255 0.168397 0.336087 0.104749
H23   H     H_    0.492786 0.955558 0.284675 0.122474
H24   H     H_    0.693774 0.110222 0.218250 0.156992
H25   H     H_    0.175660 0.286997 0.125093 0.181057
H26   H     H_    0.171180 0.495716 0.128050 0.164585
H27   H     H_    0.228768 0.385229 0.028230 0.177887
H28   H     H_    0.839345 0.641526 0.856831 0.133898
H29   H     H_    0.809685 0.821407 0.817179 0.216128
H30   H     H_    0.774541 0.709369 0.949724 0.086695
H31   H     H_    0.507276 0.044431 0.715266 0.133570
H32   H     H_    0.454260 0.377808 0.948319 0.244836
H33   H     H_    0.545691 0.622344 0.051704 0.237367
H34   H     H_    0.858815 0.953096 0.190785 0.181262
H35   H     H_    0.915263 0.983317 0.372629 0.123378
H36   H     H_    0.925728 0.876830 0.138357 0.133180
N1    N     N_R   0.852598 0.512748 0.495411 -0.389765
N2    N     N_R   0.147215 0.496007 0.491479 -0.373056
N3    N     N_2   0.484110 0.456420 0.038520 -0.246213
N4    N     N_2   0.515890 0.543580 0.961480 -0.253560
O1    O     O_R   0.504120 0.286130 0.619770 -0.500317
O2    O     O_2   0.137763 0.215668 0.390350 -0.506458
O3    O     O_2   0.844479 0.231188 0.427325 -0.465475
O4    O     O_2   0.157976 0.775871 0.591813 -0.518559
O5    O     O_3   0.922189 0.120961 0.174204 -0.516798
O6    O     O_3   0.075850 0.893145 0.808117 -0.526104
O7    O     O_3   0.039774 0.105281 0.179942 -0.505212
O8    O     O_3   0.958063 0.904392 0.793571 -0.513844
O9    O     O_3   0.213840 0.572192 0.826921 -0.576297
O10   O     O_3   0.778653 0.333413 0.186793 -0.509285
O11   O     O_3   0.334414 0.605323 0.843345 -0.553747
O12   O     O_R   0.495880 0.713870 0.380230 -0.508983
O13   O     O_3   0.662243 0.324276 0.186925 -0.536944
O14   O     O_R   0.493410 0.256770 0.308360 -0.501004
O15   O     O_R   0.506590 0.743230 0.691640 -0.515547
O16   O     O_R   0.423230 0.514630 0.655730 -0.467183
O17   O     O_R   0.576770 0.485370 0.344270 -0.457378
O18   O     O_R   0.412530 0.485280 0.344320 -0.505353
O19   O     O_R   0.587470 0.514720 0.655680 -0.503143
O20   O     O_2   0.862922 0.793332 0.552115 -0.521869

loop_
_geom_bond_atom_site_label_1
_geom_bond_atom_site_label_2
_ccdc_geom_bond_type
C32   O10   S    
C37   H30   S    
C3    C42   A    
C27   H34   S    
C7    C8    D    
C28   H3    S    
C29   H5    S    
C11   N1    A    
C30   H10   S    
C28   H2    S    
C21   C25   A    
C3    C36   S    
C31   H14   S    
C10   O19   A    
C19   C21   A    
Cu1   O15   S    
C14   O3    S    
C27   H35   S    
C39   O13   S    
C35   H21   S    
C2    C41   A    
C26   O8    S    
C18   C19   A    
C12   O15   A    
C30   H8    S    
Cu2   O14   S    
C33   H18   S    
C22   C25   A    
C13   O2    S    
C11   O20   S    
C36   H27   S    
C33   H19   S    
Cu2   N3    S    
C40   C42   A    
C6    N1    S    
C10   C41   S    
Cu1   N4    S    
C33   O11   S    
H32   N3    S    
C36   H26   S    
C15   N2    A    
C29   H6    S    
C1    O1    A    
C30   H9    S    
C11   C20   A    
C25   O7    S    
C17   C24   A    
C34   C39   A    
Cu1   O1    S    
Cu1   O16   S    
C30   O8    S    
C27   H36   S    
Cu2   O18   S    
C9    O18   A    
H33   N4    S    
C31   O9    S    
C13   N2    A    
C9    C40   S    
C23   O9    S    
C42   H1    S    
C38   O11   S    
C2    C4    A    
Cu1   Cu2   S    
Cu2   O12   S    
N3    N4    D    
C5    C23   A    
C8    C12   S    
C13   C21   A    
C4    C6    A    
C9    O16   A    
C14   C16   A    
C32   H16   S    
C29   O7    S    
C36   H25   S    
C29   H7    S    
C15   C17   A    
C37   H29   S    
C28   H4    S    
C16   C22   A    
C1    C7    S    
C10   O17   A    
C34   O10   S    
C24   C26   A    
C3    C5    A    
C24   O6    S    
C1    O14   A    
C32   H17   S    
Cu2   O17   S    
C23   C38   A    
C35   H22   S    
C31   H13   S    
C2    H12   S    
C38   C40   A    
C5    N2    S    
C20   C26   A    
C35   H24   S    
C33   H20   S    
C32   H15   S    
C17   C19   A    
C22   O5    S    
C27   O5    S    
C18   C20   A    
C8    H31   S    
Cu1   O19   S    
C7    H23   S    
C6    C34   A    
C4    C37   S    
C39   C41   A    
C16   C18   A    
C37   H28   S    
C12   O12   A    
C28   O6    S    
C14   N1    A    
C31   H11   S    
C35   O13   S    
C15   O4    S    
