data_str_m12_o9_o22_f0_bcu.sym.5
_audit_creation_date              2012-12-11T17:45:30-0500
_audit_creation_method            fapswitch 2.2
_symmetry_space_group_name_H-M    P1
_symmetry_Int_Tables_number       1
_space_group_crystal_system       triclinic
_cell_length_a                    15.073804
_cell_length_b                    14.994063
_cell_length_c                    15.183427
_cell_angle_alpha                 110.781826
_cell_angle_beta                  109.419478
_cell_angle_gamma                 107.606052
_cell_volume                      2659.77943827

loop_
_atom_site_label
_atom_site_type_symbol
_atom_type_description
_atom_site_fract_x
_atom_site_fract_y
_atom_site_fract_z
_atom_type_partial_charge
C1    C     C_R   0.910155 0.195969 0.992991 -0.159177
C2    C     C_R   0.687522 0.244233 0.778283 -0.082448
C3    C     C_R   0.788521 0.591690 0.092894 -0.154178
C4    C     C_R   0.305571 0.791353 0.222582 -0.160519
C5    C     C_R   0.998958 0.408500 0.697849 -0.167726
C6    C     C_R   0.697585 0.501618 0.062145 -0.004985
C7    C     C_R   0.052988 0.498466 0.693489 0.069858
C8    C     C_R   0.677314 0.215610 0.676552 0.054745
C9    C     C_R   0.949258 0.776705 0.951766 0.057233
C10   C     C_R   0.706860 0.268159 0.151368 -0.132432
C11   C     C_R   0.796082 0.348090 0.253003 -0.073179
C12   C     C_R   0.309773 0.837089 0.323252 0.058664
C13   C     C_R   0.876125 0.324596 0.302025 0.186505
C14   C     C_R   0.866275 0.221155 0.247333 -0.139904
C15   C     C_R   0.776621 0.142142 0.146113 -0.008111
C16   C     C_R   0.223377 0.407457 0.973197 -0.142650
C17   C     C_R   0.697011 0.165414 0.098120 -0.059299
C18   C     C_R   0.975957 0.415418 0.499754 -0.224516
C19   C     C_R   0.064345 0.495056 0.601151 0.042199
C20   C     C_R   0.154742 0.570276 0.609556 0.014193
C21   C     C_R   0.151192 0.566840 0.515364 -0.208524
C22   C     C_R   0.061078 0.488638 0.414599 0.032825
C23   C     C_R   0.324219 0.498036 0.046887 -0.010452
C24   C     C_R   0.973723 0.409739 0.406340 -0.000029
C25   C     C_R   0.276029 0.755553 0.773278 -0.140348
C26   C     C_R   0.377528 0.834318 0.861279 -0.020177
C27   C     C_R   0.460570 0.808307 0.885935 0.042343
C28   C     C_R   0.060432 0.589649 0.313680 -0.120113
C29   C     C_R   0.440982 0.702152 0.826175 -0.060232
C30   C     C_R   0.338835 0.622552 0.739780 -0.150008
C31   C     C_R   0.255951 0.649083 0.712100 0.131568
C32   C     C_R   0.125901 0.948008 0.487565 0.600049
C33   C     C_R   0.218419 0.993671 0.482035 -0.297462
C34   C     C_R   0.052141 0.498016 0.320501 0.048939
C35   C     C_R   0.306581 0.978877 0.528319 -0.188841
C36   C     C_R   0.305784 0.926464 0.589747 0.595902
C37   C     C_R   0.212267 0.880214 0.593311 -0.306337
C38   C     C_R   0.122273 0.888027 0.540531 -0.380021
C39   C     C_R   0.482984 0.108299 0.577403 -0.194145
C40   C     C_R   0.312565 0.589869 0.062737 -0.111777
C41   C     C_R   0.580144 0.126896 0.578732 0.033535
C42   C     C_R   0.585937 0.044459 0.502814 0.187122
C43   C     C_R   0.496963 0.947482 0.427059 -0.085201
C44   C     C_R   0.400054 0.930718 0.421663 0.041662
C45   C     C_R   0.700384 0.410575 0.001191 -0.148350
C46   C     C_R   0.393607 0.007840 0.503171 0.146957
C47   C     C_R   0.659107 0.121640 0.415077 -0.407599
C48   C     C_R   0.736635 0.156700 0.388477 0.710557
C49   C     C_R   0.826312 0.141004 0.423577 -0.221474
C50   C     C_R   0.833473 0.083728 0.478901 -0.368811
C51   C     C_R   0.750829 0.041301 0.498855 0.618164
C52   C     C_R   0.990049 0.410635 0.216955 -0.123469
C53   C     C_R   0.667693 0.068139 0.472825 -0.151008
C54   C     C_3   0.534084 0.399586 0.067770 -0.410592
C55   C     C_3   0.428471 0.396084 0.060001 -0.412528
C56   C     C_R   0.086001 0.589468 0.787914 -0.124752
C57   C     C_3   0.628332 0.603105 0.167090 -0.374198
C58   C     C_3   0.533758 0.499101 0.962951 -0.376455
C59   C     C_3   0.601085 0.500891 0.066218 0.361849
C60   C     C_3   0.425066 0.497504 0.058898 0.342047
C61   C     C_3   0.524311 0.598042 0.165781 -0.318833
C62   C     C_3   0.430601 0.496449 0.958228 -0.355502
C63   C     C_R   0.147620 0.069309 0.751811 -0.147265
C64   C     C_R   0.212076 0.783126 0.310418 -0.091784
C65   C     C_R   0.053902 0.018865 0.753129 -0.142014
C66   C     C_R   0.059423 0.018325 0.846899 0.072975
C67   C     C_R   0.779441 0.253164 0.688506 -0.088156
C68   C     C_R   0.160133 0.061866 0.936426 -0.168286
C69   C     C_R   0.253577 0.106038 0.932149 -0.124037
C70   C     C_R   0.247263 0.109898 0.839783 -0.080289
C71   C     C_R   0.940433 0.862637 0.840051 -0.197497
C72   C     C_R   0.906271 0.836840 0.907419 0.033710
C73   C     C_R   0.853746 0.889906 0.948290 0.054167
C74   C     C_R   0.838564 0.964400 0.919662 -0.191035
C75   C     C_R   0.910613 0.017874 0.893551 0.112519
C76   C     C_R   0.002341 0.198602 0.905284 -0.074384
C77   C     C_R   0.961724 0.963790 0.850199 0.075227
C78   C     C_R   0.929228 0.744083 0.021783 -0.108538
C79   C     C_R   0.758903 0.870718 0.053380 -0.391407
C80   C     C_R   0.762283 0.897546 0.153197 0.636020
C81   C     C_R   0.861275 0.955928 0.248239 -0.234343
C82   C     C_R   0.956149 0.994772 0.245360 -0.154351
C83   C     C_R   0.952795 0.971721 0.146894 -0.181694
C84   C     C_R   0.854332 0.906918 0.050046 0.057815
C85   C     C_R   0.943745 0.134003 0.932471 0.076706
C86   C     C_R   0.028190 0.752559 0.939482 -0.136472
H1    H     H_    0.851025 0.168293 0.015101 0.100502
H2    H     H_    0.644958 0.285120 0.113511 0.098627
H3    H     H_    0.803323 0.427863 0.293015 0.099835
H4    H     H_    0.364414 0.823932 0.201321 0.103554
H5    H     H_    0.929163 0.203056 0.281724 0.098574
H6    H     H_    0.769570 0.063492 0.103809 0.113273
H7    H     H_    0.905636 0.360588 0.493804 0.158456
H8    H     H_    0.218287 0.625505 0.520080 0.189369
H9    H     H_    0.213065 0.777415 0.752790 0.095092
H10   H     H_    0.392598 0.916284 0.908198 0.121905
H11   H     H_    0.540128 0.870811 0.950716 0.146174
H12   H     H_    0.135917 0.672550 0.815535 0.092318
H13   H     H_    0.505109 0.681654 0.845443 0.116002
H14   H     H_    0.325276 0.541385 0.692027 0.113381
H15   H     H_    0.050991 0.850593 0.544363 0.173563
H16   H     H_    0.203644 0.322951 0.937353 0.107805
H17   H     H_    0.219474 0.035519 0.436750 0.156453
H18   H     H_    0.208736 0.837502 0.637016 0.184409
H19   H     H_    0.478913 0.167897 0.640055 0.120824
H20   H     H_    0.503027 0.887127 0.366848 0.151194
H21   H     H_    0.591675 0.137386 0.391874 0.134270
H22   H     H_    0.890016 0.171577 0.407422 0.142093
H23   H     H_    0.802762 0.251272 0.628674 0.095886
H24   H     H_    0.902199 0.070580 0.504082 0.184729
H25   H     H_    0.096647 0.670446 0.380823 0.113811
H26   H     H_    0.580908 0.403782 0.144526 0.158089
H27   H     H_    0.513510 0.322700 0.998912 0.151412
H28   H     H_    0.361187 0.321888 0.984455 0.163499
H29   H     H_    0.420851 0.391769 0.128996 0.163701
H30   H     H_    0.680979 0.608477 0.242478 0.151061
H31   H     H_    0.522660 0.593058 0.236675 0.159310
H32   H     H_    0.579741 0.572136 0.961834 0.179702
H33   H     H_    0.513937 0.426454 0.889371 0.149444
H34   H     H_    0.868843 0.743905 0.044488 0.124723
H35   H     H_    0.361477 0.421794 0.882788 0.143646
H36   H     H_    0.373989 0.673013 0.106075 0.131891
H37   H     H_    0.424599 0.566025 0.951641 0.207364
H38   H     H_    0.671930 0.677753 0.167469 0.204704
H39   H     H_    0.524774 0.674647 0.176092 0.234775
H40   H     H_    0.319573 0.145660 0.836918 0.118313
H41   H     H_    0.143032 0.076479 0.682335 0.143579
H42   H     H_    0.977658 0.984044 0.683043 0.224117
H43   H     H_    0.165947 0.059678 0.008623 0.111632
H44   H     H_    0.330883 0.138281 0.000777 0.115028
H45   H     H_    0.065570 0.767931 0.893428 0.094964
H46   H     H_    0.974738 0.819401 0.801320 0.127790
H47   H     H_    0.792227 0.998623 0.945632 0.116762
H48   H     H_    0.975219 0.328809 0.192547 0.110740
H49   H     H_    0.683129 0.825749 0.979312 0.159700
H50   H     H_    0.865108 0.973239 0.324755 0.190219
H51   H     H_    0.032380 0.044497 0.319452 0.185613
H52   H     H_    0.026895 0.003960 0.145723 0.126411
H53   H     H_    0.182247 0.800567 0.365285 0.103666
H54   H     H_    0.023607 0.173614 0.843473 0.128708
H55   H     H_    0.646751 0.326812 0.969826 0.097897
H56   H     H_    0.625067 0.222957 0.798704 0.120643
H57   H     H_    0.981820 0.925558 0.451386 0.322620
H58   H     H_    0.581807 0.964002 0.700789 0.393246
H59   H     H_    0.657422 0.210252 0.310071 0.308318
H60   H     H_    0.761494 0.835807 0.430726 0.362090
H61   H     H_    0.540284 0.940977 0.160927 0.359687
H62   H     H_    0.815175 0.675760 0.147514 0.107184
H63   H     H_    0.973633 0.324991 0.642779 0.109795
H64   H     H_    0.627950 0.103959 0.019426 0.135177
N1    N     N_R   0.947080 0.293830 0.002870 -0.043020
N2    N     N_R   0.153670 0.443180 0.946090 -0.040617
N3    N     N_R   0.002360 0.556820 0.208890 -0.044378
N4    N     N_R   0.210070 0.556820 0.002870 -0.039516
N5    N     N_R   0.945960 0.443180 0.152110 -0.041673
N6    N     N_R   0.151710 0.706170 0.208890 -0.044438
N7    N     N_R   0.004320 0.293830 0.946090 -0.050004
N8    N     N_R   0.789930 0.443180 0.997130 -0.037411
N9    N     N_R   0.054040 0.556820 0.847890 -0.040797
N10   N     N_R   0.848290 0.293830 0.791110 -0.036452
N11   N     N_R   0.995680 0.706170 0.053910 -0.047528
N12   N     N_R   0.052920 0.706170 0.997130 -0.044218
N13   N     N_R   0.791050 0.293830 0.847890 -0.044459
N14   N     N_R   0.846330 0.556820 0.053910 -0.038956
N15   N     N_R   0.997640 0.443180 0.791110 -0.043073
N16   N     N_R   0.208950 0.706170 0.152110 -0.038229
Ni1   Ni    Ni4+2 0.869690 0.369690 0.000000 0.225372
Ni2   Ni    Ni4+2 0.130310 0.630310 0.000000 0.216233
Ni3   Ni    Ni4+2 0.000970 0.369690 0.869780 0.232063
Ni4   Ni    Ni4+2 0.999030 0.630310 0.130220 0.223523
O1    O     O_3   0.040253 0.962418 0.440093 -0.803631
O2    O     O_2   0.660809 0.867396 0.263437 -0.370225
O3    O     O_3   0.607806 0.963232 0.158203 -0.555271
O4    O     O_2   0.459754 0.995656 0.785195 -0.369082
O5    O     O_2   0.385205 0.806617 0.647665 -0.316729
O6    O     O_3   0.519757 0.954561 0.641105 -0.503588
O7    O     O_3   0.725652 0.207116 0.329212 -0.772027
O8    O     O_2   0.819207 0.026426 0.675700 -0.328313
O9    O     O_2   0.644226 0.879437 0.524903 -0.263745
O10   O     O_3   0.811310 0.883868 0.509665 -0.577855
O11   O     O_2   0.556600 0.759746 0.064924 -0.401883
S1    S     S_3+6 0.419096 0.920051 0.667769 -0.076209
S2    S     S_3+6 0.754135 0.956464 0.554777 -0.056316
S3    S     S_3+6 0.643868 0.868170 0.160593 -0.145010

loop_
_geom_bond_atom_site_label_1
_geom_bond_atom_site_label_2
_ccdc_geom_bond_type
C25   C31   A    
C66   C68   A    
C63   C65   A    
C58   C62   S    
C6    C45   A    
C54   H27   S    
C27   C29   A    
C52   H48   S    
C41   C42   A    
N14   Ni4   S    
C17   H64   S    
C9    C72   S    
C56   H12   S    
C3    C6    A    
N4    Ni2   S    
O4    S1    D    
N11   N12   A    
C56   N9    A    
C39   C41   A    
C52   N5    A    
O6    S1    S    
C26   H10   S    
C10   H2    S    
C26   C27   A    
C29   C30   A    
C83   C84   A    
C18   C24   A    
N1    N7    A    
C36   C37   A    
C5    N15   A    
C82   H51   S    
C51   S2    S    
C42   C53   S    
C30   C31   A    
C12   C64   A    
C86   H45   S    
C57   C59   S    
C21   H8    S    
C10   C17   A    
C23   C40   A    
C74   H47   S    
C30   H14   S    
C50   H24   S    
C5    H63   S    
N9    Ni2   S    
C60   C62   S    
C18   C19   A    
C73   C74   A    
C1    H1    S    
C49   C50   A    
C58   H32   S    
C11   H3    S    
C48   O7    S    
C13   C14   A    
N7    Ni3   S    
C71   H46   S    
C75   C85   S    
C35   C36   A    
O3    S3    S    
N5    Ni1   S    
C69   H44   S    
N3    Ni4   S    
N10   Ni3   S    
C67   N10   A    
C86   N12   A    
C32   C38   A    
C4    C12   A    
C73   C84   S    
O9    S2    D    
O8    S2    D    
O10   S2    S    
N8    N14   A    
C47   C53   A    
C70   H40   S    
C15   H6    S    
C28   C34   A    
C3    H62   S    
C21   C22   A    
C45   H55   S    
C40   N4    A    
C68   H43   S    
C7    C56   A    
C62   H37   S    
C44   C46   A    
N8    Ni1   S    
C81   C82   A    
C49   H22   S    
C4    H4    S    
C54   C59   S    
C76   H54   S    
C28   H25   S    
N15   Ni3   S    
C23   C60   S    
C22   C34   S    
C76   N7    A    
C74   C75   A    
C29   H13   S    
C61   H31   S    
C65   H42   S    
N16   Ni2   S    
C8    C41   S    
C72   C73   A    
C5    C7    A    
C68   C69   A    
C25   C26   A    
C82   C83   A    
C57   H30   S    
C13   C24   S    
C60   C61   S    
C51   C53   A    
C43   H20   S    
C78   H34   S    
C43   C44   A    
N10   N13   A    
C37   C38   A    
C9    C86   A    
O2    S3    D    
C47   C48   A    
C63   C70   A    
N6    N16   A    
N13   Ni1   S    
C62   H35   S    
H58   O6    S    
C50   C51   A    
H60   O10   S    
C16   N2    A    
C75   C77   A    
C3    N14   A    
C8    C67   A    
C39   C46   A    
N12   Ni2   S    
N11   Ni4   S    
C16   H16   S    
C48   C49   A    
C32   O1    S    
N2    N4    A    
C25   H9    S    
C16   C23   A    
C47   H21   S    
O5    S1    D    
C28   N3    A    
C2    H56   S    
C22   C24   A    
C1    C85   A    
N3    N5    A    
C42   C43   A    
C71   C77   A    
C79   H49   S    
C81   H50   S    
O11   S3    D    
C15   C17   A    
C66   C77   S    
C54   C55   S    
C27   H11   S    
C33   H17   S    
C34   C52   A    
C6    C59   S    
C2    C8    A    
C45   N8    A    
C39   H19   S    
C80   C81   A    
C2    N13   A    
C37   H18   S    
H61   O3    S    
C57   C61   S    
C55   H28   S    
C38   H15   S    
C40   H36   S    
C64   N6    A    
C7    C19   S    
C32   C33   A    
C19   C20   A    
C58   C59   S    
H57   O1    S    
C71   C72   A    
C12   C44   S    
C57   H38   S    
N2    Ni3   S    
C11   C13   A    
C67   H23   S    
C79   C84   A    
C55   H29   S    
N1    Ni1   S    
N6    Ni4   S    
C58   H33   S    
C33   C35   A    
C4    N16   A    
C1    N1    A    
C9    C78   A    
C80   S3    S    
C69   C70   A    
C14   H5    S    
C10   C11   A    
C79   C80   A    
N9    N15   A    
C36   S1    S    
C20   C21   A    
C78   N11   A    
C65   C66   A    
H59   O7    S    
C18   H7    S    
C14   C15   A    
C54   H26   S    
C61   H39   S    
C55   C60   S    
C35   C46   S    
C76   C85   A    
C20   C31   S    
C83   H52   S    
C63   H41   S    
C64   H53   S    
