data_str_m3_o12_o16_f0_pcu.sym.61
_audit_creation_date              2012-12-10T17:17:30-0500
_audit_creation_method            fapswitch 2.2
_symmetry_space_group_name_H-M    P1
_symmetry_Int_Tables_number       1
_space_group_crystal_system       triclinic
_cell_length_a                    10.222329
_cell_length_b                    10.804305
_cell_length_c                    12.321717
_cell_angle_alpha                 91.192273
_cell_angle_beta                  109.85551
_cell_angle_gamma                 96.237507
_cell_volume                      1269.96950259

loop_
_atom_site_label
_atom_site_type_symbol
_atom_type_description
_atom_site_fract_x
_atom_site_fract_y
_atom_site_fract_z
_atom_type_partial_charge
C1    C     C_R   0.050224 0.732122 0.489870 0.924200
C2    C     C_R   0.204601 0.512257 0.839213 -0.175708
C3    C     C_2   0.073192 0.863515 0.474646 -0.355327
C4    C     C_R   0.133656 0.509107 0.714195 0.892349
C5    C     C_2   0.969344 0.931034 0.468187 -0.151215
C6    C     C_2   0.910461 0.134137 0.497594 -0.359698
C7    C     C_2   0.991256 0.063291 0.465008 -0.140764
C8    C     C_2   0.430764 0.521846 0.499211 0.298860
C9    C     C_2   0.565008 0.493973 0.483647 -0.100802
C10   C     C_R   0.946470 0.267406 0.504492 0.929767
C11   C     C_R   0.864625 0.485448 0.286043 0.858981
C12   C     C_R   0.411994 0.476605 0.996097 0.023162
C13   C     C_R   0.717499 0.316319 0.993860 -0.112889
C14   C     C_R   0.782808 0.454969 0.165009 -0.029764
C15   C     C_R   0.166852 0.592444 0.913499 0.085248
C16   C     C_R   0.241610 0.598487 0.033165 0.471528
C17   C     C_R   0.365922 0.544273 0.072770 -0.311250
C18   C     C_3   0.458315 0.750040 0.518131 -0.686477
C19   C     C_3   0.104935 0.785549 0.825129 -0.673450
C20   C     C_R   0.319493 0.444165 0.883991 -0.023368
C21   C     C_R   0.547724 0.440818 0.027491 0.070659
C22   C     C_R   0.580619 0.351258 0.957495 0.019686
C23   C     C_R   0.475369 0.299964 0.854307 0.384923
C24   C     C_R   0.346668 0.347448 0.818668 -0.264542
C25   C     C_R   0.653362 0.497916 0.124794 -0.218189
C26   C     C_R   0.817096 0.365978 0.098557 -0.155829
H1    H     H_    0.918068 0.331352 0.129568 0.168655
H2    H     H_    0.424736 0.553724 0.164310 0.186726
H3    H     H_    0.266974 0.307636 0.739509 0.200810
H4    H     H_    0.080525 0.102768 0.442455 0.216823
H5    H     H_    0.369081 0.631980 0.612480 0.277590
H6    H     H_    0.359677 0.769980 0.451773 0.289974
H7    H     H_    0.540852 0.750041 0.478375 0.237093
H8    H     H_    0.491575 0.826144 0.587380 0.249068
H9    H     H_    0.293823 0.081941 0.685794 0.351585
H10   H     H_    0.995253 0.681905 0.913631 0.295930
H11   H     H_    0.012954 0.835141 0.782450 0.234880
H12   H     H_    0.869278 0.889995 0.472447 0.195732
H13   H     H_    0.155908 0.767157 0.760897 0.216311
H14   H     H_    0.180118 0.846552 0.898322 0.266726
H15   H     H_    0.996133 0.691557 0.167342 0.378300
H16   H     H_    0.821529 0.094107 0.520190 0.178767
H17   H     H_    0.172998 0.905181 0.470562 0.182377
H18   H     H_    0.560349 0.422895 0.418471 0.147894
H19   H     H_    0.689871 0.616717 0.609998 0.202645
H20   H     H_    0.318179 0.367924 0.408067 0.157218
H21   H     H_    0.747895 0.248381 0.944407 0.213270
H22   H     H_    0.635759 0.574826 0.173525 0.157035
N1    N     N_2   0.313640 0.446500 0.454900 -0.180735
N2    N     N_2   0.686360 0.553430 0.545150 -0.191296
N3    N     N_2   0.436540 0.632256 0.567353 -0.316015
N4    N     N_2   0.059159 0.669987 0.866342 -0.275713
O1    O     O_R   0.936910 0.692950 0.509080 -0.611793
O2    O     O_2   0.549081 0.071937 0.833441 -0.319938
O3    O     O_3   0.354011 0.134919 0.652344 -0.558064
O4    O     O_2   0.273761 0.652345 0.255226 -0.331573
O5    O     O_2   0.211869 0.817995 0.120876 -0.309846
O6    O     O_3   0.018751 0.636772 0.112401 -0.584817
O7    O     O_R   0.138320 0.658600 0.480130 -0.599530
O8    O     O_R   0.002900 0.525670 0.675280 -0.566723
O9    O     O_R   0.204310 0.491320 0.646330 -0.640119
O10   O     O_R   0.861680 0.341400 0.519870 -0.587083
O11   O     O_R   0.063090 0.307050 0.490920 -0.610386
O12   O     O_R   0.795690 0.508680 0.353670 -0.624050
O13   O     O_R   0.997100 0.474330 0.324720 -0.570173
O14   O     O_2   0.613618 0.232645 0.717609 -0.280521
S1    S     S_3+6 0.501864 0.181994 0.764279 -0.001478
S2    S     S_3+6 0.189183 0.680273 0.134485 -0.010698
Zn1   Zn    Zn3+2 0.865520 0.522940 0.519330 0.972750
Zn2   Zn    Zn3+2 0.134480 0.477060 0.480670 0.992298

loop_
_geom_bond_atom_site_label_1
_geom_bond_atom_site_label_2
_ccdc_geom_bond_type
C12   C17   A    
C6    C10   S    
O3    S1    S    
C23   C24   A    
C25   H22   S    
C6    C7    D    
C16   S2    S    
C19   H11   S    
C2    C4    S    
C10   O11   A    
H10   N4    S    
O11   Zn2   S    
H15   O6    S    
H9    O3    S    
O1    Zn1   S    
C12   C20   A    
C15   N4    S    
O14   S1    D    
O9    Zn2   S    
O4    S2    D    
O12   Zn1   S    
C14   C26   A    
C2    C15   A    
C18   H8    S    
C8    N3    S    
C4    O8    A    
C26   H1    S    
C10   O10   A    
C13   C22   A    
C19   H13   S    
H19   N2    S    
C3    H17   S    
O6    S2    S    
C18   H7    S    
N2    Zn1   S    
C18   N3    S    
C19   N4    S    
N1    Zn2   S    
C1    O7    A    
C14   C25   A    
C11   C14   S    
H20   N1    S    
C13   C26   A    
C8    N1    D    
C18   H6    S    
C19   H14   S    
O7    Zn2   S    
C2    C20   A    
C15   C16   A    
C12   C21   A    
C11   O13   A    
O8    Zn1   S    
C5    H12   S    
C5    C7    S    
C11   O12   A    
C6    H16   S    
C23   S1    S    
C7    H4    S    
C21   C25   A    
C24   H3    S    
C16   C17   A    
C9    H18   S    
C1    O1    A    
O2    S1    D    
O5    S2    D    
C3    C5    D    
C21   C22   A    
C17   H2    S    
C13   H21   S    
C4    O9    A    
C20   C24   A    
C22   C23   A    
C9    N2    D    
O13   Zn2   S    
O10   Zn1   S    
H5    N3    S    
C8    C9    S    
C1    C3    S    
