data_str_m3_o10_o16_f0_pcu.sym.137
_audit_creation_date              2012-12-10T16:51:28-0500
_audit_creation_method            fapswitch 2.2
_symmetry_space_group_name_H-M    P1
_symmetry_Int_Tables_number       1
_space_group_crystal_system       triclinic
_cell_length_a                    7.850953
_cell_length_b                    8.567867
_cell_length_c                    12.44777
_cell_angle_alpha                 92.65893
_cell_angle_beta                  102.552943
_cell_angle_gamma                 93.819687
_cell_volume                      813.885573342

loop_
_atom_site_label
_atom_site_type_symbol
_atom_type_description
_atom_site_fract_x
_atom_site_fract_y
_atom_site_fract_z
_atom_type_partial_charge
C1    C     C_R   0.043867 0.794352 0.496774 0.938562
C2    C     C_R   0.190924 0.601809 0.820659 -0.128423
C3    C     C_2   0.066133 0.957777 0.494185 -0.357851
C4    C     C_R   0.114653 0.536293 0.706838 0.863561
C5    C     C_2   0.932253 0.041911 0.503677 -0.371816
C6    C     C_R   0.955650 0.205557 0.502467 0.981647
C7    C     C_R   0.889943 0.485923 0.290971 0.879032
C8    C     C_R   0.844406 0.408668 0.985385 -0.224470
C9    C     C_R   0.828063 0.480398 0.172340 -0.142658
C10   C     C_R   0.084678 0.661638 0.886954 -0.213515
C11   C     C_R   0.151698 0.695678 0.999383 -0.114992
C12   C     C_R   0.433481 0.606849 0.980909 0.080938
C13   C     C_R   0.321815 0.661424 0.047460 -0.133285
C14   C     C_2   0.066174 0.312742 0.132460 0.930207
C15   C     C_2   0.473574 0.306011 0.437067 1.152081
C16   C     C_R   0.372578 0.600728 0.865901 0.095413
C17   C     C_R   0.600457 0.551376 0.022195 0.080303
C18   C     C_R   0.695520 0.488132 0.947804 0.132474
C19   C     C_R   0.645365 0.513142 0.836904 -0.248108
C20   C     C_R   0.495857 0.587444 0.800012 -0.170839
C21   C     C_R   0.673345 0.551716 0.133871 -0.196892
C22   C     C_R   0.911824 0.402835 0.097800 -0.039157
H1    H     H_    0.805809 0.991281 0.512876 0.196668
H2    H     H_    0.192144 0.008217 0.484592 0.218879
H3    H     H_    0.164918 0.101261 0.136893 0.342524
H4    H     H_    0.528284 0.165272 0.316763 0.312386
H5    H     H_    0.530599 0.649232 0.556277 0.170309
H6    H     H_    0.723673 0.479727 0.779561 0.190141
H7    H     H_    0.911115 0.355124 0.927041 0.159974
H8    H     H_    0.612245 0.609300 0.192630 0.171902
H9    H     H_    0.950178 0.681444 0.852108 0.168424
H10   H     H_    0.360833 0.678187 0.135957 0.154032
H11   H     H_    0.068171 0.740161 0.050515 0.165118
H12   H     H_    0.475336 0.630183 0.719057 0.166407
N1    N     N_2   0.434800 0.456690 0.470850 -0.149013
N2    N     N_2   0.565200 0.543310 0.529150 -0.220819
O1    O     O_R   0.893060 0.738880 0.507150 -0.623036
O2    O     O_R   0.050167 0.150262 0.111074 -0.811106
O3    O     O_2   0.473803 0.199325 0.498932 -0.679475
O4    O     O_R   0.503989 0.278052 0.331694 -0.775076
O5    O     O_R   0.172250 0.711130 0.488470 -0.639703
O6    O     O_R   0.944700 0.520730 0.667600 -0.636186
O7    O     O_R   0.223890 0.492980 0.648920 -0.622927
O8    O     O_R   0.827750 0.288870 0.511530 -0.610658
O9    O     O_R   0.106940 0.261120 0.492850 -0.606226
O10   O     O_R   0.776110 0.507020 0.351080 -0.590656
O11   O     O_R   0.055300 0.479270 0.332400 -0.601017
O12   O     O_2   0.208448 0.380567 0.174762 -0.592703
Zn1   Zn    Zn3+2 0.813580 0.518530 0.512470 0.962527
Zn2   Zn    Zn3+2 0.186420 0.481470 0.487530 0.987097

loop_
_geom_bond_atom_site_label_1
_geom_bond_atom_site_label_2
_ccdc_geom_bond_type
C12   C17   A    
O8    Zn1   S    
C8    C22   A    
H4    O4    S    
O7    Zn2   S    
C6    O9    A    
H5    N2    S    
C14   O2    S    
C2    C16   A    
C21   H8    S    
C13   H10   S    
C2    C4    S    
N1    N2    D    
C5    H1    S    
C1    O1    A    
C16   C20   A    
C20   H12   S    
C15   O4    S    
C14   C22   S    
N1    Zn2   S    
C17   C18   A    
C6    O8    A    
C19   H6    S    
C11   C13   A    
O10   Zn1   S    
C15   O3    D    
C3    H2    S    
C4    O6    A    
O9    Zn2   S    
C8    H7    S    
C15   N1    S    
C4    O7    A    
O11   Zn2   S    
C5    C6    S    
H3    O2    S    
C17   C21   A    
C9    C22   A    
C10   C11   A    
O6    Zn1   S    
C9    C21   A    
C7    O10   A    
C12   C16   A    
O5    Zn2   S    
C11   H11   S    
O1    Zn1   S    
C12   C13   A    
C18   C19   A    
C1    O5    A    
C7    C9    S    
C14   O12   D    
C3    C5    D    
C10   H9    S    
C8    C18   A    
N2    Zn1   S    
C19   C20   A    
C7    O11   A    
C1    C3    S    
C2    C10   A    
