data_str_m3_o10_o14_f0_pcu.sym.214
_audit_creation_date              2012-12-10T16:50:07-0500
_audit_creation_method            fapswitch 2.2
_symmetry_space_group_name_H-M    P1
_symmetry_Int_Tables_number       1
_space_group_crystal_system       triclinic
_cell_length_a                    7.799348
_cell_length_b                    8.582795
_cell_length_c                    10.625293
_cell_angle_alpha                 91.472664
_cell_angle_beta                  85.228735
_cell_angle_gamma                 93.488562
_cell_volume                      707.328836761

loop_
_atom_site_label
_atom_site_type_symbol
_atom_type_description
_atom_site_fract_x
_atom_site_fract_y
_atom_site_fract_z
_atom_type_partial_charge
C1    C     C_R   0.545825 0.794326 0.503810 0.775087
C2    C     C_R   0.453961 0.641406 0.939661 0.047949
C3    C     C_R   0.503127 0.505582 0.871523 -0.242685
C4    C     C_R   0.552451 0.371568 0.930126 0.314508
C5    C     C_R   0.553985 0.374260 0.060507 0.407500
C6    C     C_R   0.499089 0.506392 0.128541 -0.229156
C7    C     C_2   0.570197 0.957595 0.523247 0.279014
C8    C     C_2   0.434051 0.042042 0.508525 -0.437468
C9    C     C_R   0.501449 0.502622 0.739133 0.855569
C10   C     C_R   0.455106 0.205639 0.506774 0.986304
C11   C     C_R   0.499393 0.502128 0.260876 0.969909
C12   C     C_R   0.410832 0.777968 0.879665 -0.118799
C13   C     C_R   0.361608 0.909198 0.950425 -0.094732
C14   C     C_R   0.357941 0.908642 0.081356 -0.114297
C15   C     C_R   0.403653 0.776899 0.141706 -0.128483
C16   C     C_R   0.450609 0.641227 0.071249 0.008396
H1    H     H_    0.986580 0.618980 0.594499 0.142334
H2    H     H_    0.415558 0.785551 0.778066 0.134388
H3    H     H_    0.327301 0.011902 0.903433 0.159945
H4    H     H_    0.321223 0.011062 0.136316 0.169869
H5    H     H_    0.403043 0.783471 0.243435 0.139201
H6    H     H_    0.308341 0.990831 0.487453 0.154340
N1    N     N_2   0.950330 0.457950 0.466250 0.110697
N2    N     N_2   0.049670 0.542050 0.533750 -0.066922
O1    O     O_R   0.389250 0.738570 0.508280 -0.656278
O2    O     O_R   0.678390 0.711630 0.486650 -0.648210
O3    O     O_R   0.355400 0.513470 0.694050 -0.626085
O4    O     O_R   0.644540 0.486530 0.672420 -0.615623
O5    O     O_R   0.321610 0.288370 0.513350 -0.575172
O6    O     O_R   0.610750 0.261430 0.491720 -0.539432
O7    O     O_R   0.355460 0.513470 0.327580 -0.579772
O8    O     O_R   0.644600 0.486530 0.305950 -0.596290
Zn1   Zn    Zn3+2 0.306930 0.517990 0.514440 1.016686
Zn2   Zn    Zn3+2 0.693070 0.482010 0.485560 1.031739
O9    O     O_3   0.597901 0.237057 0.863821 -0.767422
H7    H     H_    0.546969 0.231030 0.781566 0.343203
O10   O     O_3   0.602108 0.248131 0.125783 -0.776188
H8    H     H_    0.645809 0.166440 0.066195 0.385397
O11   O     O_3   0.725013 0.024148 0.561268 -0.715405
H9    H     H_    0.803073 0.941255 0.577135 0.340733
O12   O     O_3   0.030158 0.356881 0.386989 -0.607026
H10   H     H_    0.936347 0.301578 0.343163 0.362677

loop_
_geom_bond_atom_site_label_1
_geom_bond_atom_site_label_2
_ccdc_geom_bond_type
C8    H6    S    
N1    N2    D    
O7    Zn1   S    
O10   H8    S    
C3    C9    S    
C5    O10   S    
C2    C16   A    
O12   H10   S    
C10   O6    A    
N2    Zn1   S    
N1    O12   S    
N1    Zn2   S    
C2    C12   A    
C2    C3    A    
C4    O9    S    
C11   O7    A    
C7    C8    D    
C13   C14   A    
O3    Zn1   S    
C1    O1    A    
C10   O5    A    
C5    C6    A    
C11   O8    A    
C6    C11   S    
C1    O2    A    
H1    N2    S    
O6    Zn2   S    
O4    Zn2   S    
C3    C4    A    
O5    Zn1   S    
C15   H5    S    
C12   C13   A    
C9    O3    A    
C14   H4    S    
C8    C10   S    
C12   H2    S    
O11   H9    S    
C13   H3    S    
C14   C15   A    
C7    O11   S    
C1    C7    S    
C6    C16   A    
O2    Zn2   S    
C15   C16   A    
C9    O4    A    
O1    Zn1   S    
C4    C5    A    
O9    H7    S    
O8    Zn2   S    
