data_str_m3_o40_o40_f0_fof.sym.90
_audit_creation_date              2012-12-10T16:37:27-0500
_audit_creation_method            fapswitch 2.2
_symmetry_space_group_name_H-M    P1
_symmetry_Int_Tables_number       1
_space_group_crystal_system       triclinic
_cell_length_a                    16.668923
_cell_length_b                    16.696451
_cell_length_c                    16.799993
_cell_angle_alpha                 65.74391
_cell_angle_beta                  65.763214
_cell_angle_gamma                 65.799756
_cell_volume                      3719.80951021

loop_
_atom_site_label
_atom_site_type_symbol
_atom_type_description
_atom_site_fract_x
_atom_site_fract_y
_atom_site_fract_z
_atom_type_partial_charge
C1    C     C_R   0.470116 0.904892 0.701060 -0.215179
C2    C     C_R   0.400943 0.665645 0.044614 -0.280568
C3    C     C_R   0.954920 0.599548 0.333915 -0.221276
C4    C     C_R   0.043379 0.401712 0.665245 -0.279713
C5    C     C_R   0.960783 0.179749 0.438485 0.936043
C6    C     C_R   0.038915 0.820314 0.561622 0.909854
C7    C     C_R   0.179861 0.438913 0.960030 0.944607
C8    C     C_R   0.820166 0.561311 0.039568 0.901354
C9    C     C_R   0.438374 0.960580 0.179460 0.919255
C10   C     C_R   0.571072 0.015676 0.825074 0.923672
C11   C     C_R   0.561012 0.820171 0.040149 0.897049
C12   C     C_R   0.601389 0.947087 0.332182 -0.220959
C13   C     C_R   0.438997 0.179831 0.959889 0.965435
C14   C     C_R   0.038670 0.561780 0.820206 0.939144
C15   C     C_R   0.961250 0.438257 0.179717 0.898624
C16   C     C_R   0.820051 0.038778 0.561438 0.936456
C17   C     C_R   0.179757 0.958432 0.439367 0.923968
C18   C     C_R   0.519062 0.917021 0.743480 0.105502
C19   C     C_R   0.562432 0.917526 0.293702 0.136323
C20   C     C_R   0.078104 0.702784 0.440541 0.136479
C21   C     C_R   0.922258 0.297619 0.558388 0.125939
C22   C     C_R   0.703023 0.439647 0.077167 0.134389
C23   C     C_R   0.047900 0.665160 0.401094 -0.223745
C24   C     C_R   0.297219 0.560170 0.922155 0.128863
C25   C     C_R   0.304665 0.894901 0.562439 0.113706
C26   C     C_R   0.695936 0.069087 0.448085 0.119730
C27   C     C_R   0.560594 0.296551 0.923283 0.127928
C28   C     C_R   0.440276 0.703912 0.074386 0.117283
C29   C     C_R   0.924632 0.560466 0.295920 0.135432
C30   C     C_R   0.072353 0.441160 0.704119 0.124419
C31   C     C_R   0.559118 0.978542 0.553490 0.020390
C32   C     C_R   0.470835 0.940359 0.466838 0.018871
C33   C     C_R   0.027542 0.540539 0.539913 0.018249
C34   C     C_R   0.950141 0.336644 0.598602 -0.279002
C35   C     C_R   0.970643 0.461010 0.459576 0.017967
C36   C     C_R   0.540397 0.540218 0.027446 0.015700
C37   C     C_R   0.461437 0.461012 0.968863 0.016836
C38   C     C_R   0.591516 0.993813 0.458240 0.045152
C39   C     C_R   0.435750 0.928100 0.561659 0.047093
C40   C     C_R   0.014348 0.452609 0.586316 0.049292
C41   C     C_R   0.983839 0.548955 0.413025 0.025377
C42   C     C_R   0.452285 0.587103 0.014496 0.053671
C43   C     C_R   0.549787 0.414364 0.981230 0.047830
C44   C     C_R   0.554009 0.963710 0.417371 0.027157
C45   C     C_R   0.665669 0.400801 0.046027 -0.225217
C46   C     C_R   0.485962 0.938619 0.606161 0.028281
C47   C     C_R   0.414825 0.549449 0.980564 0.048648
C48   C     C_R   0.587401 0.452050 0.015062 0.026929
C49   C     C_R   0.981238 0.414872 0.548073 0.049622
C50   C     C_R   0.016669 0.586936 0.451497 0.027027
C51   C     C_R   0.576273 0.976413 0.692728 0.033707
C52   C     C_R   0.466430 0.926074 0.329289 0.037144
C53   C     C_R   0.064595 0.670378 0.536630 0.045586
C54   C     C_R   0.935546 0.330060 0.462714 0.076021
C55   C     C_R   0.670167 0.536005 0.065102 0.047880
C56   C     C_R   0.336249 0.600377 0.950179 -0.279557
C57   C     C_R   0.330132 0.464076 0.934482 0.076601
C58   C     C_R   0.334276 0.918119 0.465727 0.080416
C59   C     C_R   0.673996 0.041787 0.544532 0.086814
C60   C     C_R   0.464420 0.329683 0.934915 0.076567
C61   C     C_R   0.536259 0.670668 0.063576 0.082959
C62   C     C_R   0.936226 0.464087 0.328813 0.047132
C63   C     C_R   0.061530 0.537039 0.671138 0.078096
C64   C     C_R   0.610334 0.012541 0.732387 -0.122148
C65   C     C_R   0.411458 0.932471 0.278877 -0.136588
C66   C     C_R   0.064468 0.720232 0.588930 -0.135829
C67   C     C_R   0.353902 0.902184 0.608683 -0.274365
C68   C     C_R   0.935569 0.279931 0.410814 -0.114638
C69   C     C_R   0.719946 0.588395 0.065539 -0.140048
C70   C     C_R   0.280132 0.411676 0.934418 -0.117140
C71   C     C_R   0.280618 0.929261 0.411530 -0.123664
C72   C     C_R   0.721112 0.053242 0.592206 -0.116022
C73   C     C_R   0.411841 0.279946 0.934558 -0.124162
C74   C     C_R   0.588337 0.720133 0.065124 -0.107217
C75   C     C_R   0.936106 0.411239 0.279384 -0.140029
C76   C     C_R   0.062938 0.589163 0.720509 -0.118285
C77   C     C_R   0.680668 0.051574 0.681419 -0.308373
C78   C     C_R   0.657984 0.041482 0.406381 -0.277060
C79   C     C_R   0.322027 0.929411 0.321713 -0.304553
C80   C     C_R   0.069265 0.677215 0.677077 -0.306815
C81   C     C_R   0.930576 0.322880 0.322732 -0.309860
C82   C     C_R   0.676578 0.676658 0.071314 -0.318183
C83   C     C_R   0.323401 0.323328 0.928926 -0.323960
C84   C     C_R   0.602155 0.000099 0.596698 0.004177
C85   C     C_R   0.423657 0.928302 0.420654 0.007723
C86   C     C_R   0.051088 0.582699 0.582601 0.002255
C87   C     C_R   0.947548 0.418399 0.416977 0.003168
C88   C     C_R   0.582244 0.582258 0.052096 0.003745
C89   C     C_R   0.600681 0.335493 0.951591 -0.280608
C90   C     C_R   0.418747 0.418323 0.945913 -0.012780
H1    H     H_    0.710566 0.072373 0.713649 0.191572
H2    H     H_    0.941144 0.308412 0.671271 0.137936
H3    H     H_    0.694050 0.327882 0.053936 0.142634
H4    H     H_    0.307653 0.673316 0.942090 0.134973
H5    H     H_    0.325538 0.888161 0.681801 0.132374
H6    H     H_    0.677210 0.062592 0.332561 0.142357
H7    H     H_    0.673603 0.306637 0.944179 0.135661
H8    H     H_    0.328109 0.694542 0.051602 0.139049
H9    H     H_    0.947476 0.672386 0.305388 0.144016
H10   H     H_    0.050479 0.328956 0.693956 0.139901
H11   H     H_    0.458433 0.876815 0.879585 0.224577
H12   H     H_    0.281124 0.936284 0.281771 0.196397
H13   H     H_    0.576760 0.850028 0.849890 0.190495
H14   H     H_    0.656267 0.904535 0.171330 0.202308
H15   H     H_    0.591785 0.829090 0.221639 0.189189
H16   H     H_    0.170592 0.770383 0.413098 0.187301
H17   H     H_    0.097822 0.823237 0.346301 0.201911
H18   H     H_    0.905812 0.181427 0.660675 0.186213
H19   H     H_    0.808624 0.269281 0.657382 0.165550
H20   H     H_    0.770922 0.410793 0.169137 0.185084
H21   H     H_    0.823871 0.344866 0.095786 0.201091
H22   H     H_    0.180179 0.662433 0.907417 0.185188
H23   H     H_    0.068971 0.716056 0.715550 0.193550
H24   H     H_    0.267677 0.660699 0.810394 0.161788
H25   H     H_    0.259971 0.785888 0.652604 0.167457
H26   H     H_    0.184502 0.888768 0.661964 0.186650
H27   H     H_    0.804065 0.102843 0.342766 0.188821
H28   H     H_    0.708555 0.191820 0.357829 0.183166
H29   H     H_    0.661811 0.266703 0.811946 0.164455
H30   H     H_    0.662946 0.179503 0.909202 0.185314
H31   H     H_    0.337514 0.820530 0.089203 0.183030
H32   H     H_    0.338235 0.732480 0.185862 0.181951
H33   H     H_    0.832000 0.589738 0.228303 0.186656
H34   H     H_    0.931341 0.283820 0.284213 0.193496
H35   H     H_    0.906943 0.654893 0.175384 0.201366
H36   H     H_    0.087069 0.338137 0.819930 0.186032
H37   H     H_    0.184692 0.339567 0.732778 0.174101
H38   H     H_    0.715384 0.715348 0.071275 0.193718
H39   H     H_    0.284410 0.284509 0.929516 0.195112
H40   H     H_    0.426296 0.860718 0.743124 0.145332
H41   H     H_    0.672843 0.946059 0.300433 0.144482
H42   H     H_    0.056908 0.693272 0.328409 0.141027
N1    N     N_3   0.521024 0.855156 0.832681 -0.445748
N2    N     N_3   0.380296 0.766829 0.126955 -0.431232
N3    N     N_3   0.866886 0.622994 0.238108 -0.448246
N4    N     N_3   0.125037 0.381189 0.766917 -0.432041
N5    N     N_3   0.624998 0.862820 0.233068 -0.447552
N6    N     N_3   0.136910 0.760169 0.379113 -0.463234
N7    N     N_3   0.868977 0.234673 0.616884 -0.435835
N8    N     N_3   0.760696 0.377221 0.135098 -0.463675
N9    N     N_3   0.233571 0.619166 0.870067 -0.436166
N10   N     N_3   0.231991 0.852638 0.615234 -0.438876
N11   N     N_3   0.749802 0.131844 0.392073 -0.442787
N12   N     N_3   0.619927 0.232828 0.871483 -0.428714
O1    O     O_R   0.982940 0.138950 0.510160 -0.612962
O2    O     O_R   0.982940 0.510160 0.138950 -0.635756
O3    O     O_R   0.861050 0.017060 0.489840 -0.612292
O4    O     O_R   0.138950 0.982940 0.510160 -0.606652
O5    O     O_R   0.867700 0.025880 0.612340 -0.626163
O6    O     O_R   0.132300 0.974120 0.387660 -0.641241
O7    O     O_R   0.025880 0.612340 0.867700 -0.628329
O8    O     O_R   0.974120 0.387660 0.132300 -0.630445
O9    O     O_R   0.612340 0.867700 0.025880 -0.646760
O10   O     O_R   0.387660 0.132300 0.974120 -0.624239
O11   O     O_R   0.387660 0.974120 0.132300 -0.619017
O12   O     O_R   0.017060 0.861050 0.489840 -0.638194
O13   O     O_R   0.612340 0.025880 0.867700 -0.627165
O14   O     O_R   0.132300 0.387660 0.974120 -0.626671
O15   O     O_R   0.867700 0.612340 0.025880 -0.630540
O16   O     O_R   0.974120 0.132300 0.387660 -0.628701
O17   O     O_R   0.025880 0.867700 0.612340 -0.620884
O18   O     O_R   0.138950 0.510160 0.982940 -0.612077
O19   O     O_R   0.861050 0.489840 0.017060 -0.633710
O20   O     O_R   0.510160 0.982940 0.138950 -0.639884
O21   O     O_R   0.489840 0.017060 0.861050 -0.642542
O22   O     O_R   0.489840 0.861050 0.017060 -0.639414
O23   O     O_R   0.510160 0.138950 0.982940 -0.608564
O24   O     O_R   0.017060 0.489840 0.861050 -0.611766
Zn1   Zn    Zn3+2 0.004880 0.004880 0.583590 0.929612
Zn2   Zn    Zn3+2 0.995120 0.995120 0.416410 0.919093
Zn3   Zn    Zn3+2 0.004880 0.583590 0.004880 0.916318
Zn4   Zn    Zn3+2 0.995120 0.416410 0.995120 0.918374
Zn5   Zn    Zn3+2 0.583590 0.004880 0.004880 0.910967
Zn6   Zn    Zn3+2 0.416410 0.995120 0.995120 0.912437

loop_
_geom_bond_atom_site_label_1
_geom_bond_atom_site_label_2
_ccdc_geom_bond_type
C15   C75   S    
C65   C79   A    
C12   H41   S    
C22   N8    S    
C64   C77   A    
C36   C42   A    
C25   N10   S    
H30   N12   S    
C45   H3    S    
C7    C70   S    
C71   C79   A    
C7    O14   A    
O6    Zn2   S    
C36   C88   A    
C56   H4    S    
C1    C18   A    
C26   C78   A    
O15   Zn3   S    
C37   C90   A    
C16   O3    A    
C28   N2    S    
C68   C81   A    
C52   C85   A    
H27   N11   S    
C83   H39   S    
C27   C60   A    
C54   C87   A    
O8    Zn4   S    
C1    C46   A    
H16   N6    S    
C54   C68   A    
C63   C76   A    
C40   C49   A    
O9    Zn5   S    
C60   C73   A    
O7    Zn3   S    
H14   N5    S    
C18   N1    S    
C32   C39   A    
C20   N6    S    
C55   C88   A    
C3    C29   A    
H32   N2    S    
C69   C82   A    
C35   C87   A    
C19   C52   A    
C3    C41   A    
O18   Zn3   S    
C17   O6    A    
C78   H6    S    
C24   C57   A    
C31   C46   A    
C16   C72   S    
C14   O7    A    
C35   C49   A    
C11   O22   A    
C6    O17   A    
C79   H12   S    
C36   C48   A    
C53   C86   A    
C57   C70   A    
C37   C47   A    
C43   C48   A    
O3    Zn2   S    
C59   C72   A    
O23   Zn5   S    
O17   Zn1   S    
C28   C61   A    
H35   N3    S    
H25   N10   S    
H36   N4    S    
O2    Zn3   S    
C67   H5    S    
H29   N12   S    
C74   C82   A    
C5    C68   S    
C35   C41   A    
C15   O8    A    
H21   N8    S    
O4    Zn1   S    
C34   H2    S    
C32   C44   A    
C7    O18   A    
O1    Zn1   S    
O22   Zn6   S    
C33   C40   A    
C5    O1    A    
C57   C90   A    
O10   Zn6   S    
C81   H34   S    
H24   N9    S    
C4    C40   A    
C17   O4    A    
H37   N4    S    
H28   N11   S    
C75   C81   A    
C23   C50   A    
C21   C34   A    
C38   C78   A    
O21   Zn6   S    
C9    O11   A    
C8    O19   A    
C4    C30   A    
C31   C84   A    
H33   N3    S    
C25   C67   A    
C14   C76   S    
H22   N9    S    
C37   C43   A    
C9    O20   A    
C33   C86   A    
C38   C44   A    
C72   C77   A    
C70   C83   A    
C61   C88   A    
C15   O2    A    
C20   C23   A    
O24   Zn4   S    
C24   N9    S    
C19   N5    S    
C5    O16   A    
C27   N12   S    
C8    C69   S    
O20   Zn5   S    
C43   C89   A    
C59   C84   A    
O19   Zn4   S    
C10   O13   A    
C82   H38   S    
C16   O5    A    
C39   C46   A    
H26   N10   S    
O11   Zn6   S    
C29   N3    S    
C13   C73   S    
C1    H40   S    
C60   C90   A    
C4    H10   S    
C63   C86   A    
H31   N2    S    
O5    Zn1   S    
C62   C75   A    
C25   C58   A    
C21   N7    S    
C14   O24   A    
C26   N11   S    
C58   C85   A    
C41   C50   A    
C26   C59   A    
C45   C48   A    
C29   C62   A    
C77   H1    S    
C34   C49   A    
C39   C67   A    
C10   C64   S    
C51   C64   A    
C76   C80   A    
C20   C53   A    
C11   C74   S    
H18   N7    S    
C17   C71   S    
C22   C55   A    
H11   N1    S    
C18   C51   A    
C24   C56   A    
C66   C80   A    
C62   C87   A    
C30   N4    S    
C31   C38   A    
H19   N7    S    
C55   C69   A    
H17   N6    S    
H20   N8    S    
C33   C50   A    
C12   C44   A    
C53   C66   A    
O14   Zn4   S    
C21   C54   A    
C2    C42   A    
C10   O21   A    
C32   C85   A    
C12   C19   A    
O12   Zn2   S    
C23   H42   S    
C27   C89   A    
C42   C47   A    
H13   N1    S    
C58   C71   A    
C9    C65   S    
C13   O10   A    
C13   O23   A    
C11   O9    A    
H15   N5    S    
C3    H9    S    
C6    C66   S    
C22   C45   A    
C80   H23   S    
C2    H8    S    
C89   H7    S    
O16   Zn2   S    
C2    C28   A    
C30   C63   A    
C8    O15   A    
C51   C84   A    
C73   C83   A    
C6    O12   A    
C52   C65   A    
C61   C74   A    
O13   Zn5   S    
C47   C56   A    
