data_str_m2_o1_o17_f0_pcu.sym.113
_audit_creation_date              2012-12-10T17:57:48-0500
_audit_creation_method            fapswitch 2.2
_symmetry_space_group_name_H-M    P1
_symmetry_Int_Tables_number       1
_space_group_crystal_system       triclinic
_cell_length_a                    10.844058
_cell_length_b                    9.520713
_cell_length_c                    14.990276
_cell_angle_alpha                 90.106696
_cell_angle_beta                  89.488964
_cell_angle_gamma                 90.183963
_cell_volume                      1547.57138483

loop_
_atom_site_label
_atom_site_type_symbol
_atom_type_description
_atom_site_fract_x
_atom_site_fract_y
_atom_site_fract_z
_atom_type_partial_charge
C1    C     C_R   0.262049 0.499875 0.499986 0.778378
C2    C     C_R   0.737950 0.500132 0.500074 0.779380
C3    C     C_R   0.279724 0.573008 0.049565 0.114279
C4    C     C_R   0.721092 0.453362 0.950804 0.113100
C5    C     C_R   0.063436 0.372332 0.499224 -0.190781
C6    C     C_R   0.936559 0.627703 0.501000 -0.189192
C7    C     C_R   0.935794 0.372480 0.499314 -0.191322
C8    C     C_R   0.064204 0.627555 0.500898 -0.190069
C9    C     C_R   0.871799 0.500170 0.500155 -0.017717
C10   C     C_R   0.128198 0.499860 0.500018 -0.018364
C11   C     C_R   0.422025 0.073969 0.446137 -0.023643
C12   C     C_R   0.577972 0.926025 0.553865 -0.023689
C13   C     C_R   0.577975 0.074841 0.553863 -0.021832
C14   C     C_R   0.422030 0.925153 0.446130 -0.021595
C15   C     C_R   0.501248 0.499875 0.328940 0.802654
C16   C     C_R   0.498567 0.500162 0.671054 0.803807
C17   C     C_R   0.603938 0.464887 0.812259 -0.239494
C18   C     C_R   0.394730 0.539639 0.188576 -0.235471
C19   C     C_R   0.497920 0.501201 0.767384 -0.063609
C20   C     C_R   0.500629 0.499506 0.232601 -0.061954
C21   C     C_R   0.393369 0.544816 0.813458 -0.229473
C22   C     C_R   0.605630 0.459628 0.185738 -0.229180
C23   C     C_R   0.390949 0.547947 0.907316 0.076114
C24   C     C_R   0.607723 0.461141 0.092134 0.090973
C25   C     C_R   0.498997 0.506958 0.953360 -0.029602
C26   C     C_R   0.499328 0.504049 0.046729 -0.028269
C27   C     C_R   0.608643 0.474306 0.905398 0.094520
C28   C     C_R   0.390122 0.538596 0.095045 0.066352
C29   C     C_R   0.283330 0.589734 0.955344 0.116814
C30   C     C_R   0.716403 0.424497 0.043525 0.106677
Cu1   Cu    Cu3+1 0.500000 0.640660 0.500000 0.940653
Cu2   Cu    Cu3+1 0.500000 0.359340 0.500000 0.940501
H1    H     H_    0.683062 0.432047 0.773099 0.138649
H2    H     H_    0.317454 0.572890 0.229307 0.139236
H3    H     H_    0.314182 0.572338 0.774069 0.140709
H4    H     H_    0.686227 0.432801 0.223969 0.140251
H5    H     H_    0.111116 0.272523 0.498497 0.147921
H6    H     H_    0.888876 0.727510 0.501736 0.147726
H7    H     H_    0.887511 0.272707 0.498669 0.148211
H8    H     H_    0.112490 0.727327 0.501534 0.148228
H9    H     H_    0.359563 0.129687 0.402977 0.119033
H10   H     H_    0.640428 0.870303 0.597030 0.118889
H11   H     H_    0.640437 0.131254 0.597033 0.117749
H12   H     H_    0.359578 0.868738 0.402948 0.117717
N1    N     N_R   0.500000 0.852070 0.500000 -0.157633
N2    N     N_R   0.500000 0.147930 0.500000 -0.157631
O1    O     O_R   0.319640 0.618740 0.499990 -0.591711
O2    O     O_R   0.680360 0.381260 0.500010 -0.591726
O3    O     O_R   0.680360 0.618740 0.500010 -0.589069
O4    O     O_R   0.319640 0.381260 0.499990 -0.589246
O5    O     O_R   0.499970 0.618800 0.370260 -0.577358
O6    O     O_R   0.500030 0.381200 0.629740 -0.578058
O7    O     O_R   0.500030 0.618800 0.629740 -0.578976
O8    O     O_R   0.499970 0.381200 0.370260 -0.578979
C31   C     C_3   0.175675 0.657117 0.906123 -0.416284
C32   C     C_3   0.208906 0.804399 0.872793 -0.826925
H13   H     H_    0.232625 0.873216 0.930083 0.253747
H14   H     H_    0.288092 0.802839 0.825548 0.257956
H15   H     H_    0.128538 0.850295 0.838028 0.235824
H16   H     H_    0.145517 0.588840 0.850425 0.188262
H17   H     H_    0.092289 0.670562 0.947612 0.224228
C33   C     C_3   0.821286 0.345234 0.088941 -0.427360
C34   C     C_3   0.779809 0.199021 0.119646 -0.823059
H18   H     H_    0.704539 0.203785 0.169995 0.256976
H19   H     H_    0.747448 0.136787 0.061560 0.252718
H20   H     H_    0.858893 0.143370 0.149977 0.236758
H21   H     H_    0.900549 0.324395 0.044367 0.196667
H22   H     H_    0.858434 0.407068 0.145559 0.195744
C35   C     C_3   0.157304 0.580863 0.100738 -0.406077
C36   C     C_3   0.129709 0.729774 0.133430 -0.829484
H23   H     H_    0.203432 0.767791 0.178400 0.246836
H24   H     H_    0.122431 0.803628 0.076631 0.255639
H25   H     H_    0.040849 0.730131 0.170807 0.238111
H26   H     H_    0.079917 0.539947 0.060415 0.179163
H27   H     H_    0.155868 0.507443 0.158097 0.190970
C37   C     C_3   0.843705 0.477542 0.901414 -0.416691
C38   C     C_3   0.852778 0.627260 0.863979 -0.851701
H28   H     H_    0.774123 0.654866 0.820928 0.259688
H29   H     H_    0.856928 0.704296 0.919644 0.252880
H30   H     H_    0.937356 0.637756 0.822488 0.238435
H31   H     H_    0.925049 0.467984 0.944512 0.189241
H32   H     H_    0.855865 0.398957 0.847319 0.194863

loop_
_geom_bond_atom_site_label_1
_geom_bond_atom_site_label_2
_ccdc_geom_bond_type
C31   C32   S    
C34   H19   S    
C5    H5    S    
C6    C9    A    
C38   H28   S    
C33   H21   S    
C23   C29   A    
C3    C28   A    
C3    C35   S    
C24   C26   A    
C13   N2    A    
C11   C14   A    
C32   H13   S    
C3    C29   A    
C16   O7    A    
Cu2   O6    S    
C12   H10   S    
C6    H6    S    
C11   H9    S    
C36   H23   S    
C15   O5    A    
C1    O4    A    
C34   H20   S    
Cu1   O1    S    
C31   H16   S    
Cu2   O2    S    
C17   H1    S    
Cu1   O3    S    
Cu2   O8    S    
C14   N1    A    
C38   H29   S    
C15   C20   S    
C17   C27   A    
C15   O8    A    
C18   C28   A    
C37   C38   S    
C37   H32   S    
C5    C7    A    
C1    O1    A    
C6    C8    A    
C29   C31   S    
C2    O2    A    
C25   C26   A    
C33   C34   S    
C2    O3    A    
Cu1   Cu2   S    
C36   H25   S    
C35   H26   S    
Cu1   O7    S    
C18   H2    S    
Cu2   O4    S    
C20   C22   A    
C30   C33   S    
C22   C24   A    
C13   H11   S    
C4    C27   A    
C14   H12   S    
C38   H30   S    
C7    C9    A    
C19   C21   A    
Cu2   N2    S    
C1    C10   S    
C16   O6    A    
Cu1   O5    S    
C12   N1    A    
C37   H31   S    
C21   H3    S    
C25   C27   A    
C22   H4    S    
C26   C28   A    
C32   H15   S    
C33   H22   S    
C21   C23   A    
C5    C10   A    
C16   C19   S    
C31   H17   S    
C17   C19   A    
C32   H14   S    
C35   H27   S    
C18   C20   A    
C23   C25   A    
C35   C36   S    
C24   C30   A    
C4    C37   S    
C34   H18   S    
C12   C13   A    
C8    C10   A    
Cu1   N1    S    
C7    H7    S    
C11   N2    A    
C36   H24   S    
C8    H8    S    
C2    C9    S    
C4    C30   A    
