data_str_m9_o2_o19_f0_sra.sym.53
_audit_creation_date              2013-03-05T16:02:30-0500
_audit_creation_method            fapswitch 2.2
_symmetry_space_group_name_H-M    P1
_symmetry_Int_Tables_number       1
_space_group_crystal_system       triclinic
_cell_length_a                    16.544852
_cell_length_b                    7.254344
_cell_length_c                    15.231391
_cell_angle_alpha                 90.005851
_cell_angle_beta                  94.765365
_cell_angle_gamma                 89.999381
_cell_volume                      1821.78345386

loop_
_atom_site_label
_atom_site_type_symbol
_atom_site_description
_atom_site_fract_x
_atom_site_fract_y
_atom_site_fract_z
_atom_type_partial_charge
O1    O     O_R   0.663460 0.361760 0.165970 -0.582452
O2    O     O_R   0.336540 0.638240 0.834030 -0.582451
O3    O     O_R   0.836540 0.861760 0.334030 -0.582496
O4    O     O_R   0.163460 0.138240 0.665970 -0.582496
O5    O     O_R   0.827100 0.689870 0.163730 -0.574329
O6    O     O_R   0.172900 0.310130 0.836270 -0.574328
O7    O     O_R   0.672900 0.189870 0.336270 -0.573958
O8    O     O_R   0.327100 0.810130 0.663730 -0.573957
H1    H     H_    0.211255 0.066274 0.500708 0.121971
H2    H     H_    0.788744 0.933726 0.499292 0.121971
H3    H     H_    0.288453 0.560217 0.999967 0.121351
H4    H     H_    0.711547 0.439783 0.000033 0.121351
C1    C     C_R   0.853257 0.522928 0.143556 0.943813
C2    C     C_R   0.146743 0.477072 0.856444 0.943812
C3    C     C_R   0.646741 0.022936 0.356443 0.943980
C4    C     C_R   0.353259 0.977064 0.643557 0.943980
O9    O     O_R   0.663490 0.691370 0.155500 -0.581283
O10   O     O_R   0.336510 0.308630 0.844500 -0.581282
O11   O     O_R   0.836510 0.191370 0.344500 -0.581255
O12   O     O_R   0.163490 0.808630 0.655500 -0.581255
O13   O     O_R   0.671770 0.863320 0.325740 -0.579848
O14   O     O_R   0.328230 0.136680 0.674260 -0.579848
O15   O     O_R   0.828230 0.363320 0.174260 -0.579863
O16   O     O_R   0.171770 0.636680 0.825740 -0.579862
C5    C     C_R   0.636089 0.522875 0.133871 0.908797
C6    C     C_R   0.363910 0.477125 0.866129 0.908797
C7    C     C_R   0.863925 0.022879 0.366113 0.908893
C8    C     C_R   0.136074 0.977121 0.633887 0.908893
O17   O     O_3   0.752910 0.528800 0.305860 -0.278808
O18   O     O_3   0.247090 0.471200 0.694140 -0.278808
O19   O     O_3   0.747090 0.028800 0.194140 -0.279122
O20   O     O_3   0.252910 0.971200 0.805860 -0.279122
V1    V     V_3+5 0.749460 0.803010 0.239640 1.206373
V2    V     V_3+5 0.250540 0.196990 0.760360 1.206373
V3    V     V_3+5 0.750540 0.303010 0.260360 1.206706
V4    V     V_3+5 0.249460 0.696990 0.739640 1.206706
C9    C     C_1   0.468779 0.994700 0.530061 0.177623
C10   C     C_1   0.531221 0.005299 0.469939 0.177623
C11   C     C_1   0.031228 0.494698 0.969947 0.179320
C12   C     C_1   0.968772 0.505302 0.030053 0.179320
H5    H     H_    0.766258 0.849925 0.648322 0.188092
H6    H     H_    0.233742 0.150075 0.351678 0.188092
H7    H     H_    0.734266 0.360702 0.850459 0.189641
H8    H     H_    0.265734 0.639298 0.149541 0.189641
C13   C     C_R   0.028633 0.099522 0.325343 -0.307714
C14   C     C_R   0.971367 0.900478 0.674657 -0.307714
C15   C     C_R   0.471118 0.594150 0.175266 -0.307948
C16   C     C_R   0.528882 0.405850 0.824733 -0.307948
C17   C     C_R   0.107558 0.135716 0.302454 0.403406
C18   C     C_R   0.892442 0.864284 0.697546 0.403406
C19   C     C_R   0.392051 0.627433 0.198496 0.401358
C20   C     C_R   0.607949 0.372567 0.801504 0.401358
C21   C     C_R   0.172210 0.123474 0.367474 -0.149848
C22   C     C_R   0.827790 0.876526 0.632526 -0.149848
C23   C     C_R   0.327370 0.614849 0.133513 -0.146958
C24   C     C_R   0.672630 0.385151 0.866487 -0.146958
C25   C     C_R   0.158773 0.075239 0.453545 -0.192699
C26   C     C_R   0.841227 0.924760 0.546455 -0.192699
C27   C     C_R   0.340934 0.569353 0.047129 -0.193651
C28   C     C_R   0.659066 0.430647 0.952871 -0.193652
C29   C     C_R   0.079798 0.038225 0.477776 0.112521
C30   C     C_R   0.920202 0.961775 0.522224 0.112521
C31   C     C_R   0.420049 0.535286 0.022568 0.111989
C32   C     C_R   0.579951 0.464714 0.977432 0.111989
C33   C     C_R   0.013334 0.050998 0.412457 0.069179
C34   C     C_R   0.986666 0.949002 0.587543 0.069179
C35   C     C_R   0.486524 0.548181 0.087869 0.069026
C36   C     C_R   0.513476 0.451818 0.912131 0.069026
C37   C     C_R   0.066628 0.987018 0.565312 -0.238766
C38   C     C_R   0.933372 0.012982 0.434688 -0.238766
C39   C     C_R   0.433367 0.486989 0.934694 -0.238411
C40   C     C_R   0.566633 0.513011 0.065306 -0.238411
C41   C     C_1   0.415937 0.986153 0.581398 -0.235814
C42   C     C_1   0.584063 0.013847 0.418602 -0.235814
C43   C     C_1   0.084072 0.486164 0.918611 -0.235837
C44   C     C_1   0.915928 0.513836 0.081389 -0.235837
N1    N     N_R   0.121990 0.183777 0.213318 0.237863
O21   O     O_R   0.194486 0.227429 0.193151 -0.399716
O22   O     O_R   0.062984 0.182454 0.151245 -0.418333
N2    N     N_R   0.878010 0.816223 0.786682 0.237863
O23   O     O_R   0.805514 0.772571 0.806849 -0.399716
O24   O     O_R   0.937016 0.817545 0.848755 -0.418333
N3    N     N_R   0.377513 0.672977 0.287916 0.237942
O25   O     O_R   0.304515 0.709936 0.308829 -0.397278
O26   O     O_R   0.436965 0.676156 0.349489 -0.417137
N4    N     N_R   0.622487 0.327023 0.712084 0.237942
O27   O     O_R   0.695485 0.290064 0.691171 -0.397278
O28   O     O_R   0.563035 0.323844 0.650511 -0.417137
H9    H     H_    0.979300 0.109217 0.274329 0.166853
H10   H     H_    0.020700 0.890783 0.725671 0.166853
H11   H     H_    0.520484 0.604009 0.226238 0.166826
H12   H     H_    0.479516 0.395991 0.773762 0.166826

loop_
_geom_bond_atom_site_label_1
_geom_bond_atom_site_label_2
_geom_bond_distance
_ccdc_geom_bond_type
C26   C30   1.412700 A    
C23   C27   1.392634 A    
C8    C37   1.488927 S    
O10   C6    1.335376 A    
N1    O21   1.301738 A    
C15   H11   1.081477 S    
C30   C38   1.418286 A    
C18   C22   1.398880 A    
C32   C36   1.423331 A    
H2    C26   1.081947 S    
C14   C34   1.415784 A    
H6    C21   1.082695 S    
C10   C42   1.221964 T    
N4    O28   1.301666 A    
C34   C37   1.419648 A    
O13   V1    1.960451 S    
O3    V1    1.994999 S    
O2    V4    1.995056 S    
C33   C38   1.419648 A    
C1    O15   1.327810 A    
C35   C40   1.419676 A    
O8    V4    1.976740 S    
C2    O16   1.327811 A    
C9    C41   1.221964 T    
C12   C44   1.221960 T    
O5    V1    1.976632 S    
O19   V1    1.777764 S    
C11   C43   1.221960 T    
O11   C7    1.335429 A    
O5    C1    1.330551 A    
O7    C3    1.330573 A    
O8    C4    1.330574 A    
O1    C5    1.331718 A    
C6    C39   1.488928 S    
O9    V1    2.004588 S    
H3    C27   1.081979 S    
C15   C35   1.415817 A    
O4    C8    1.331656 A    
O4    V2    1.994998 S    
N1    O22   1.301415 A    
O14   V2    1.960451 S    
C31   C35   1.423331 A    
C30   C34   1.423319 A    
C4    C41   1.462612 S    
H1    C25   1.081947 S    
N2    O24   1.301414 A    
C11   C12   1.438394 S    
C21   C25   1.392501 A    
N4    O27   1.302254 A    
C15   C19   1.404142 A    
O12   C8    1.335428 A    
O6    V2    1.976632 S    
O20   V2    1.777765 S    
C9    C10   1.438389 S    
O6    C2    1.330551 A    
N3    O25   1.302254 A    
C1    C44   1.462600 S    
C13   C17   1.404016 A    
O2    C6    1.331719 A    
C5    C40   1.488928 S    
O16   V4    1.960516 S    
C16   C36   1.415817 A    
O10   V2    2.004589 S    
C7    C38   1.488927 S    
H4    C28   1.081979 S    
N3    O26   1.301666 A    
C31   C39   1.418322 A    
O15   V3    1.960517 S    
C13   C33   1.415784 A    
C19   N3    1.440958 S    
C13   H9    1.081455 S    
O1    V3    1.995056 S    
C22   C26   1.392501 A    
C29   C37   1.418286 A    
C14   C18   1.404016 A    
C4    O14   1.327771 A    
O7    V3    1.976743 S    
N2    O23   1.301738 A    
C18   N2    1.440758 S    
C25   C29   1.412700 A    
C14   H10   1.081455 S    
O17   V3    1.777636 S    
C27   C31   1.412698 A    
O18   V4    1.777634 S    
C28   C32   1.412698 A    
O9    C5    1.335376 A    
C2    C43   1.462600 S    
C20   N4    1.440958 S    
O11   V3    2.004682 S    
H8    C23   1.082739 S    
C3    O13   1.327772 A    
C36   C39   1.419676 A    
C17   C21   1.398880 A    
O3    C7    1.331656 A    
C17   N1    1.440756 S    
C19   C23   1.399001 A    
C32   C40   1.418322 A    
H5    C22   1.082695 S    
O12   V4    2.004681 S    
C29   C33   1.423319 A    
H7    C24   1.082739 S    
C16   C20   1.404142 A    
C3    C42   1.462612 S    
C24   C28   1.392634 A    
C16   H12   1.081477 S    
C20   C24   1.399001 A    
