data_str_m2_o10_o28_f0_pcu.sym.1
_audit_creation_date              2012-10-26T20:18:14-0400
_audit_creation_method            fapswitch 2.2
_symmetry_space_group_name_H-M    P1
_symmetry_Int_Tables_number       1
_space_group_crystal_system       triclinic
_cell_length_a                    23.460837
_cell_length_b                    8.680911
_cell_length_c                    7.438296
_cell_angle_alpha                 102.966881
_cell_angle_beta                  94.236948
_cell_angle_gamma                 92.332611
_cell_volume                      1469.6702904

loop_
_atom_site_label
_atom_site_type_symbol
_atom_type_description
_atom_site_fract_x
_atom_site_fract_y
_atom_site_fract_z
_atom_type_partial_charge
Br1   Br    Br    0.318831 0.258988 0.147180 -0.462211
Br2   Br    Br    0.681133 0.741389 0.852541 -0.462198
C1    C     C_R   0.498274 0.199667 0.453222 0.557276
C2    C     C_R   0.708319 0.602154 0.641214 0.142508
C3    C     C_R   0.232518 0.400692 0.366763 -0.017154
C4    C     C_R   0.767470 0.599490 0.633199 -0.017121
C5    C     C_R   0.209371 0.493735 0.519451 0.202836
C6    C     C_R   0.790628 0.506287 0.480640 0.202799
C7    C     C_2   0.497426 0.031784 0.426850 -0.129833
C8    C     C_2   0.502574 0.968216 0.573150 -0.129809
C9    C     C_R   0.390957 0.495710 0.501633 0.572357
C10   C     C_R   0.609042 0.504292 0.498366 0.572379
C11   C     C_R   0.882249 0.628768 0.446395 0.407629
C12   C     C_R   0.501726 0.800333 0.546778 0.557305
C13   C     C_R   0.117753 0.371267 0.553745 0.407640
C14   C     C_R   0.877610 0.372930 0.516001 0.409551
C15   C     C_R   0.122392 0.627109 0.484149 0.409547
C16   C     C_R   0.937436 0.369573 0.525529 0.031655
C17   C     C_R   0.062566 0.630470 0.474632 0.031651
C18   C     C_R   0.969866 0.500039 0.494820 -0.026100
C19   C     C_R   0.030136 0.500004 0.505342 -0.026102
C20   C     C_R   0.942173 0.630665 0.453961 0.029921
C21   C     C_R   0.057829 0.369376 0.546196 0.029911
C22   C     C_R   0.965485 0.240235 0.566901 -0.124275
C23   C     C_R   0.245484 0.583352 0.667047 -0.044424
C24   C     C_R   0.034517 0.759810 0.433264 -0.124276
C25   C     C_R   0.025085 0.240147 0.577165 -0.129142
C26   C     C_R   0.974917 0.759897 0.422997 -0.129140
C27   C     C_R   0.754523 0.416501 0.333133 -0.044455
C28   C     C_R   0.304685 0.581223 0.660981 -0.146853
C29   C     C_R   0.695320 0.418627 0.339155 -0.146906
C30   C     C_R   0.328408 0.490724 0.506263 0.016146
C31   C     C_R   0.671589 0.509288 0.493745 0.016158
C32   C     C_R   0.291667 0.398022 0.358705 0.142512
Cu1   Cu    Cu3+1 0.506340 0.517380 0.684380 1.025761
Cu2   Cu    Cu3+1 0.493660 0.482620 0.315620 1.025762
H1    H     H_    0.941507 0.138989 0.592041 0.173817
H2    H     H_    0.795755 0.669831 0.746136 0.166682
H3    H     H_    0.492566 0.960158 0.285863 0.143498
H4    H     H_    0.507435 0.039842 0.714137 0.143508
H5    H     H_    0.454920 0.379130 0.948724 0.258757
H6    H     H_    0.545080 0.620870 0.051276 0.258745
H7    H     H_    0.058495 0.861055 0.408125 0.173821
H8    H     H_    0.045373 0.138696 0.609556 0.163712
H9    H     H_    0.954630 0.861347 0.390605 0.163714
H10   H     H_    0.227626 0.655202 0.785721 0.160374
H11   H     H_    0.772388 0.344521 0.214566 0.160421
H12   H     H_    0.331980 0.652768 0.775775 0.154635
H13   H     H_    0.668031 0.346951 0.224441 0.154604
H14   H     H_    0.204225 0.330477 0.253760 0.166643
N1    N     N_R   0.851459 0.501521 0.478016 -0.403613
N2    N     N_R   0.148542 0.498512 0.522118 -0.403625
N3    N     N_2   0.484110 0.456420 0.038520 -0.252060
N4    N     N_2   0.515890 0.543580 0.961480 -0.252068
O1    O     O_R   0.504120 0.286130 0.619770 -0.511805
O2    O     O_2   0.145110 0.247056 0.591831 -0.457227
O3    O     O_2   0.845796 0.249793 0.546683 -0.458362
O4    O     O_2   0.154206 0.750248 0.453473 -0.458340
O5    O     O_R   0.495880 0.713870 0.380230 -0.511808
O6    O     O_R   0.493410 0.256770 0.308360 -0.485749
O7    O     O_R   0.506590 0.743230 0.691640 -0.485727
O8    O     O_R   0.423230 0.514630 0.655730 -0.513859
O9    O     O_R   0.576770 0.485370 0.344270 -0.513842
O10   O     O_R   0.412530 0.485280 0.344320 -0.454429
O11   O     O_R   0.587470 0.514720 0.655680 -0.454448
O12   O     O_2   0.854893 0.752973 0.408287 -0.457272

loop_
_geom_bond_atom_site_label_1
_geom_bond_atom_site_label_2
_ccdc_geom_bond_type
C9    C30   S    
Br2   C2    S    
C29   C31   A    
C1    C7    S    
C21   C25   A    
C10   O9    A    
Cu2   O9    S    
C7    C8    D    
C24   C26   A    
Cu1   Cu2   S    
C5    C23   A    
C14   N1    A    
C15   O4    S    
C11   O12   S    
C9    O8    A    
Br1   C32   S    
C1    O6    A    
Cu2   O5    S    
C13   C21   A    
C22   H1    S    
C10   C31   S    
C13   N2    A    
C27   C29   A    
C14   C16   A    
C20   C26   A    
N3    N4    D    
C3    C32   A    
Cu1   N4    S    
C28   C30   A    
C12   O5    A    
C6    N1    S    
H5    N3    S    
C11   C20   A    
C29   H13   S    
C16   C22   A    
C6    C27   A    
C5    N2    S    
C15   N2    A    
C28   H12   S    
C17   C19   A    
C27   H11   S    
C24   H7    S    
Cu1   O8    S    
C16   C18   A    
C14   O3    S    
C19   C21   A    
C8    C12   S    
C26   H9    S    
C13   O2    S    
C3    H14   S    
C2    C4    A    
C22   C25   A    
Cu1   O11   S    
Cu1   O1    S    
C11   N1    A    
C7    H3    S    
C18   C19   A    
C23   H10   S    
Cu1   O7    S    
C9    O10   A    
C10   O11   A    
C23   C28   A    
C3    C5    A    
C17   C24   A    
C2    C31   A    
C8    H4    S    
C4    C6    A    
Cu2   N3    S    
C15   C17   A    
C4    H2    S    
Cu2   O10   S    
C12   O7    A    
C1    O1    A    
C25   H8    S    
H6    N4    S    
C18   C20   A    
Cu2   O6    S    
C30   C32   A    
