data_str_m3_o10_o17_f0_pcu.sym.31
_audit_creation_date              2012-12-10T16:52:07-0500
_audit_creation_method            fapswitch 2.2
_symmetry_space_group_name_H-M    P1
_symmetry_Int_Tables_number       1
_space_group_crystal_system       triclinic
_cell_length_a                    7.756422
_cell_length_b                    8.61948
_cell_length_c                    14.945561
_cell_angle_alpha                 91.642293
_cell_angle_beta                  86.160103
_cell_angle_gamma                 93.4434
_cell_volume                      994.857704908

loop_
_atom_site_label
_atom_site_type_symbol
_atom_type_description
_atom_site_fract_x
_atom_site_fract_y
_atom_site_fract_z
_atom_type_partial_charge
C1    C     C_R   0.544860 0.794353 0.497259 0.932686
C2    C     C_R   0.563343 0.631694 0.812411 0.293579
C3    C     C_R   0.492345 0.503540 0.232622 -0.153121
C4    C     C_R   0.507647 0.496464 0.767378 -0.153125
C5    C     C_R   0.548068 0.640397 0.188471 -0.027162
C6    C     C_R   0.451904 0.359612 0.811531 -0.027164
C7    C     C_R   0.554159 0.641231 0.094150 0.105794
C8    C     C_R   0.445763 0.358799 0.905853 0.105790
C9    C     C_R   0.498080 0.502281 0.047182 -0.025373
C10   C     C_R   0.501849 0.497747 0.952820 -0.025377
C11   C     C_R   0.438133 0.367290 0.094437 0.000312
C12   C     C_R   0.455140 0.205647 0.502741 0.932686
C13   C     C_R   0.561789 0.632739 0.905565 0.000309
C14   C     C_R   0.615357 0.773974 0.044390 0.086970
C15   C     C_R   0.384487 0.226079 0.955615 0.086987
C16   C     C_R   0.618224 0.767220 0.951959 -0.142971
C17   C     C_R   0.381633 0.232830 0.048044 -0.142968
C18   C     C_2   0.566475 0.956127 0.508440 0.103888
C19   C     C_2   0.433526 0.043872 0.491559 0.103881
C20   C     C_R   0.502451 0.499221 0.672485 0.944895
C21   C     C_R   0.497548 0.500776 0.327514 0.944892
C22   C     C_R   0.436613 0.368322 0.187590 0.293577
Cl1   Cl    Cl    0.369788 0.199813 0.249781 -0.615323
Cl2   Cl    Cl    0.630169 0.800202 0.750217 -0.615297
Cl3   Cl    Cl    0.758030 0.022137 0.561303 -0.490995
Cl4   Cl    Cl    0.241971 0.977863 0.438695 -0.490993
H1    H     H_    0.666697 0.870684 0.916970 0.212189
H2    H     H_    0.785400 0.899885 0.120276 0.233554
H3    H     H_    0.214357 0.100310 0.879715 0.233532
H4    H     H_    0.420300 0.032819 0.876153 0.249749
H5    H     H_    0.333104 0.129387 0.083035 0.212184
H6    H     H_    0.013881 0.382364 0.432266 0.235820
H7    H     H_    0.986119 0.617636 0.567734 0.235816
H8    H     H_    0.700833 0.755083 0.277608 0.212985
H9    H     H_    0.491217 0.805265 0.284393 0.231154
H10   H     H_    0.508810 0.194724 0.715627 0.231183
H11   H     H_    0.299189 0.244883 0.722385 0.212964
H12   H     H_    0.579362 0.967174 0.123874 0.249773
N1    N     N_2   0.950330 0.457950 0.475660 -0.146537
N2    N     N_2   0.049670 0.542050 0.524340 -0.146537
N3    N     N_3   0.595996 0.777331 0.240396 -0.456053
N4    N     N_3   0.404014 0.222661 0.759610 -0.456052
N5    N     N_3   0.678477 0.918278 0.083761 -0.443333
N6    N     N_3   0.321229 0.081820 0.916248 -0.443333
O1    O     O_R   0.389250 0.738570 0.505970 -0.585909
O2    O     O_R   0.610750 0.261430 0.494030 -0.585911
O3    O     O_R   0.678390 0.711620 0.490370 -0.587520
O4    O     O_R   0.321610 0.288380 0.509630 -0.587520
O5    O     O_R   0.355420 0.513510 0.639950 -0.622536
O6    O     O_R   0.644580 0.486490 0.360050 -0.622540
O7    O     O_R   0.644560 0.486560 0.624350 -0.600621
O8    O     O_R   0.355440 0.513440 0.375650 -0.600617
Zn1   Zn    Zn3+2 0.306940 0.517990 0.510420 1.053869
Zn2   Zn    Zn3+2 0.693060 0.482010 0.489580 1.053867

loop_
_geom_bond_atom_site_label_1
_geom_bond_atom_site_label_2
_ccdc_geom_bond_type
C2    C4    A    
H9    N3    S    
C20   O5    A    
C8    C15   A    
C9    C10   A    
H2    N5    S    
H10   N4    S    
C12   O4    A    
O7    Zn2   S    
H4    N6    S    
O2    Zn2   S    
C16   H1    S    
O1    Zn1   S    
H12   N5    S    
C18   Cl3   S    
C9    C11   A    
C1    O1    A    
C1    C18   S    
O6    Zn2   S    
H8    N3    S    
O3    Zn2   S    
O5    Zn1   S    
C12   C19   S    
C8    C10   A    
C21   O6    A    
C15   N6    S    
C18   C19   D    
C20   O7    A    
C5    C7    A    
C21   O8    A    
H3    N6    S    
C2    Cl2   S    
O4    Zn1   S    
C17   H5    S    
C14   C16   A    
C3    C21   S    
N1    Zn2   S    
C4    C6    A    
H7    N2    S    
H11   N4    S    
O8    Zn1   S    
C19   Cl4   S    
C11   C22   A    
C12   O2    A    
N2    Zn1   S    
C6    N4    S    
C13   C16   A    
N1    N2    D    
C7    C9    A    
C2    C13   A    
C5    N3    S    
C22   Cl1   S    
C11   C17   A    
C3    C22   A    
C6    C8    A    
H6    N1    S    
C15   C17   A    
C7    C14   A    
C1    O3    A    
C14   N5    S    
C3    C5    A    
C10   C13   A    
C4    C20   S    
