data_str_m3_o14_o14_f0_pcu.sym.50
_audit_creation_date              2013-03-05T15:52:21-0500
_audit_creation_method            fapswitch 2.2
_symmetry_space_group_name_H-M    P1
_symmetry_Int_Tables_number       1
_space_group_crystal_system       triclinic
_cell_length_a                    14.595646
_cell_length_b                    15.566578
_cell_length_c                    9.939474
_cell_angle_alpha                 90.036738
_cell_angle_beta                  91.424044
_cell_angle_gamma                 90.284162
_cell_volume                      2257.56495303

loop_
_atom_site_label
_atom_site_type_symbol
_atom_site_description
_atom_site_fract_x
_atom_site_fract_y
_atom_site_fract_z
_atom_type_partial_charge
O1    O     O_R   0.408390 0.908380 0.614690 -0.577088
O2    O     O_R   0.408390 0.091620 0.614690 -0.544999
O3    O     O_R   0.908390 0.408380 0.614690 -0.577316
O4    O     O_R   0.908390 0.591620 0.614690 -0.544675
O5    O     O_R   0.408370 0.908380 0.385360 -0.630564
O6    O     O_R   0.408370 0.091620 0.385360 -0.648374
O7    O     O_R   0.908370 0.408380 0.385360 -0.630495
O8    O     O_R   0.908370 0.591620 0.385360 -0.648551
C1    C     C_R   0.381072 0.879787 0.499184 0.898060
C2    C     C_R   0.387976 0.125505 0.498946 0.884245
C3    C     C_R   0.881197 0.379680 0.499188 0.897827
C4    C     C_R   0.887980 0.625503 0.498945 0.884176
Zn1   Zn    Zn3+2 0.500010 0.000000 0.653130 0.965482
Zn2   Zn    Zn3+2 0.000010 0.500000 0.653130 0.965532
Zn3   Zn    Zn3+2 0.499980 0.000000 0.346870 0.939723
Zn4   Zn    Zn3+2 0.999980 0.500000 0.346870 0.939661
O9    O     O_R   0.591620 0.091610 0.614640 -0.644114
O10   O     O_R   0.591620 0.908390 0.614640 -0.649545
O11   O     O_R   0.091620 0.591610 0.614640 -0.643788
O12   O     O_R   0.091620 0.408390 0.614640 -0.649427
O13   O     O_R   0.591610 0.091610 0.385310 -0.615418
O14   O     O_R   0.591610 0.908390 0.385310 -0.608794
O15   O     O_R   0.091610 0.591610 0.385310 -0.615321
O16   O     O_R   0.091610 0.408390 0.385310 -0.608873
C5    C     C_R   0.621399 0.118287 0.500989 0.833710
C6    C     C_R   0.624276 0.883765 0.502226 0.840490
C7    C     C_R   0.121300 0.618375 0.500964 0.833456
C8    C     C_R   0.124303 0.383796 0.502211 0.840192
H1    H     H_    0.269326 0.165060 0.305343 0.166745
H2    H     H_    0.219049 0.882148 0.382911 0.135897
H3    H     H_    0.769316 0.665046 0.305317 0.166968
H4    H     H_    0.719874 0.381365 0.380864 0.136125
C9    C     C_R   0.411582 0.262447 0.698470 -0.150937
C10   C     C_R   0.428837 0.719913 0.630163 -0.171374
C11   C     C_R   0.911507 0.762364 0.698511 -0.150639
C12   C     C_R   0.928350 0.220401 0.632625 -0.171709
H5    H     H_    0.472636 0.224595 0.685697 0.155609
H6    H     H_    0.482429 0.767928 0.629326 0.156437
H7    H     H_    0.972628 0.724626 0.685601 0.155299
H8    H     H_    0.982109 0.268238 0.631322 0.156963
C13   C     C_R   0.408545 0.314021 0.812312 -0.142757
C14   C     C_R   0.448339 0.643108 0.696131 -0.153252
C15   C     C_R   0.908393 0.813790 0.812499 -0.141818
C16   C     C_R   0.947314 0.144135 0.700447 -0.153144
H9    H     H_    0.464312 0.313034 0.886147 0.134956
H10   H     H_    0.513993 0.634447 0.747164 0.139705
H11   H     H_    0.964166 0.812798 0.886325 0.134713
H12   H     H_    0.012694 0.135743 0.752394 0.139346
C17   C     C_R   0.833616 0.866516 0.831230 -0.176368
C18   C     C_R   0.882882 0.078218 0.699410 -0.146511
C19   C     C_R   0.333888 0.366938 0.830841 -0.176290
C20   C     C_R   0.384093 0.577018 0.694362 -0.146965
H13   H     H_    0.830905 0.906363 0.920386 0.136269
H14   H     H_    0.899213 0.018433 0.749117 0.148868
H15   H     H_    0.331298 0.406980 0.919793 0.136842
H16   H     H_    0.400903 0.516786 0.742350 0.149875
C21   C     C_R   0.764295 0.871637 0.732554 -0.199851
C22   C     C_R   0.798358 0.089092 0.633142 -0.182858
C23   C     C_R   0.264570 0.372026 0.732157 -0.200349
C24   C     C_R   0.299130 0.588319 0.629541 -0.182485
H17   H     H_    0.712036 0.917385 0.753440 0.167554
H18   H     H_    0.751072 0.035815 0.631044 0.135615
H19   H     H_    0.212457 0.417993 0.752734 0.167739
H20   H     H_    0.251899 0.534987 0.626851 0.134745
C25   C     C_R   0.765606 0.819942 0.614524 0.101190
C26   C     C_R   0.776357 0.167441 0.568895 0.096454
C27   C     C_R   0.265770 0.320138 0.614336 0.100582
C28   C     C_R   0.276623 0.667170 0.567253 0.096540
C29   C     C_R   0.337996 0.261193 0.602727 0.095540
C30   C     C_R   0.342310 0.733056 0.566017 0.078298
C31   C     C_R   0.837890 0.761081 0.602814 0.095935
C32   C     C_R   0.842142 0.233240 0.567342 0.077971
C33   C     C_R   0.334323 0.201923 0.495428 -0.128767
C34   C     C_R   0.319577 0.809825 0.498298 -0.099787
C35   C     C_R   0.834268 0.701871 0.495453 -0.128860
C36   C     C_R   0.819797 0.309637 0.498295 -0.100419
C37   C     C_R   0.271137 0.209700 0.389180 -0.225802
C38   C     C_R   0.235522 0.821982 0.432532 -0.223098
C39   C     C_R   0.771088 0.709653 0.389200 -0.225629
C40   C     C_R   0.736115 0.321437 0.431329 -0.223118
H21   H     H_    0.654596 0.772878 0.311928 0.174822
H22   H     H_    0.605926 0.267097 0.382659 0.151798
H23   H     H_    0.154613 0.272885 0.311943 0.174629
H24   H     H_    0.105015 0.767883 0.384954 0.151275
C41   C     C_R   0.704634 0.770536 0.394322 -0.203679
C42   C     C_R   0.671736 0.257312 0.433317 -0.218361
C43   C     C_R   0.204689 0.270589 0.394290 -0.203362
C44   C     C_R   0.171129 0.757847 0.434582 -0.218560
C45   C     C_R   0.698906 0.823857 0.506706 -0.120704
C46   C     C_R   0.691199 0.181649 0.502591 -0.091174
C47   C     C_R   0.199000 0.323961 0.506619 -0.120272
C48   C     C_R   0.191041 0.681780 0.502482 -0.090633
H25   H     H_    0.639853 0.030956 0.129640 0.144811
H26   H     H_    0.139891 0.530793 0.129642 0.144854
C49   C     C_R   0.338218 0.968750 0.138283 -0.210437
C50   C     C_R   0.838159 0.469076 0.138308 -0.210417
H27   H     H_    0.328606 0.989556 0.239523 0.209947
H28   H     H_    0.828657 0.489807 0.239607 0.209968
C51   C     C_R   0.269058 0.920775 0.076646 -0.266078
C52   C     C_R   0.768831 0.421318 0.076694 -0.265560
H29   H     H_    0.213641 0.895354 0.135409 0.177152
H30   H     H_    0.713338 0.396066 0.135465 0.176633
C53   C     C_R   0.272493 0.904922 0.939589 0.079468
C54   C     C_R   0.772291 0.405247 0.939719 0.079719
C55   C     C_R   0.333352 0.955861 0.862490 0.514228
C56   C     C_R   0.833311 0.455929 0.862454 0.513937
C57   C     C_R   0.418936 0.980570 0.926424 0.042662
C58   C     C_R   0.918911 0.480619 0.926424 0.042895
C59   C     C_R   0.419879 0.983700 0.070803 0.116593
C60   C     C_R   0.919851 0.483810 0.070807 0.116707
N1    N     N_R   0.498810 0.000000 0.142780 -0.103853
N2    N     N_R   0.998810 0.500000 0.142780 -0.103920
C61   C     C_R   0.576821 0.017226 0.074044 -0.095674
C62   C     C_R   0.076842 0.517135 0.074045 -0.095687
H31   H     H_    0.639164 0.033398 0.880127 0.133346
H32   H     H_    0.139194 0.533276 0.880130 0.133513
C63   C     C_R   0.576558 0.018256 0.931214 -0.132795
C64   C     C_R   0.076575 0.518184 0.931216 -0.132649
N3    N     N_R   0.498740 0.000000 0.857170 -0.104821
N4    N     N_R   0.998740 0.500000 0.857170 -0.104822
C65   C     C_3   0.211901 0.835439 0.880118 -0.933887
H33   H     H_    0.218947 0.776132 0.941524 0.259580
H34   H     H_    0.139076 0.855716 0.879760 0.224724
H35   H     H_    0.232745 0.818483 0.776905 0.253127
C66   C     C_3   0.711870 0.335470 0.880715 -0.934892
H36   H     H_    0.733295 0.317727 0.778112 0.252823
H37   H     H_    0.718457 0.276559 0.943160 0.259733
H38   H     H_    0.639071 0.355859 0.879149 0.224747
O17   O     O_3   0.304844 0.995941 0.742884 -0.559293
C67   C     C_3   0.208174 0.000478 0.722852 0.087036
H39   H     H_    0.172874 0.019428 0.816384 0.140434
H40   H     H_    0.181107 0.938651 0.683194 0.164880
C68   C     C_3   0.183706 0.066297 0.615846 -0.844487
H41   H     H_    0.219139 0.050906 0.521463 0.245130
H42   H     H_    0.108900 0.064195 0.593487 0.209800
H43   H     H_    0.202277 0.131519 0.652415 0.265241
O18   O     O_3   0.804985 0.496017 0.742749 -0.559031
C69   C     C_3   0.708418 0.499184 0.720861 0.088054
H44   H     H_    0.672036 0.517916 0.813558 0.140729
H45   H     H_    0.682663 0.436913 0.681089 0.164820
C70   C     C_3   0.683882 0.564388 0.612934 -0.845710
H46   H     H_    0.720278 0.549158 0.519300 0.244898
H47   H     H_    0.609268 0.561278 0.589287 0.209666
H48   H     H_    0.701265 0.629949 0.649239 0.265173

loop_
_geom_bond_atom_site_label_1
_geom_bond_atom_site_label_2
_geom_bond_distance
_ccdc_geom_bond_type
C22   H18   1.076174 S    
H23   C43   1.084421 S    
C43   C47   1.395639 A    
C58   N4    1.399671 A    
C51   C53   1.386466 A    
O10   C6    1.284641 A    
C32   C36   1.409057 A    
N2    C62   1.367827 A    
H26   C62   1.081686 S    
C26   C46   1.410787 A    
C6    C45   1.437313 S    
O7    C3    1.287687 A    
C55   C57   1.437928 A    
C5    C46   1.414282 S    
C18   H14   1.078871 S    
C35   C39   1.390410 A    
Zn1   O10   2.002869 S    
O17   C67   1.422134 S    
C3    C36   1.407795 S    
C63   N3    1.366537 A    
C11   H7    1.080830 S    
C2    C33   1.427394 S    
C49   C51   1.383182 A    
C38   C44   1.368269 A    
C52   C54   1.386295 A    
C17   C21   1.394121 A    
C14   H10   1.082101 S    
C57   N3    1.399521 A    
O2    Zn1   1.990609 S    
C65   H35   1.109340 S    
C40   C42   1.367986 A    
C20   C24   1.395162 A    
C23   C27   1.422707 A    
O6    Zn3   2.002981 S    
C22   C26   1.411775 A    
Zn3   O14   1.990595 S    
C26   C32   1.400820 A    
C54   C66   1.505150 S    
C44   C48   1.391665 A    
C58   C60   1.435643 A    
C10   C14   1.391217 A    
H31   C63   1.081419 S    
C50   H28   1.069631 S    
C30   C34   1.408936 A    
C66   H38   1.110190 S    
C29   C33   1.409588 A    
O15   C7    1.286720 A    
O4    C4    1.294515 A    
O11   C7    1.288805 A    
C10   C30   1.416340 A    
C34   C38   1.389549 A    
C9    C29   1.417222 A    
C11   C31   1.417253 A    
O8    Zn4   2.002981 S    
C57   C59   1.435561 A    
C54   C56   1.425909 A    
Zn1   N3    2.028596 S    
C64   N4    1.366526 A    
O5    Zn3   1.993867 S    
C18   C22   1.395095 A    
Zn3   N1    2.028195 S    
C12   H8    1.079388 S    
O1    C1    1.284518 A    
N1    C61   1.367842 A    
C49   C59   1.400654 A    
C70   H48   1.108406 S    
C41   C45   1.395658 A    
C15   C17   1.385027 A    
C56   O18   1.398230 S    
C55   O17   1.398074 S    
O12   C8    1.284781 A    
C25   C31   1.407750 A    
C50   C60   1.400610 A    
C9    H5    1.080810 S    
C27   C29   1.407859 A    
C70   H47   1.109203 S    
H24   C44   1.084818 S    
C67   H40   1.107139 S    
O5    C1    1.287674 A    
Zn2   O12   2.002869 S    
H4    C40   1.083942 S    
O8    C4    1.287961 A    
C27   C47   1.431210 A    
H1    C37   1.084418 S    
C7    C48   1.414145 S    
C53   C55   1.425720 A    
H25   C61   1.081684 S    
C21   H17   1.070100 S    
C37   C43   1.361280 A    
C65   H33   1.110842 S    
C62   C64   1.419656 A    
O3    Zn2   1.980731 S    
C69   H45   1.107118 S    
C68   H43   1.108289 S    
C61   C63   1.419669 A    
C28   C30   1.400748 A    
O7    Zn4   1.993867 S    
C51   H29   1.082858 S    
C12   C32   1.416439 A    
Zn4   O15   1.980715 S    
Zn2   N4    2.028596 S    
C42   C46   1.391652 A    
C68   H41   1.109053 S    
C12   C16   1.391218 A    
C67   C68   1.514808 S    
O1    Zn1   1.980731 S    
C1    C34   1.407713 S    
C53   C65   1.505032 S    
C39   C41   1.361284 A    
C11   C15   1.388642 A    
Zn4   N2    2.028195 S    
O16   C8    1.303523 A    
C66   H37   1.110895 S    
C52   H30   1.082790 S    
C16   C18   1.388279 A    
O13   C5    1.286961 A    
C33   C37   1.390421 A    
C10   H6    1.079399 S    
Zn2   O11   1.993754 S    
C36   C40   1.389444 A    
C21   C25   1.422777 A    
C69   C70   1.514969 S    
O6    C2    1.287997 A    
C49   H27   1.069676 S    
H3    C39   1.084420 S    
O18   C69   1.421899 S    
C25   C45   1.431339 A    
C23   H19   1.070205 S    
Zn1   O9    1.993754 S    
C24   H20   1.076359 S    
C9    C13   1.388718 A    
C59   N1    1.363571 A    
C67   H39   1.114310 S    
O9    C5    1.288657 A    
H22   C42   1.084842 S    
C70   H46   1.109086 S    
C31   C35   1.409431 A    
C66   H36   1.109250 S    
C56   C58   1.438186 A    
C17   H13   1.083002 S    
C50   C52   1.383034 A    
C28   C48   1.410509 A    
H32   C64   1.081410 S    
C8    C47   1.437322 S    
C19   H15   1.082975 S    
O4    Zn2   1.990609 S    
C60   N2    1.363575 A    
C65   H34   1.110213 S    
O3    C3    1.284533 A    
C69   H44   1.114191 S    
H2    C38   1.084055 S    
C20   H16   1.078813 S    
Zn3   O13   1.980715 S    
C19   C23   1.394122 A    
C24   C28   1.411622 A    
Zn4   O16   1.990595 S    
O14   C6    1.303663 A    
C4    C35   1.427223 S    
C68   H42   1.109126 S    
C13   H9    1.082491 S    
C15   H11   1.082490 S    
C13   C19   1.385100 A    
H21   C41   1.084423 S    
C16   H12   1.082176 S    
C14   C20   1.388395 A    
O2    C2    1.294534 A    
