data_str_m2_o12_o13_f0_pcu.sym.77
_audit_creation_date              2012-10-26T20:38:01-0400
_audit_creation_method            fapswitch 2.2
_symmetry_space_group_name_H-M    P1
_symmetry_Int_Tables_number       1
_space_group_crystal_system       triclinic
_cell_length_a                    9.885498
_cell_length_b                    11.026594
_cell_length_c                    13.015028
_cell_angle_alpha                 90.404276
_cell_angle_beta                  74.462141
_cell_angle_gamma                 111.371467
_cell_volume                      1266.34655923

loop_
_atom_site_label
_atom_site_type_symbol
_atom_type_description
_atom_site_fract_x
_atom_site_fract_y
_atom_site_fract_z
_atom_type_partial_charge
C1    C     C_R   0.439257 0.253708 0.507621 0.543711
C2    C     C_R   0.699439 0.531920 0.995701 -0.133243
C3    C     C_R   0.311807 0.470407 0.894818 0.253479
C4    C     C_R   0.691997 0.535683 0.105156 0.259710
C5    C     C_R   0.581140 0.511718 0.853721 -0.180871
C6    C     C_R   0.421538 0.494072 0.145544 -0.182642
C7    C     C_R   0.571191 0.512680 0.962093 -0.007136
C8    C     C_R   0.431866 0.494711 0.037283 -0.012927
C9    C     C_2   0.404832 0.113877 0.512027 -0.133247
C10   C     C_2   0.595420 0.886215 0.486488 -0.132160
C11   C     C_2   0.517072 0.069819 0.494198 -0.159671
C12   C     C_R   0.560810 0.746319 0.492014 0.548104
C13   C     C_2   0.483677 0.930395 0.500240 -0.156949
C14   C     C_3   0.954697 0.641778 0.071864 -0.021038
C15   C     C_3   0.070193 0.696797 0.133999 -0.331901
C16   C     C_3   0.083225 0.319603 0.889047 0.010602
C17   C     C_3   0.920801 0.310871 0.910212 -0.365731
C18   C     C_3   0.003203 0.767420 0.459436 0.033618
C19   C     C_3   0.044742 0.897177 0.395443 -0.386080
C20   C     C_3   0.007833 0.233426 0.609335 0.038741
C21   C     C_3   0.842725 0.142900 0.655193 -0.426338
C22   C     C_2   0.083546 0.508822 0.489515 0.069893
C23   C     C_2   0.917045 0.484523 0.503973 0.062151
C24   C     C_R   0.471488 0.495076 0.703337 0.547754
C25   C     C_R   0.528937 0.505958 0.296526 0.559043
C26   C     C_R   0.548966 0.511834 0.180605 0.017168
C27   C     C_R   0.453235 0.492237 0.818814 0.004916
C28   C     C_R   0.303761 0.475551 0.003450 -0.120489
Cu1   Cu    Cu3+1 0.647370 0.522180 0.481340 1.002130
Cu2   Cu    Cu3+1 0.352630 0.477820 0.518660 0.983146
H1    H     H_    0.312786 0.478342 0.202711 0.128423
H2    H     H_    0.167745 0.580235 0.424946 0.128205
H3    H     H_    0.939037 0.725951 0.036630 0.115652
H4    H     H_    0.001973 0.590098 0.006858 0.158459
H5    H     H_    0.083571 0.615983 0.175473 0.183833
H6    H     H_    0.181550 0.758318 0.078248 0.086106
H7    H     H_    0.032235 0.758347 0.193864 0.190963
H8    H     H_    0.089585 0.270594 0.961403 0.099932
H9    H     H_    0.109846 0.264180 0.820050 0.150438
H10   H     H_    0.842867 0.206644 0.921532 0.087558
H11   H     H_    0.888765 0.356716 0.984270 0.156667
H12   H     H_    0.689643 0.526819 0.796475 0.133949
H13   H     H_    0.908558 0.361714 0.841979 0.200407
H14   H     H_    0.100527 0.772356 0.488805 0.096971
H15   H     H_    0.905335 0.754661 0.530909 0.159181
H16   H     H_    0.951495 0.893805 0.361858 0.163986
H17   H     H_    0.063984 0.977570 0.448272 0.079614
H18   H     H_    0.149886 0.917501 0.328757 0.142406
H19   H     H_    0.076293 0.201025 0.649620 0.152308
H20   H     H_    0.041728 0.222009 0.521897 0.135434
H21   H     H_    0.770195 0.171689 0.616479 0.143216
H22   H     H_    0.829673 0.040500 0.640209 0.097283
H23   H     H_    0.196375 0.462649 0.061185 0.113771
H24   H     H_    0.804648 0.147782 0.742860 0.150744
H25   H     H_    0.804485 0.543037 0.936183 0.094583
H26   H     H_    0.366277 0.863425 0.516437 0.150804
H27   H     H_    0.634773 0.136880 0.475262 0.150268
H28   H     H_    0.712624 0.953411 0.470802 0.086984
H29   H     H_    0.287328 0.046613 0.530487 0.082469
H30   H     H_    0.832187 0.403070 0.559927 0.134895
N1    N     N_2   0.131210 0.444490 0.546730 -0.057090
N2    N     N_2   0.868790 0.555510 0.453270 -0.053801
O1    O     O_R   0.578710 0.332530 0.490040 -0.515058
O2    O     O_3   0.183042 0.452387 0.863738 -0.536144
O3    O     O_3   0.974097 0.664888 0.392346 -0.491076
O4    O     O_3   0.024151 0.362950 0.630594 -0.493809
O5    O     O_R   0.421290 0.667470 0.509960 -0.510520
O6    O     O_R   0.329810 0.295070 0.521560 -0.526965
O7    O     O_R   0.670190 0.704930 0.478440 -0.498484
O8    O     O_R   0.604230 0.515670 0.637800 -0.546205
O9    O     O_R   0.395770 0.484330 0.362200 -0.546437
O10   O     O_R   0.355330 0.478200 0.669330 -0.423375
O11   O     O_R   0.644670 0.521800 0.330670 -0.408526
O12   O     O_3   0.817754 0.552721 0.141572 -0.531760

loop_
_geom_bond_atom_site_label_1
_geom_bond_atom_site_label_2
_ccdc_geom_bond_type
C14   H4    S    
Cu2   O10   S    
C28   H23   S    
Cu1   O1    S    
Cu1   Cu2   S    
C25   O9    A    
C18   H14   S    
C11   C13   S    
C20   O4    S    
C22   N1    D    
C2    C4    A    
C2    C7    A    
C14   C15   S    
C24   C27   S    
C5    C27   A    
C21   H24   S    
C12   O7    A    
C13   H26   S    
C14   H3    S    
C17   H13   S    
Cu2   O9    S    
C19   H16   S    
C24   O8    A    
C7    C8    A    
C6    C26   A    
C3    O2    S    
Cu1   N2    S    
C18   O3    S    
C9    C11   D    
C20   H19   S    
C22   H2    S    
C10   C12   S    
C3    C27   A    
C3    C28   A    
C10   H28   S    
C6    H1    S    
Cu1   O8    S    
C25   O11   A    
C2    H25   S    
C23   N2    D    
C23   H30   S    
C8    C28   A    
C12   O5    A    
C19   H17   S    
C4    C26   A    
C17   H11   S    
Cu1   O11   S    
Cu2   O6    S    
C16   H9    S    
C18   H15   S    
C14   O12   S    
C15   H6    S    
C21   H21   S    
C1    O6    A    
C1    C9    S    
C20   C21   S    
C24   O10   A    
C5    H12   S    
C20   H20   S    
C18   C19   S    
Cu2   N1    S    
C15   H5    S    
C5    C7    A    
Cu1   O7    S    
C22   C23   S    
C1    O1    A    
C6    C8    A    
C16   O2    S    
N2    O3    S    
C16   H8    S    
C25   C26   S    
C11   H27   S    
C4    O12   S    
N1    O4    S    
C10   C13   D    
C21   H22   S    
C15   H7    S    
Cu2   O5    S    
C19   H18   S    
C16   C17   S    
C9    H29   S    
C17   H10   S    
