data_str_m2_o16_o16_f0_pcu.sym.25
_audit_creation_date              2012-10-26T20:02:30-0400
_audit_creation_method            fapswitch 2.2
_symmetry_space_group_name_H-M    P1
_symmetry_Int_Tables_number       1
_space_group_crystal_system       triclinic
_cell_length_a                    19.008271
_cell_length_b                    18.349635
_cell_length_c                    12.340856
_cell_angle_alpha                 90.08307
_cell_angle_beta                  128.845033
_cell_angle_gamma                 90.045349
_cell_volume                      3352.47078642

loop_
_atom_site_label
_atom_site_type_symbol
_atom_type_description
_atom_site_fract_x
_atom_site_fract_y
_atom_site_fract_z
_atom_type_partial_charge
C1    C     C_R   0.609688 0.895900 0.649592 0.551295
C2    C     C_R   0.666996 0.736502 0.040044 0.057294
C3    C     C_3   0.304860 0.382557 0.671313 -0.110642
C4    C     C_1   0.327072 0.794063 0.734886 0.213496
C5    C     C_1   0.327662 0.207255 0.735815 0.214953
C6    C     C_1   0.827068 0.294069 0.734885 0.213479
C7    C     C_1   0.827663 0.707255 0.735817 0.214970
C8    C     C_R   0.161786 0.768043 0.032642 0.044653
C9    C     C_R   0.166995 0.236502 0.040042 0.057299
C10   C     C_R   0.586709 0.228610 0.925120 -0.126773
C11   C     C_R   0.591467 0.774960 0.932125 -0.114694
C12   C     C_R   0.086699 0.728623 0.925101 -0.126795
C13   C     C_R   0.091466 0.274959 0.932123 -0.114694
C14   C     C_R   0.583273 0.201242 0.816970 -0.131832
C15   C     C_R   0.587046 0.800975 0.822617 -0.119772
C16   C     C_R   0.083269 0.701246 0.816962 -0.131805
C17   C     C_R   0.609632 0.104271 0.649577 0.546072
C18   C     C_R   0.087045 0.300974 0.822615 -0.119783
C19   C     C_R   0.305802 0.824855 0.132549 -0.142737
C20   C     C_R   0.310015 0.178685 0.138617 -0.125971
C21   C     C_R   0.805814 0.324840 0.132568 -0.142748
C22   C     C_R   0.810016 0.678687 0.138621 -0.125962
C23   C     C_R   0.242744 0.833265 0.252040 -0.109373
C24   C     C_R   0.246307 0.169985 0.257141 -0.107433
C25   C     C_R   0.742753 0.333257 0.252054 -0.109396
C26   C     C_R   0.746307 0.669985 0.257142 -0.107427
C27   C     C_R   0.664092 0.171204 0.722867 -0.016397
C28   C     C_R   0.109688 0.395900 0.649592 0.551286
C29   C     C_R   0.665230 0.829939 0.724240 -0.008767
C30   C     C_R   0.164096 0.671201 0.722874 -0.016426
C31   C     C_R   0.165230 0.329938 0.724240 -0.008773
C32   C     C_R   0.682454 0.008216 0.283617 -0.155876
C33   C     C_R   0.182453 0.508238 0.283616 -0.155843
C34   C     C_R   0.343850 0.999284 0.624582 0.086287
C35   C     C_R   0.843850 0.499283 0.624583 0.086289
C36   C     C_R   0.306984 0.002004 0.691921 -0.119074
C37   C     C_R   0.806984 0.502005 0.691923 -0.119073
C38   C     C_R   0.384878 0.099562 0.343449 0.554008
C39   C     C_R   0.109634 0.604270 0.649580 0.546048
C40   C     C_R   0.384132 0.900962 0.342395 0.553304
C41   C     C_R   0.884879 0.599562 0.343449 0.554015
C42   C     C_R   0.884134 0.400960 0.342399 0.553303
C43   C     C_R   0.362403 0.004971 0.837096 -0.002354
C44   C     C_R   0.862404 0.504973 0.837098 -0.002354
C45   C     C_R   0.458872 0.002402 0.918871 -0.026757
C46   C     C_R   0.958872 0.502404 0.918871 -0.026757
C47   C     C_R   0.492582 0.001386 0.841937 0.127956
C48   C     C_R   0.992582 0.501388 0.841937 0.127969
C49   C     C_R   0.523955 0.002011 0.070487 -0.070266
C50   C     C_R   0.230430 0.785954 0.023269 -0.000597
C51   C     C_R   0.023956 0.502013 0.070487 -0.070275
C52   C     C_R   0.618074 0.006196 0.137536 0.028080
C53   C     C_R   0.118073 0.506209 0.137535 0.028095
C54   C     C_R   0.647983 0.007795 0.059266 0.226465
C55   C     C_R   0.147984 0.507810 0.059268 0.226465
C56   C     C_R   0.586196 0.002563 0.915488 -0.076875
C57   C     C_R   0.086196 0.502570 0.915488 -0.076899
C58   C     C_R   0.501799 0.996029 0.160983 0.025546
C59   C     C_R   0.001800 0.496021 0.160983 0.025546
C60   C     C_R   0.654812 0.005891 0.363893 0.036884
C61   C     C_R   0.235601 0.218592 0.030472 0.014257
C62   C     C_R   0.154811 0.505907 0.363893 0.036866
C63   C     C_R   0.669100 0.290528 0.148814 0.260156
C64   C     C_R   0.674129 0.714089 0.155979 0.262113
C65   C     C_R   0.169089 0.790542 0.148794 0.260179
C66   C     C_R   0.174129 0.214089 0.155979 0.262114
C67   C     C_R   0.310916 0.850671 0.243603 -0.046275
C68   C     C_R   0.313687 0.151579 0.247548 -0.044855
C69   C     C_R   0.810924 0.350662 0.243616 -0.046274
C70   C     C_R   0.813688 0.651580 0.247550 -0.044856
C71   C     C_R   0.727008 0.195971 0.704846 0.256151
C72   C     C_R   0.730441 0.285940 0.023289 -0.000597
C73   C     C_R   0.726651 0.804649 0.703623 0.254672
C74   C     C_R   0.227019 0.695964 0.704863 0.256156
C75   C     C_R   0.226652 0.304649 0.703624 0.254668
C76   C     C_R   0.277345 0.759423 0.773169 0.001713
C77   C     C_R   0.279811 0.243264 0.776188 0.000788
C78   C     C_R   0.777341 0.259426 0.773166 0.001712
C79   C     C_R   0.779811 0.743264 0.776190 0.000787
C80   C     C_R   0.279241 0.789718 0.878252 -0.162088
C81   C     C_R   0.285109 0.215590 0.885909 -0.156454
C82   C     C_R   0.779246 0.289713 0.878263 -0.162076
C83   C     C_R   0.735603 0.718594 0.030475 0.014261
C84   C     C_R   0.785111 0.715592 0.885913 -0.156454
C85   C     C_R   0.723644 0.261900 0.907680 0.008842
C86   C     C_R   0.728776 0.742529 0.914698 0.019145
C87   C     C_R   0.223638 0.761907 0.907668 0.008845
C88   C     C_R   0.228774 0.242527 0.914695 0.019138
C89   C     C_R   0.656348 0.210412 0.815000 -0.038745
C90   C     C_R   0.659962 0.792366 0.820169 -0.021253
C91   C     C_R   0.156347 0.710414 0.814997 -0.038732
C92   C     C_R   0.159961 0.292365 0.820166 -0.021262
C93   C     C_3   0.765056 0.077107 0.111957 -0.123964
C94   C     C_R   0.661799 0.268027 0.032664 0.044685
C95   C     C_3   0.265032 0.577085 0.111738 -0.123919
C96   C     C_1   0.314138 0.015507 0.890768 0.138651
C97   C     C_1   0.814141 0.515515 0.890771 0.138659
C98   C     C_3   0.626658 0.213529 0.241903 -0.108112
C99   C     C_3   0.633515 0.794247 0.247484 -0.103487
C100  C     C_3   0.126656 0.713490 0.241827 -0.108107
C101  C     C_3   0.133522 0.294239 0.247505 -0.103485
C102  C     C_3   0.812320 0.116612 0.690519 -0.116908
C103  C     C_3   0.804849 0.882562 0.671296 -0.110655
C104  C     C_3   0.312350 0.616595 0.690596 -0.116917
Cu1   Cu    Cu3+1 0.526340 0.000000 0.421010 0.969761
Cu2   Cu    Cu3+1 0.026340 0.500000 0.421010 0.969770
Cu3   Cu    Cu3+1 0.473640 0.000000 0.578990 0.923667
Cu4   Cu    Cu3+1 0.973640 0.500000 0.578990 0.923656
H1    H     H_    0.245655 0.853460 0.337324 0.152943
H2    H     H_    0.799544 0.498058 0.512128 0.131444
H3    H     H_    0.234033 0.003474 0.629319 0.113339
H4    H     H_    0.734033 0.503475 0.629321 0.113339
H5    H     H_    0.615422 0.999830 0.865203 0.199408
H6    H     H_    0.115419 0.499827 0.865200 0.199371
H7    H     H_    0.530952 0.217687 0.925554 0.176258
H8    H     H_    0.535434 0.785318 0.932167 0.171896
H9    H     H_    0.030941 0.717701 0.925533 0.176254
H10   H     H_    0.035433 0.285317 0.932165 0.171900
H11   H     H_    0.362251 0.834926 0.133856 0.135807
H12   H     H_    0.248667 0.149527 0.341684 0.155531
H13   H     H_    0.366518 0.168189 0.140403 0.140232
H14   H     H_    0.862264 0.334911 0.133877 0.135803
H15   H     H_    0.866520 0.668192 0.140408 0.140237
H16   H     H_    0.321230 0.837311 0.931029 0.119781
H17   H     H_    0.330043 0.170195 0.942003 0.130102
H18   H     H_    0.821241 0.337303 0.931050 0.119777
H19   H     H_    0.830046 0.670198 0.942009 0.130101
H20   H     H_    0.520891 0.175407 0.733225 0.189971
H21   H     H_    0.523718 0.824912 0.737750 0.184231
H22   H     H_    0.020890 0.675408 0.733221 0.189973
H23   H     H_    0.745659 0.353460 0.337328 0.152933
H24   H     H_    0.023717 0.324911 0.737748 0.184229
H25   H     H_    0.703763 0.008209 0.475810 0.131159
H26   H     H_    0.203760 0.508234 0.475808 0.131189
H27   H     H_    0.746040 0.120572 0.152330 0.115317
H28   H     H_    0.735611 0.088439 0.002487 0.126694
H29   H     H_    0.839593 0.078587 0.175236 0.152776
H30   H     H_    0.245861 0.620641 0.151737 0.115364
H31   H     H_    0.235718 0.588243 0.002273 0.126631
H32   H     H_    0.339582 0.578614 0.175200 0.152757
H33   H     H_    0.637065 0.165393 0.198496 0.111290
H34   H     H_    0.748666 0.649527 0.341684 0.155535
H35   H     H_    0.571210 0.199825 0.245314 0.166504
H36   H     H_    0.688397 0.224364 0.350531 0.161514
H37   H     H_    0.579433 0.808688 0.253647 0.166548
H38   H     H_    0.641980 0.841238 0.199550 0.126549
H39   H     H_    0.696649 0.785261 0.355550 0.166603
H40   H     H_    0.137103 0.665388 0.198404 0.111260
H41   H     H_    0.071188 0.699734 0.245165 0.166468
H42   H     H_    0.188373 0.724308 0.350489 0.161548
H43   H     H_    0.079451 0.308670 0.253699 0.166556
H44   H     H_    0.141979 0.341237 0.199574 0.126555
H45   H     H_    0.754154 0.012060 0.336365 0.147789
H46   H     H_    0.196663 0.285248 0.355559 0.166584
H47   H     H_    0.802746 0.070765 0.739074 0.109679
H48   H     H_    0.874695 0.147578 0.771631 0.131796
H49   H     H_    0.822963 0.093227 0.618917 0.118547
H50   H     H_    0.869339 0.853151 0.748253 0.132536
H51   H     H_    0.798099 0.928694 0.722823 0.111935
H52   H     H_    0.808600 0.905593 0.592024 0.120551
H53   H     H_    0.302777 0.570765 0.739179 0.109663
H54   H     H_    0.374723 0.647571 0.771690 0.131809
H55   H     H_    0.322994 0.593188 0.619011 0.118553
H56   H     H_    0.254152 0.512096 0.336365 0.147830
H57   H     H_    0.369347 0.353121 0.748160 0.132569
H58   H     H_    0.298168 0.428653 0.722971 0.111905
H59   H     H_    0.308559 0.405645 0.592022 0.120545
H60   H     H_    0.434914 0.986001 0.124337 0.161467
H61   H     H_    0.934917 0.485980 0.124334 0.161458
H62   H     H_    0.299545 0.998060 0.512127 0.131444
N1    N     N_R   0.566260 0.000000 0.302220 -0.237820
N2    N     N_1   0.864959 0.678206 0.701739 -0.340693
N3    N     N_R   0.066260 0.500000 0.302220 -0.237826
N4    N     N_R   0.434410 0.000000 0.697680 -0.229119
N5    N     N_R   0.934410 0.500000 0.697680 -0.229114
N6    N     N_1   0.273829 0.024032 0.931258 -0.314741
N7    N     N_1   0.773833 0.524045 0.931262 -0.314736
N8    N     N_1   0.366105 0.821978 0.702828 -0.340903
N9    N     N_1   0.364959 0.178206 0.701739 -0.340700
N10   N     N_1   0.866102 0.321986 0.702829 -0.340913
O1    O     O_R   0.608610 0.924520 0.551740 -0.449198
O2    O     O_R   0.435880 0.924530 0.314850 -0.510063
O3    O     O_R   0.935880 0.575470 0.314850 -0.500591
O4    O     O_R   0.935880 0.424530 0.314850 -0.510066
O5    O     O_R   0.391380 0.075460 0.448260 -0.508952
O6    O     O_R   0.391380 0.924540 0.448260 -0.508500
O7    O     O_R   0.891380 0.575460 0.448260 -0.508949
O8    O     O_R   0.891380 0.424540 0.448260 -0.508500
O9    O     O_3   0.739564 0.007420 0.124628 -0.576675
O10   O     O_3   0.239569 0.507441 0.124647 -0.576685
O11   O     O_3   0.601251 0.275354 0.156961 -0.582350
O12   O     O_R   0.608610 0.075480 0.551740 -0.448513
O13   O     O_3   0.607397 0.730671 0.165930 -0.588257
O14   O     O_3   0.101252 0.775348 0.156962 -0.582333
O15   O     O_3   0.107397 0.230670 0.165929 -0.588257
O16   O     O_3   0.735033 0.161540 0.613189 -0.560917
O17   O     O_3   0.729291 0.835659 0.603996 -0.561375
O18   O     O_3   0.235060 0.661521 0.613234 -0.560902
O19   O     O_3   0.229293 0.335664 0.604002 -0.561380
O20   O     O_R   0.108610 0.424520 0.551740 -0.449180
O21   O     O_R   0.108610 0.575480 0.551740 -0.448501
O22   O     O_R   0.564110 0.924510 0.685150 -0.541335
O23   O     O_R   0.564110 0.075490 0.685150 -0.548064
O24   O     O_R   0.064110 0.424510 0.685150 -0.541344
O25   O     O_R   0.064110 0.575490 0.685150 -0.548073
O26   O     O_R   0.435880 0.075470 0.314850 -0.500600

loop_
_geom_bond_atom_site_label_1
_geom_bond_atom_site_label_2
_ccdc_geom_bond_type
C54   O9    S    
C87   C91   A    
C98   H35   S    
C100  H42   S    
Cu4   O7    S    
C18   H24   S    
C93   H28   S    
C104  H55   S    
C66   O15   S    
C3    H59   S    
C48   C57   A    
Cu1   Cu3   S    
C63   C94   A    
C95   H32   S    
C28   O20   A    
C74   C76   A    
C13   C18   A    
C9    C61   A    
C81   C88   A    
C7    C79   S    
C35   C37   A    
C84   C86   A    
C80   C87   A    
C25   C63   A    
C79   C84   A    
C30   C74   A    
C103  H52   S    
C6    C78   S    
C29   C73   A    
C1    O22   A    
Cu4   N5    S    
C21   H14   S    
C14   H20   S    
C41   O7    A    
C103  O17   S    
C23   C67   A    
C20   C61   A    
C17   O23   A    
C99   H39   S    
C26   C64   A    
C9    C66   A    
C32   C52   A    
C37   H4    S    
C9    C13   A    
C95   O10   S    
C11   C15   A    
C5    N9    T    
C12   C16   A    
C44   C46   A    
C33   C62   A    
C41   C70   S    
C40   C67   S    
C73   O17   S    
C3    O19   S    
C56   H5    S    
C19   C67   A    
C77   C81   A    
Cu1   O2    S    
C58   H60   S    
C102  H48   S    
C34   H62   S    
C24   C66   A    
C48   N5    A    
C72   C94   A    
C84   H19   S    
C45   C47   A    
C99   H37   S    
C19   H11   S    
C8    C65   A    
C7    N2    T    
Cu1   O12   S    
C2    C83   A    
Cu3   O6    S    
C2    C11   A    
C102  H49   S    
C29   C90   A    
C59   N3    A    
C52   C54   A    
C72   C85   A    
C40   O2    A    
C53   C55   A    
C17   O12   A    
C33   C53   A    
C23   C65   A    
C23   H1    S    
C46   C48   A    
C24   H12   S    
C21   C72   A    
C17   C27   S    
C55   O10   S    
C74   O18   S    
C22   H15   S    
C33   H56   S    
C2    C64   A    
Cu3   O22   S    
C86   C90   A    
C6    N10   T    
C104  H53   S    
C85   C89   A    
C30   C91   A    
C42   O4    A    
C62   N3    A    
C46   C51   A    
C101  H43   S    
C42   C69   S    
C49   C58   A    
C32   H45   S    
C21   C69   A    
C97   N7    T    
C51   C53   A    
C28   O24   A    
C14   C89   A    
Cu3   O23   S    
C34   N4    A    
C61   C88   A    
C60   H25   S    
Cu1   O26   S    
C44   C97   S    
C78   C82   A    
C31   C75   A    
C15   H21   S    
C45   C49   A    
C8    C12   A    
C49   C52   A    
C64   O13   S    
C36   H3    S    
C1    C29   S    
C43   C96   S    
C73   C79   A    
C103  H50   S    
C38   O5    A    
C88   C92   A    
C11   H8    S    
C43   C45   A    
Cu2   O4    S    
C20   H13   S    
C13   H10   S    
C35   H2    S    
C50   C87   A    
C99   H38   S    
C38   C68   S    
C100  O14   S    
C39   O21   A    
C98   H33   S    
C10   C14   A    
C26   C70   A    
C51   C59   A    
C32   C60   A    
C5    C77   S    
C25   H23   S    
C8    C50   A    
C98   H36   S    
C40   O6    A    
C27   C71   A    
C3    H57   S    
Cu2   O20   S    
C65   O14   S    
C80   H16   S    
C42   O8    A    
C38   O26   A    
Cu3   O5    S    
C95   H30   S    
C1    O1    A    
C93   O9    S    
Cu1   N1    S    
C81   H17   S    
C60   N1    A    
C104  O18   S    
C20   C68   A    
C28   C31   S    
C76   C80   A    
C4    N8    T    
C98   O11   S    
C93   H27   S    
C102  O16   S    
C96   N6    T    
Cu4   O8    S    
C54   C56   A    
C57   H6    S    
Cu3   N4    S    
C75   O19   S    
C100  H41   S    
C82   C85   A    
C99   O13   S    
C101  H44   S    
C95   H31   S    
C35   N5    A    
C22   C83   A    
C62   H26   S    
C37   C44   A    
C55   C57   A    
C58   N1    A    
C18   C92   A    
Cu4   O24   S    
C59   H61   S    
Cu2   O21   S    
C104  H54   S    
C19   C50   A    
C103  H51   S    
C71   O16   S    
Cu2   Cu4   S    
C101  H46   S    
C100  H40   S    
C63   O11   S    
C39   O25   A    
Cu2   N3    S    
C30   C39   S    
C27   C89   A    
C34   C36   A    
Cu2   O3    S    
C4    C76   S    
C47   N4    A    
C93   H29   S    
C24   C68   A    
C12   H9    S    
C101  O15   S    
C83   C86   A    
C25   C69   A    
C16   C91   A    
C31   C92   A    
C75   C77   A    
C10   C94   A    
C41   O3    A    
C36   C43   A    
C16   H22   S    
Cu1   O1    S    
C26   H34   S    
C102  H47   S    
C22   C70   A    
C71   C78   A    
C82   H18   S    
C10   H7    S    
Cu4   O25   S    
C3    H58   S    
C47   C56   A    
C15   C90   A    
