data_str_m3_o1_o18_f0_pcu.sym.235
_audit_creation_date              2012-12-10T18:47:46-0500
_audit_creation_method            fapswitch 2.2
_symmetry_space_group_name_H-M    P1
_symmetry_Int_Tables_number       1
_space_group_crystal_system       triclinic
_cell_length_a                    9.844552
_cell_length_b                    10.652929
_cell_length_c                    15.544343
_cell_angle_alpha                 89.924139
_cell_angle_beta                  66.841295
_cell_angle_gamma                 89.761986
_cell_volume                      1498.81170519

loop_
_atom_site_label
_atom_site_type_symbol
_atom_type_description
_atom_site_fract_x
_atom_site_fract_y
_atom_site_fract_z
_atom_type_partial_charge
C1    C     C_R   0.500417 0.739743 0.498954 0.912054
C2    C     C_R   0.500134 0.259947 0.500891 0.947001
C3    C     C_R   0.330204 0.458742 0.104191 -0.324441
C4    C     C_R   0.668103 0.546313 0.896644 -0.320679
C5    C     C_R   0.228446 0.432996 0.064475 0.428552
C6    C     C_R   0.769912 0.571601 0.936388 0.428770
C7    C     C_R   0.568362 0.932799 0.549093 -0.349340
C8    C     C_R   0.438242 0.066215 0.446031 -0.364978
C9    C     C_R   0.575598 0.061379 0.547766 0.499907
C10   C     C_R   0.442358 0.937356 0.441138 0.499856
C11   C     C_R   0.503934 0.127371 0.499105 -0.211386
C12   C     C_R   0.502740 0.871846 0.496234 -0.210596
C13   C     C_R   0.964856 0.422638 0.441387 -0.110745
C14   C     C_R   0.035443 0.577951 0.558202 -0.054968
C15   C     C_R   0.108479 0.422269 0.441663 -0.065658
C16   C     C_R   0.891581 0.577849 0.558256 -0.060941
C17   C     C_R   0.407233 0.500517 0.676171 0.872371
C18   C     C_R   0.592696 0.499676 0.323875 0.834902
C19   C     C_R   0.348303 0.495648 0.777817 -0.088886
C20   C     C_R   0.651220 0.506010 0.222381 -0.097087
C21   C     C_R   0.168451 0.427052 0.926692 -0.149459
C22   C     C_R   0.830136 0.576842 0.074022 -0.152823
C23   C     C_R   0.209823 0.445120 0.830920 -0.158373
C24   C     C_R   0.789155 0.557642 0.169609 -0.172050
C25   C     C_R   0.442586 0.530383 0.820527 -0.220119
C26   C     C_R   0.556538 0.472341 0.179700 -0.234874
C27   C     C_R   0.411702 0.499432 0.913486 0.062919
C28   C     C_R   0.586832 0.504792 0.087143 0.052753
C29   C     C_R   0.268795 0.452771 0.968689 0.043153
C30   C     C_R   0.729673 0.551505 0.032056 0.043730
C31   C     C_R   0.519569 0.513743 0.952131 0.009941
C32   C     C_R   0.478736 0.491205 0.048630 0.006608
H1    H     H_    0.457718 0.422075 0.221346 0.145800
H2    H     H_    0.541600 0.580111 0.778527 0.140514
H3    H     H_    0.863464 0.584919 0.202317 0.184599
H4    H     H_    0.135400 0.417710 0.798323 0.182588
H5    H     H_    0.060127 0.388757 0.966917 0.186096
H6    H     H_    0.938177 0.615756 0.033956 0.185878
H7    H     H_    0.287697 0.455162 0.179439 0.156508
H8    H     H_    0.710780 0.550071 0.821416 0.155708
H9    H     H_    0.611943 0.880406 0.592495 0.173147
H10   H     H_    0.387009 0.118439 0.406724 0.180390
H11   H     H_    0.192002 0.359820 0.395143 0.117905
H12   H     H_    0.807999 0.640200 0.604842 0.113007
N1    N     N_R   0.142780 0.500030 0.500020 -0.074156
N2    N     N_R   0.857220 0.499970 0.499980 -0.076742
O1    O     O_R   0.385370 0.683250 0.500010 -0.579271
O2    O     O_R   0.614630 0.316750 0.499990 -0.609792
O3    O     O_R   0.614700 0.683220 0.500000 -0.629719
O4    O     O_R   0.385300 0.316780 0.500000 -0.625837
O5    O     O_R   0.319830 0.500020 0.632250 -0.626946
O6    O     O_R   0.680170 0.499980 0.367750 -0.620490
O7    O     O_R   0.549160 0.499990 0.632240 -0.608431
O8    O     O_R   0.450840 0.500010 0.367760 -0.617909
Zn1   Zn    Zn3+2 0.346870 0.500020 0.500000 0.948590
Zn2   Zn    Zn3+2 0.653130 0.499980 0.500000 0.939860
O9    O     O_3   0.083853 0.402794 0.120942 -0.658864
C33   C     C_3   0.078586 0.280207 0.156838 0.065486
H13   H     H_    0.134548 0.276671 0.206655 0.130736
H14   H     H_    0.132017 0.211552 0.099090 0.140551
C34   C     C_3   0.916882 0.242928 0.209244 -0.315585
H15   H     H_    0.861633 0.311830 0.265909 0.233849
H16   H     H_    0.859546 0.244647 0.160271 0.228716
C35   C     C_3   0.902923 0.112222 0.252179 -0.994777
H17   H     H_    0.950612 0.040603 0.196359 0.272787
H18   H     H_    0.784494 0.090298 0.292434 0.262783
H19   H     H_    0.961201 0.107973 0.300492 0.257766
O10   O     O_3   0.914713 0.600874 0.879947 -0.659032
C36   C     C_3   0.920985 0.723392 0.843886 0.056696
H20   H     H_    0.868126 0.792386 0.901506 0.143116
H21   H     H_    0.865127 0.727296 0.794018 0.133110
C37   C     C_3   0.083009 0.759439 0.791528 -0.322654
H22   H     H_    0.139597 0.759198 0.840917 0.226924
H23   H     H_    0.138224 0.689090 0.735939 0.234781
C38   C     C_3   0.098073 0.888826 0.746600 -0.961874
H24   H     H_    0.042413 0.890376 0.696846 0.263180
H25   H     H_    0.216833 0.910860 0.707614 0.274775
H26   H     H_    0.047970 0.961717 0.801094 0.267419
O11   O     O_3   0.637610 0.121525 0.602492 -0.636816
C39   C     C_3   0.791557 0.137070 0.550971 0.149156
H27   H     H_    0.823083 0.226983 0.574061 0.182121
H28   H     H_    0.822932 0.145521 0.473906 0.119305
C40   C     C_3   0.880549 0.031170 0.571278 -0.432258
H29   H     H_    0.846210 0.020914 0.648122 0.235136
H30   H     H_    0.859765 0.941288 0.542634 0.223403
C41   C     C_3   0.046010 0.058124 0.526322 -0.900270
H31   H     H_    0.082355 0.070230 0.449495 0.261356
H32   H     H_    0.108171 0.978259 0.539289 0.289048
H33   H     H_    0.072288 0.144508 0.556612 0.266947
O12   O     O_3   0.378572 0.876914 0.387533 -0.637486
C42   C     C_3   0.489903 0.833637 0.302888 0.123849
H34   H     H_    0.446706 0.748765 0.280836 0.183578
H35   H     H_    0.593743 0.803968 0.310203 0.101264
C43   C     C_3   0.524038 0.933171 0.226069 -0.381564
H36   H     H_    0.420148 0.961125 0.218808 0.230343
H37   H     H_    0.571600 0.017601 0.245427 0.213895
C44   C     C_3   0.633804 0.883548 0.132298 -0.951008
H38   H     H_    0.739040 0.855934 0.137802 0.266457
H39   H     H_    0.657512 0.957920 0.078287 0.261931
H40   H     H_    0.587049 0.801100 0.109956 0.268678
H41   H     H_    0.939750 0.360503 0.394760 0.121105
H42   H     H_    0.060763 0.640448 0.604573 0.125533

loop_
_geom_bond_atom_site_label_1
_geom_bond_atom_site_label_2
_ccdc_geom_bond_type
C27   C29   A    
C17   O5    A    
C44   H38   S    
O9    C33   S    
C18   O6    A    
C22   C24   A    
C8    H10   S    
C39   C40   S    
C13   N2    A    
C39   H27   S    
C41   H32   S    
C14   H42   S    
C33   H14   S    
C22   H6    S    
C34   H16   S    
C9    O11   S    
C36   H21   S    
C2    O4    A    
C4    H8    S    
O10   C36   S    
C16   H12   S    
O5    Zn1   S    
C34   H15   S    
C25   H2    S    
C33   C34   S    
C6    O10   S    
C3    H7    S    
C36   H20   S    
C1    C12   S    
C37   C38   S    
C2    C11   S    
C44   H39   S    
C14   N1    A    
C5    C29   A    
C7    C12   A    
C24   H3    S    
C27   C31   A    
C35   H19   S    
C20   C24   A    
C28   C32   A    
C37   H23   S    
C16   N2    A    
C42   H34   S    
C41   H31   S    
C1    O1    A    
C43   C44   S    
C2    O2    A    
C33   H13   S    
C21   C29   A    
C35   H18   S    
C34   C35   S    
C19   C23   A    
C38   H24   S    
C42   H35   S    
C38   H25   S    
C26   H1    S    
C40   H29   S    
C3    C32   A    
C43   H37   S    
C9    C11   A    
C10   O12   S    
C10   C12   A    
C4    C6    A    
C40   H30   S    
C13   C15   A    
C14   C16   A    
C15   N1    A    
C13   H41   S    
C17   O7    A    
C36   C37   S    
O1    Zn1   S    
O7    Zn2   S    
O2    Zn2   S    
O8    Zn1   S    
C44   H40   S    
C22   C30   A    
C6    C30   A    
C31   C32   A    
C37   H22   S    
C3    C5    A    
C41   H33   S    
C25   C27   A    
O3    Zn2   S    
C26   C28   A    
O4    Zn1   S    
C5    O9    S    
C35   H17   S    
C21   C23   A    
C15   H11   S    
C42   C43   S    
O12   C42   S    
C20   C26   A    
C8    C11   A    
C28   C30   A    
C17   C19   S    
C39   H28   S    
C18   C20   S    
C7    H9    S    
C43   H36   S    
C19   C25   A    
C38   H26   S    
C4    C31   A    
C18   O8    A    
O11   C39   S    
C7    C9    A    
C40   C41   S    
C21   H5    S    
N1    Zn1   S    
C8    C10   A    
C23   H4    S    
N2    Zn2   S    
C1    O3    A    
O6    Zn2   S    
