data_str_m3_o10_o28_f0_pcu.sym.76
_audit_creation_date              2012-12-10T16:58:31-0500
_audit_creation_method            fapswitch 2.2
_symmetry_space_group_name_H-M    P1
_symmetry_Int_Tables_number       1
_space_group_crystal_system       triclinic
_cell_length_a                    7.743955
_cell_length_b                    8.581929
_cell_length_c                    23.268949
_cell_angle_alpha                 90.712527
_cell_angle_beta                  85.856094
_cell_angle_gamma                 93.660513
_cell_volume                      1539.17253006

loop_
_atom_site_label
_atom_site_type_symbol
_atom_type_description
_atom_site_fract_x
_atom_site_fract_y
_atom_site_fract_z
_atom_type_partial_charge
C1    C     C_R   0.545902 0.794863 0.498474 0.962452
C2    C     C_R   0.510477 0.323264 0.304329 0.097523
C3    C     C_R   0.599357 0.562296 0.765082 -0.134062
C4    C     C_R   0.496964 0.299377 0.245417 -0.110131
C5    C     C_R   0.498296 0.438630 0.791008 0.242044
C6    C     C_R   0.464406 0.422756 0.210192 0.230544
C7    C     C_2   0.570128 0.958280 0.497764 -0.386012
C8    C     C_2   0.429935 0.041734 0.503077 -0.395350
C9    C     C_R   0.501867 0.498363 0.610528 0.881085
C10   C     C_R   0.497469 0.498650 0.389534 0.865124
C11   C     C_R   0.602905 0.351473 0.118205 0.508590
C12   C     C_R   0.454143 0.205151 0.502070 0.929527
C13   C     C_R   0.340272 0.461651 0.882956 0.515750
C14   C     C_R   0.313345 0.435402 0.123528 0.512274
C15   C     C_R   0.625818 0.368403 0.877499 0.515687
C16   C     C_R   0.313833 0.435750 0.063527 -0.017803
C17   C     C_R   0.619310 0.354490 0.937383 -0.017872
C18   C     C_R   0.462786 0.391133 0.030676 -0.017429
C19   C     C_R   0.469446 0.397408 0.970247 -0.018873
C20   C     C_R   0.606744 0.343932 0.058127 -0.018986
C21   C     C_R   0.327715 0.449922 0.942892 -0.019958
C22   C     C_R   0.171708 0.484367 0.035802 -0.171188
C23   C     C_R   0.401125 0.333832 0.758347 -0.125579
C24   C     C_R   0.759052 0.300946 0.965078 -0.171211
C25   C     C_R   0.178887 0.492043 0.975970 -0.181358
C26   C     C_R   0.752936 0.295984 0.024980 -0.181216
C27   C     C_3   0.297519 0.229609 0.665849 -0.417915
C28   C     C_3   0.105354 0.262018 0.669992 -0.753105
C29   C     C_3   0.418179 0.759536 0.316081 -0.430558
C30   C     C_3   0.224052 0.780378 0.326678 -0.798510
C31   C     C_3   0.707538 0.725047 0.679698 -0.404938
C32   C     C_3   0.591141 0.854342 0.665424 -0.860207
C33   C     C_3   0.540559 0.183646 0.340546 -0.423835
C34   C     C_R   0.441044 0.571088 0.233768 -0.127008
C35   C     C_3   0.727198 0.136251 0.331448 -0.798387
C36   C     C_R   0.402018 0.351166 0.698973 0.088940
C37   C     C_R   0.449603 0.597969 0.292716 0.097773
C38   C     C_R   0.502484 0.478253 0.672395 -0.089213
C39   C     C_R   0.487368 0.473946 0.328060 -0.095170
C40   C     C_R   0.602340 0.584619 0.705663 0.094844
H1    H     H_    0.056120 0.519772 0.060226 0.203335
H2    H     H_    0.297558 0.990650 0.508037 0.184319
H3    H     H_    0.014098 0.382812 0.456857 0.192185
H4    H     H_    0.985897 0.617182 0.543138 0.185492
H5    H     H_    0.051749 0.257239 0.715573 0.271872
H6    H     H_    0.086604 0.378870 0.652335 0.270071
H7    H     H_    0.032522 0.172413 0.644831 0.231745
H8    H     H_    0.345787 0.223533 0.619998 0.210644
H9    H     H_    0.312116 0.111828 0.683555 0.200032
H10   H     H_    0.163589 0.692142 0.357696 0.276597
H11   H     H_    0.202994 0.898306 0.344934 0.231242
H12   H     H_    0.874567 0.265385 0.940653 0.197879
H13   H     H_    0.159546 0.767882 0.285608 0.268619
H14   H     H_    0.482667 0.783554 0.356655 0.202515
H15   H     H_    0.475739 0.847473 0.284418 0.205564
H16   H     H_    0.500069 0.814157 0.632848 0.254296
H17   H     H_    0.515621 0.891978 0.705014 0.263901
H18   H     H_    0.672322 0.956406 0.647731 0.248743
H19   H     H_    0.800910 0.773940 0.710375 0.216037
H20   H     H_    0.787059 0.690807 0.640566 0.213349
H21   H     H_    0.818583 0.234279 0.343519 0.272840
H22   H     H_    0.744672 0.034445 0.358981 0.233938
H23   H     H_    0.068562 0.532904 0.955815 0.197732
H24   H     H_    0.757845 0.102915 0.285750 0.265183
H25   H     H_    0.510511 0.205030 0.386923 0.212858
H26   H     H_    0.450010 0.085354 0.329007 0.199847
H27   H     H_    0.863900 0.256650 0.045189 0.197182
H28   H     H_    0.324234 0.238408 0.779624 0.154413
H29   H     H_    0.416315 0.666044 0.205810 0.154881
H30   H     H_    0.671989 0.643140 0.791807 0.153329
H31   H     H_    0.511338 0.184203 0.226709 0.155898
H32   H     H_    0.702497 0.009396 0.492811 0.182755
N1    N     N_R   0.458629 0.399065 0.149461 -0.348662
N2    N     N_R   0.488209 0.422563 0.851923 -0.350932
N3    N     N_2   0.950330 0.457950 0.484560 -0.173658
N4    N     N_2   0.049670 0.542050 0.515440 -0.176138
O1    O     O_R   0.389250 0.738570 0.503790 -0.610865
O2    O     O_2   0.206948 0.513350 0.855763 -0.538031
O3    O     O_2   0.169903 0.473065 0.155846 -0.531903
O4    O     O_2   0.768010 0.328676 0.844984 -0.545601
O5    O     O_R   0.610750 0.261430 0.496210 -0.607786
O6    O     O_R   0.678390 0.711620 0.493890 -0.628798
O7    O     O_R   0.321610 0.288380 0.506110 -0.630672
O8    O     O_R   0.355400 0.513520 0.588790 -0.611370
O9    O     O_R   0.644600 0.486480 0.411210 -0.606925
O10   O     O_R   0.644550 0.486570 0.578900 -0.631360
O11   O     O_R   0.355450 0.513430 0.421100 -0.620596
O12   O     O_2   0.744017 0.316292 0.145097 -0.538306
Zn1   Zn    Zn3+2 0.306930 0.518000 0.506610 0.931647
Zn2   Zn    Zn3+2 0.693070 0.482000 0.493390 0.934380

loop_
_geom_bond_atom_site_label_1
_geom_bond_atom_site_label_2
_ccdc_geom_bond_type
C27   H8    S    
C24   H12   S    
C30   H11   S    
C10   O9    A    
C34   C37   A    
C1    O1    A    
C32   H18   S    
C33   H25   S    
C7    C8    D    
C28   H7    S    
O1    Zn1   S    
C26   H27   S    
C19   C21   A    
C8    H2    S    
C22   H1    S    
C29   H14   S    
C31   C40   S    
C18   C19   A    
C25   H23   S    
C31   H19   S    
C5    N2    S    
H4    N4    S    
N3    Zn2   S    
C33   C35   S    
C2    C39   A    
C15   O4    S    
C22   C25   A    
C35   H24   S    
N4    Zn1   S    
C30   H10   S    
C32   H17   S    
C33   H26   S    
H3    N3    S    
O7    Zn1   S    
C30   H13   S    
C11   C20   A    
C17   C24   A    
C14   N1    A    
C3    H30   S    
C4    C6    A    
C11   N1    A    
C7    H32   S    
C28   H5    S    
C29   H15   S    
C1    O6    A    
C6    C34   A    
C12   O7    A    
C10   C39   S    
C23   H28   S    
C2    C4    A    
N3    N4    D    
C29   C30   S    
C9    O10   A    
C31   C32   S    
C5    C23   A    
C11   O12   S    
C8    C12   S    
C28   H6    S    
C13   C21   A    
C10   O11   A    
C35   H21   S    
C14   O3    S    
C34   H29   S    
O5    Zn2   S    
C2    C33   S    
C3    C40   A    
O11   Zn1   S    
O10   Zn2   S    
C14   C16   A    
O8    Zn1   S    
C6    N1    S    
C15   C17   A    
C21   C25   A    
C13   O2    S    
C16   C22   A    
C1    C7    S    
C24   C26   A    
C3    C5    A    
O9    Zn2   S    
C27   C36   S    
O6    Zn2   S    
C36   C38   A    
C37   C39   A    
C38   C40   A    
C20   C26   A    
C9    C38   S    
C17   C19   A    
C12   O5    A    
C35   H22   S    
C18   C20   A    
C9    O8    A    
C15   N2    A    
C13   N2    A    
C16   C18   A    
C23   C36   A    
C29   C37   S    
C27   C28   S    
C31   H20   S    
C32   H16   S    
C4    H31   S    
C27   H9    S    
