data_str_m2_o4_o17_f0_pcu.sym.120
_audit_creation_date              2012-12-10T19:00:43-0500
_audit_creation_method            fapswitch 2.2
_symmetry_space_group_name_H-M    P1
_symmetry_Int_Tables_number       1
_space_group_crystal_system       triclinic
_cell_length_a                    14.949123
_cell_length_b                    10.991311
_cell_length_c                    9.659519
_cell_angle_alpha                 89.108156
_cell_angle_beta                  87.527522
_cell_angle_gamma                 90.27524
_cell_volume                      1585.46655029

loop_
_atom_site_label
_atom_site_type_symbol
_atom_type_description
_atom_site_fract_x
_atom_site_fract_y
_atom_site_fract_z
_atom_type_partial_charge
C1    C     C_R   0.499499 0.262747 0.500656 0.802003
C2    C     C_R   0.907224 0.609033 0.451354 0.087146
C3    C     C_R   0.951502 0.288362 0.554639 0.410639
C4    C     C_R   0.042640 0.293389 0.585699 0.044601
C5    C     C_R   0.091577 0.400919 0.549584 0.032508
C6    C     C_R   0.046929 0.504814 0.497227 -0.007109
C7    C     C_R   0.095991 0.608606 0.447818 0.097458
C8    C     C_R   0.050534 0.711815 0.395747 0.111985
C9    C     C_R   0.955428 0.715414 0.411210 0.053053
C10   C     C_R   0.184887 0.404271 0.554630 -0.114725
C11   C     C_R   0.232746 0.505575 0.506636 -0.015321
C12   C     C_R   0.329275 0.502379 0.502311 0.824102
C13   C     C_R   0.189691 0.606541 0.453581 -0.228982
C14   C     C_R   0.526457 0.060084 0.611576 0.015729
C15   C     C_R   0.499207 0.129515 0.499141 -0.062706
C16   C     C_R   0.471042 0.068434 0.381595 -0.194523
C17   C     C_R   0.463723 0.940666 0.379992 0.130551
C18   C     C_R   0.490025 0.871158 0.497138 -0.052006
C19   C     C_R   0.519125 0.934396 0.611809 -0.025684
C20   C     C_3   0.486170 0.930844 0.761065 0.303732
C21   C     C_3   0.498677 0.068115 0.761231 -0.437707
C22   C     C_R   0.578703 0.503279 0.067513 0.062523
C23   C     C_R   0.494809 0.737230 0.499210 0.802890
C24   C     C_R   0.424755 0.477988 0.081733 -0.117134
C25   C     C_R   0.425245 0.466878 0.935952 0.461103
C26   C     C_R   0.577844 0.517073 0.920927 0.097564
C27   C     C_3   0.633844 0.631516 0.936445 0.265645
C28   C     C_3   0.655270 0.587472 0.082595 -0.166163
C29   C     C_R   0.670663 0.499260 0.497261 0.834003
C30   C     C_R   0.813354 0.603981 0.447797 -0.134197
C31   C     C_R   0.767031 0.499572 0.490953 -0.017455
C32   C     C_R   0.812139 0.396998 0.533501 -0.096245
C33   C     C_R   0.905484 0.395995 0.528326 -0.006646
C34   C     C_R   0.953351 0.503765 0.493095 -0.027883
Cu1   Cu    Cu3+1 0.500000 0.499980 0.640670 1.090004
Cu2   Cu    Cu3+1 0.500000 0.500020 0.359330 0.945554
H1    H     H_    0.774611 0.679673 0.410753 0.138287
H2    H     H_    0.532257 0.882138 0.829347 0.064342
H3    H     H_    0.436054 0.120071 0.779168 0.284331
H4    H     H_    0.554917 0.097604 0.824687 0.158698
H5    H     H_    0.363669 0.461488 0.142496 0.197611
H6    H     H_    0.589644 0.712480 0.941479 0.042174
H7    H     H_    0.773930 0.318532 0.572022 0.169798
H8    H     H_    0.644123 0.655831 0.164862 0.163185
H9    H     H_    0.222426 0.326895 0.589376 0.179236
H10   H     H_    0.231119 0.682847 0.418967 0.138232
H11   H     H_    0.449497 0.120537 0.292934 0.175682
N1    N     N_R   0.500570 0.500930 0.147930 -0.212820
N2    N     N_R   0.500570 0.500890 0.852020 -0.247286
O1    O     O_R   0.500000 0.319640 0.618810 -0.553863
O2    O     O_R   0.500010 0.319680 0.381230 -0.585508
O3    O     O_R   0.370250 0.499950 0.618800 -0.464719
O4    O     O_R   0.370260 0.499990 0.381220 -0.619444
O5    O     O_R   0.499990 0.680320 0.618770 -0.525997
O6    O     O_R   0.500000 0.680360 0.381190 -0.603090
O7    O     O_R   0.629740 0.500010 0.618780 -0.511218
O8    O     O_R   0.629750 0.500050 0.381200 -0.615071
C35   C     C_3   0.418799 0.885309 0.258173 -0.344483
C36   C     C_3   0.485867 0.867346 0.136981 -0.745324
H12   H     H_    0.547599 0.823348 0.172188 0.232763
H13   H     H_    0.455614 0.808458 0.059156 0.266335
H14   H     H_    0.504179 0.956568 0.087832 0.243454
H15   H     H_    0.384372 0.798451 0.287322 0.207459
H16   H     H_    0.364480 0.946007 0.223649 0.223958
S1    S     S_3+6 0.370236 0.887482 0.787394 -0.018629
O9    O     O_2   0.362748 0.751632 0.803670 -0.296586
O10   O     O_2   0.332223 0.945757 0.916649 -0.298257
O11   O     O_3   0.311577 0.934050 0.651703 -0.543318
H17   H     H_    0.250196 0.902009 0.671130 0.367388
S2    S     S_3+6 0.326555 0.395170 0.880254 -0.009159
O12   O     O_2   0.346214 0.308642 0.764695 -0.291843
O13   O     O_2   0.282626 0.322532 0.997980 -0.332691
O14   O     O_3   0.253606 0.502105 0.831736 -0.513718
H18   H     H_    0.239479 0.548959 0.916618 0.352532
S3    S     S_3+6 0.727156 0.665231 0.819030 -0.000799
O15   O     O_2   0.786986 0.756696 0.883733 -0.304214
O16   O     O_2   0.780050 0.552951 0.785798 -0.294394
O17   O     O_3   0.689943 0.727952 0.672663 -0.549713
H19   H     H_    0.682939 0.815604 0.692352 0.342777
C37   C     C_3   0.739681 0.505794 0.097589 -0.284181
C38   C     C_3   0.827064 0.575340 0.112986 -0.698778
H20   H     H_    0.862790 0.591060 0.011544 0.303883
H21   H     H_    0.813832 0.663015 0.163080 0.244238
H22   H     H_    0.872638 0.520965 0.177038 0.223282
H23   H     H_    0.729577 0.446162 0.190535 0.218828
H24   H     H_    0.748138 0.442001 0.009899 0.228998
S4    S     S_3+6 0.909148 0.151780 0.489612 -0.077849
O18   O     O_2   0.984162 0.100539 0.400381 -0.351393
O19   O     O_2   0.883956 0.066193 0.608078 -0.344965
O20   O     O_3   0.820453 0.173312 0.390431 -0.561177
H25   H     H_    0.784949 0.097095 0.400023 0.365857
C39   C     C_3   0.086995 0.183116 0.651840 -0.388302
C40   C     C_3   0.108091 0.207419 0.802248 -0.683322
H26   H     H_    0.148722 0.291160 0.810797 0.309897
H27   H     H_    0.044870 0.218168 0.865519 0.247149
H28   H     H_    0.145827 0.129558 0.844841 0.274600
H29   H     H_    0.043664 0.101316 0.654776 0.270806
H30   H     H_    0.148079 0.156239 0.590708 0.215175
C41   C     C_3   0.103104 0.816232 0.322760 -0.413669
C42   C     C_3   0.142708 0.777831 0.181382 -0.772485
H31   H     H_    0.189264 0.700194 0.190364 0.246267
H32   H     H_    0.088142 0.751296 0.113223 0.258669
H33   H     H_    0.180324 0.855398 0.131598 0.273818
H34   H     H_    0.061732 0.896748 0.301821 0.261168
H35   H     H_    0.156233 0.850459 0.389104 0.203282
C43   C     C_3   0.907203 0.835874 0.405358 -0.335922
C44   C     C_3   0.883706 0.874496 0.258192 -0.773206
H36   H     H_    0.926862 0.828986 0.178341 0.261359
H37   H     H_    0.812447 0.853106 0.241439 0.225407
H38   H     H_    0.892004 0.974004 0.243260 0.306946
H39   H     H_    0.846452 0.838096 0.475449 0.232951
H40   H     H_    0.950537 0.901894 0.453719 0.278266

loop_
_geom_bond_atom_site_label_1
_geom_bond_atom_site_label_2
_ccdc_geom_bond_type
C22   N1    A    
S4    O18   D    
C40   H26   S    
O14   H18   S    
C19   C20   S    
C38   H20   S    
C39   H30   S    
C7    C8    A    
C43   H40   S    
C26   C27   S    
C14   C21   S    
C8    C41   S    
C5    C6    A    
C43   C44   S    
C3    C33   A    
C15   C16   A    
C20   H2    S    
C18   C19   A    
C42   H31   S    
C37   H24   S    
Cu2   O4    S    
C12   O3    A    
O11   H17   S    
Cu1   Cu2   S    
C16   C17   A    
S1    O10   D    
Cu1   N2    S    
C44   H36   S    
S2    O12   D    
C1    C15   S    
C1    O1    A    
C12   O4    A    
C17   C35   S    
C2    C34   A    
C41   H34   S    
C36   H12   S    
C40   H27   S    
C22   C28   S    
Cu1   O5    S    
C24   H5    S    
C44   H37   S    
Cu1   O1    S    
C27   S3    S    
C16   H11   S    
C38   H21   S    
C39   H29   S    
C17   C18   A    
C43   H39   S    
C35   H16   S    
C41   H35   S    
C36   H13   S    
C3    S4    S    
C18   C23   S    
C24   N1    A    
C20   S1    S    
C24   C25   A    
Cu2   O8    S    
C26   N2    A    
O17   H19   S    
C8    C9    A    
C9    C43   S    
C28   H8    S    
C42   H33   S    
C6    C34   A    
C30   H1    S    
S3    O15   D    
C37   H23   S    
S3    O16   D    
C41   C42   S    
C21   H3    S    
C7    C13   A    
S1    O11   S    
S2    O14   S    
C42   H32   S    
C33   C34   A    
C1    O2    A    
Cu2   O2    S    
C29   O8    A    
C40   H28   S    
S4    O19   D    
C44   H38   S    
S4    O20   S    
C3    C4    A    
Cu1   O3    S    
C38   H22   S    
C23   O5    A    
C35   H15   S    
C36   H14   S    
Cu1   O7    S    
C14   C15   A    
C14   C19   A    
C31   C32   A    
C37   C38   S    
C11   C12   S    
C23   O6    A    
C6    C7    A    
C29   O7    A    
C2    C30   A    
C32   C33   A    
C35   C36   S    
C5    C10   A    
C29   C31   S    
Cu2   O6    S    
C11   C13   A    
C27   H6    S    
O20   H25   S    
C30   C31   A    
C21   H4    S    
C39   C40   S    
C32   H7    S    
Cu2   N1    S    
C28   C37   S    
S3    O17   S    
C25   N2    A    
C10   C11   A    
C4    C5    A    
C20   C21   S    
S1    O9    D    
C22   C26   A    
C10   H9    S    
C27   C28   S    
C13   H10   S    
S2    O13   D    
C25   S2    S    
C2    C9    A    
C4    C39   S    
