data_str_m4_o4_o15_f0_acs.sym.118
_audit_creation_date              2012-12-11T15:44:47-0500
_audit_creation_method            fapswitch 2.2
_symmetry_space_group_name_H-M    P1
_symmetry_Int_Tables_number       1
_space_group_crystal_system       triclinic
_cell_length_a                    19.149191
_cell_length_b                    11.076795
_cell_length_c                    18.710787
_cell_angle_alpha                 90.320877
_cell_angle_beta                  90.411991
_cell_angle_gamma                 90.077333
_cell_volume                      3968.60747636

loop_
_atom_site_label
_atom_site_type_symbol
_atom_type_description
_atom_site_fract_x
_atom_site_fract_y
_atom_site_fract_z
_atom_type_partial_charge
C1    C     C_R   0.760353 0.535164 0.647644 0.557384
C2    C     C_R   0.238870 0.529928 0.354996 0.585900
C3    C     C_R   0.260353 0.035165 0.647644 0.557353
C4    C     C_R   0.738867 0.029920 0.355000 0.585909
C5    C     C_R   0.833624 0.103226 0.523295 -0.090970
C6    C     C_R   0.168065 0.127855 0.482272 -0.177518
C7    C     C_R   0.333617 0.603206 0.523297 -0.091017
C8    C     C_R   0.668065 0.627839 0.482269 -0.177562
C9    C     C_R   0.820475 0.063752 0.454736 -0.099853
C10   C     C_R   0.179462 0.103589 0.554337 -0.179949
C11   C     C_R   0.320473 0.563747 0.454734 -0.099879
C12   C     C_R   0.679461 0.603575 0.554334 -0.180020
C13   C     C_3   0.711601 0.302090 0.426155 0.106738
C14   C     C_3   0.360455 0.206029 0.546683 0.118419
C15   C     C_3   0.211620 0.802112 0.426168 0.106715
C16   C     C_3   0.860450 0.706053 0.546687 0.118360
C17   C     C_3   0.715871 0.337182 0.504162 -0.251400
C18   C     C_3   0.346716 0.242927 0.469498 -0.235022
C19   C     C_3   0.215862 0.837174 0.504180 -0.251404
C20   C     C_3   0.846709 0.742955 0.469503 -0.235039
C21   C     C_R   0.782379 0.162524 0.561806 0.024288
C22   C     C_R   0.223768 0.151284 0.437036 0.034840
C23   C     C_R   0.282369 0.662501 0.561808 0.024286
C24   C     C_R   0.723768 0.651284 0.437036 0.034840
C25   C     C_R   0.004841 0.345163 0.429625 0.013040
C26   C     C_R   0.011628 0.332229 0.580355 -0.039200
C27   C     C_R   0.504851 0.845163 0.429629 0.013232
C28   C     C_R   0.511634 0.832227 0.580359 -0.039190
C29   C     C_R   0.983461 0.124874 0.425241 -0.099417
C30   C     C_R   0.010541 0.110443 0.571182 -0.096950
C31   C     C_R   0.483464 0.624875 0.425245 -0.099440
C32   C     C_R   0.510542 0.610441 0.571185 -0.096948
C33   C     C_R   0.992575 0.012632 0.457027 -0.159194
C34   C     C_R   0.009010 0.005653 0.529297 -0.116503
C35   C     C_R   0.492575 0.512632 0.457030 -0.159200
C36   C     C_R   0.509010 0.505652 0.529300 -0.116497
C37   C     C_R   0.004705 0.225269 0.539359 -0.022761
C38   C     C_R   0.996601 0.232456 0.464138 -0.024505
C39   C     C_R   0.504711 0.725268 0.539363 -0.022787
C40   C     C_R   0.496610 0.732455 0.464141 -0.024500
C41   C     C_R   0.029804 0.439418 0.545917 0.003957
C42   C     C_R   0.014560 0.451684 0.472748 0.027872
C43   C     C_R   0.529813 0.939415 0.545922 0.003936
C44   C     C_R   0.514573 0.951684 0.472753 0.027981
C45   C     C_R   0.792048 0.174015 0.639313 0.575702
C46   C     C_R   0.209478 0.171076 0.361407 0.584179
C47   C     C_R   0.292046 0.674009 0.639312 0.575663
C48   C     C_R   0.709481 0.671070 0.361407 0.584179
C49   C     C_R   0.058320 0.537820 0.584712 -0.061723
C50   C     C_R   0.011286 0.571114 0.445775 -0.067354
C51   C     C_R   0.558329 0.037816 0.584720 -0.061737
C52   C     C_R   0.511301 0.071114 0.445781 -0.067335
C53   C     C_R   0.062526 0.651432 0.554082 -0.108721
C54   C     C_R   0.037353 0.668599 0.485168 -0.158651
C55   C     C_R   0.562536 0.151430 0.554091 -0.108721
C56   C     C_R   0.537366 0.168599 0.485177 -0.158677
C57   C     C_R   0.742268 0.050814 0.069433 0.020025
C58   C     C_R   0.254692 0.059093 0.928460 0.019488
C59   C     C_R   0.242268 0.550814 0.069433 0.020025
C60   C     C_R   0.754692 0.559092 0.928460 0.019488
C61   C     C_R   0.793878 0.990964 0.031075 0.028002
C62   C     C_R   0.215865 0.979553 0.970172 0.041945
C63   C     C_R   0.293878 0.490963 0.031075 0.028007
C64   C     C_R   0.715865 0.479553 0.970172 0.041940
C65   C     C_R   0.798335 0.001228 0.958274 0.027930
C66   C     C_R   0.214085 0.989047 0.043291 0.027979
C67   C     C_R   0.298334 0.501228 0.958273 0.027927
C68   C     C_R   0.714085 0.489047 0.043291 0.027990
C69   C     C_R   0.691128 0.114160 0.956007 -0.154858
C70   C     C_R   0.297536 0.152071 0.037720 -0.168919
C71   C     C_R   0.191128 0.614161 0.956007 -0.154857
C72   C     C_R   0.797536 0.652071 0.037720 -0.168924
C73   C     C_R   0.687118 0.104216 0.030723 -0.151911
C74   C     C_R   0.299415 0.141063 0.963166 -0.173666
C75   C     C_R   0.187118 0.604216 0.030723 -0.151911
C76   C     C_R   0.799415 0.641063 0.963166 -0.173666
C77   C     C_3   0.871003 0.992596 0.042071 -0.278188
C78   C     C_3   0.140544 0.946203 0.964552 -0.267342
C79   C     C_3   0.371003 0.492594 0.042070 -0.278187
C80   C     C_3   0.640544 0.446202 0.964552 -0.267347
C81   C     C_3   0.876528 0.004166 0.961935 -0.267292
C82   C     C_3   0.138831 0.952028 0.045227 -0.268983
C83   C     C_3   0.376528 0.504163 0.961935 -0.267292
C84   C     C_3   0.638831 0.452028 0.045227 -0.268978
C85   C     C_R   0.750962 0.073228 0.920282 0.019842
C86   C     C_R   0.250204 0.082265 0.077884 0.020576
C87   C     C_R   0.250962 0.573228 0.920282 0.019838
C88   C     C_R   0.750204 0.582265 0.077884 0.020580
C89   C     C_R   0.973639 0.344699 0.648762 0.511552
C90   C     C_R   0.029752 0.347520 0.354283 0.566913
C91   C     C_R   0.473640 0.844699 0.648763 0.511581
C92   C     C_R   0.529755 0.847520 0.354285 0.566899
C93   C     C_R   0.017031 0.341590 0.069229 0.022617
C94   C     C_R   0.007959 0.341894 0.920198 0.020824
C95   C     C_R   0.517030 0.841590 0.069229 0.022614
C96   C     C_R   0.507959 0.841894 0.920198 0.020827
C97   C     C_R   0.025326 0.448018 0.030887 0.038935
C98   C     C_R   0.021397 0.449109 0.957941 0.027667
C99   C     C_R   0.525326 0.948018 0.030887 0.038934
C100  C     C_R   0.521397 0.949109 0.957941 0.027669
C101  C     C_R   0.013428 0.231801 0.956698 -0.170334
C102  C     C_R   0.015917 0.231696 0.031436 -0.167708
C103  C     C_R   0.513428 0.731801 0.956698 -0.170332
C104  C     C_R   0.515917 0.731696 0.031436 -0.167710
C105  C     C_3   0.988515 0.565611 0.039468 -0.276361
C106  C     C_3   0.984395 0.568782 0.958921 -0.267119
C107  C     C_3   0.488515 0.065611 0.039468 -0.276361
C108  C     C_3   0.484395 0.068782 0.958921 -0.267119
C109  C     C_R   0.761190 0.529628 0.853236 0.553775
C110  C     C_R   0.237584 0.525600 0.145421 0.569073
C111  C     C_R   0.261190 0.029628 0.853236 0.553766
C112  C     C_R   0.737584 0.025600 0.145421 0.569092
C113  C     C_R   0.772122 0.124514 0.852193 0.559834
C114  C     C_R   0.227756 0.125940 0.147289 0.584850
C115  C     C_R   0.272122 0.624513 0.852193 0.559820
C116  C     C_R   0.727756 0.625940 0.147289 0.584879
C117  C     C_R   0.971290 0.347410 0.852479 0.539365
C118  C     C_R   0.032620 0.346940 0.144785 0.560993
C119  C     C_R   0.471290 0.847410 0.852479 0.539367
C120  C     C_R   0.532619 0.846941 0.144785 0.560989
C121  C     C_R   0.756420 0.088280 0.421911 0.071817
C122  C     C_R   0.247071 0.097071 0.581542 0.020972
C123  C     C_R   0.256423 0.588291 0.421905 0.071841
C124  C     C_R   0.747070 0.597070 0.581542 0.020919
C125  C     C_R   0.713866 0.174777 0.451931 0.000832
C126  C     C_R   0.302900 0.118154 0.536428 0.014206
C127  C     C_R   0.213868 0.674787 0.451927 0.000841
C128  C     C_R   0.802899 0.618172 0.536431 0.014084
C129  C     C_R   0.723905 0.207731 0.524187 -0.029560
C130  C     C_R   0.291783 0.147097 0.465341 0.079116
C131  C     C_R   0.223898 0.707717 0.524188 -0.029552
C132  C     C_R   0.791781 0.647119 0.465346 0.079084
Cr1   Cr    Cr6+3 0.885860 0.491680 0.749630 1.061464
Cr2   Cr    Cr6+3 0.114140 0.491680 0.250370 1.025623
Cr3   Cr    Cr6+3 0.385860 0.991680 0.749630 1.061478
Cr4   Cr    Cr6+3 0.614140 0.991680 0.250370 1.025634
Cr5   Cr    Cr6+3 0.730490 0.332970 0.748720 1.007108
Cr6   Cr    Cr6+3 0.269510 0.332970 0.251280 1.030082
Cr7   Cr    Cr6+3 0.230490 0.832970 0.748720 1.007101
Cr8   Cr    Cr6+3 0.769510 0.832970 0.251280 1.030089
Cr9   Cr    Cr6+3 0.887570 0.179310 0.750150 1.052349
Cr10  Cr    Cr6+3 0.112430 0.179310 0.249850 1.021444
Cr11  Cr    Cr6+3 0.387570 0.679310 0.750150 1.052336
Cr12  Cr    Cr6+3 0.612430 0.679310 0.249850 1.021469
H1    H     H_    0.881581 0.079589 0.548286 0.206457
H2    H     H_    0.116396 0.125714 0.460718 0.158380
H3    H     H_    0.381576 0.579577 0.548287 0.206470
H4    H     H_    0.616398 0.625682 0.460713 0.158390
H5    H     H_    0.082991 0.726795 0.584763 0.125112
H6    H     H_    0.037949 0.757473 0.462055 0.093053
H7    H     H_    0.583000 0.226791 0.584774 0.125124
H8    H     H_    0.537961 0.257475 0.462065 0.093049
H9    H     H_    0.650335 0.160416 0.927062 0.118909
H10   H     H_    0.328408 0.222369 0.062863 0.137426
H11   H     H_    0.150335 0.660416 0.927062 0.118909
H12   H     H_    0.828408 0.722369 0.062863 0.137426
H13   H     H_    0.642527 0.141184 0.058140 0.125415
H14   H     H_    0.333668 0.199013 0.932819 0.129780
H15   H     H_    0.142528 0.641184 0.058140 0.125414
H16   H     H_    0.833668 0.699013 0.932819 0.129783
H17   H     H_    0.891610 0.905627 0.062489 0.133650
H18   H     H_    0.132033 0.854518 0.942751 0.138817
H19   H     H_    0.391609 0.405626 0.062489 0.133650
H20   H     H_    0.632033 0.354518 0.942751 0.138817
H21   H     H_    0.889142 0.074177 0.071754 0.146777
H22   H     H_    0.108932 0.017607 0.938384 0.137277
H23   H     H_    0.389142 0.574175 0.071753 0.146773
H24   H     H_    0.608932 0.517606 0.938384 0.137278
H25   H     H_    0.897451 0.092932 0.945815 0.165298
H26   H     H_    0.103566 0.023168 0.065128 0.158654
H27   H     H_    0.397452 0.592929 0.945814 0.165300
H28   H     H_    0.603566 0.523168 0.065128 0.158650
H29   H     H_    0.900688 0.924262 0.935792 0.137394
H30   H     H_    0.131654 0.862394 0.070485 0.132872
H31   H     H_    0.400688 0.424259 0.935792 0.137392
H32   H     H_    0.631655 0.362394 0.070485 0.132881
H33   H     H_    0.008533 0.146926 0.928294 0.118474
H34   H     H_    0.013895 0.146954 0.059520 0.118764
H35   H     H_    0.508533 0.646926 0.928294 0.118475
H36   H     H_    0.513895 0.646954 0.059520 0.118764
H37   H     H_    0.022242 0.637597 0.062601 0.132732
H38   H     H_    0.929882 0.563446 0.939141 0.173104
H39   H     H_    0.522242 0.137597 0.062601 0.132733
H40   H     H_    0.429882 0.063445 0.939141 0.173104
H41   H     H_    0.936802 0.555514 0.065417 0.149141
H42   H     H_    0.016304 0.642120 0.935270 0.126391
H43   H     H_    0.436802 0.055514 0.065418 0.149139
H44   H     H_    0.516304 0.142120 0.935270 0.126392
H45   H     H_    0.859367 0.010018 0.428236 0.137615
H46   H     H_    0.136957 0.080042 0.588429 0.139492
H47   H     H_    0.359366 0.510014 0.428235 0.137619
H48   H     H_    0.636957 0.580014 0.588423 0.139516
H49   H     H_    0.160805 0.825087 0.400651 0.119620
H50   H     H_    0.911131 0.660179 0.555583 0.139689
H51   H     H_    0.660773 0.325041 0.400659 0.119599
H52   H     H_    0.411135 0.160152 0.555581 0.139694
H53   H     H_    0.762448 0.389536 0.519775 0.156995
H54   H     H_    0.322638 0.332302 0.463366 0.166748
H55   H     H_    0.262431 0.889528 0.519814 0.157054
H56   H     H_    0.822624 0.832324 0.463373 0.166714
H57   H     H_    0.665745 0.372854 0.524794 0.118684
H58   H     H_    0.391004 0.224475 0.433198 0.108828
H59   H     H_    0.165729 0.872836 0.524800 0.118662
H60   H     H_    0.890998 0.724512 0.433202 0.108849
H61   H     H_    0.985831 0.931503 0.425377 0.103505
H62   H     H_    0.018323 0.918818 0.553554 0.149265
H63   H     H_    0.485829 0.431503 0.425380 0.103512
H64   H     H_    0.518323 0.418817 0.553557 0.149274
H65   H     H_    0.966901 0.126131 0.369896 0.168220
H66   H     H_    0.022002 0.100849 0.627562 0.147884
H67   H     H_    0.466904 0.626133 0.369900 0.168225
H68   H     H_    0.522002 0.600847 0.627565 0.147886
H69   H     H_    0.987102 0.591757 0.394988 0.163237
H70   H     H_    0.076039 0.527061 0.639437 0.138324
H71   H     H_    0.487119 0.091762 0.394994 0.163224
H72   H     H_    0.576045 0.027055 0.639445 0.138345
O1    O     O_R   0.957020 0.451640 0.669920 -0.513088
O2    O     O_R   0.042980 0.451640 0.330080 -0.520939
O3    O     O_R   0.457020 0.951640 0.669920 -0.513076
O4    O     O_R   0.542980 0.951640 0.330080 -0.520960
O5    O     O_R   0.736470 0.210100 0.823360 -0.505931
O6    O     O_R   0.263530 0.210100 0.176640 -0.502385
O7    O     O_R   0.236470 0.710100 0.823360 -0.505931
O8    O     O_R   0.763530 0.710100 0.176640 -0.502389
O9    O     O_R   0.831960 0.093290 0.830130 -0.504871
O10   O     O_R   0.168040 0.093290 0.169870 -0.511540
O11   O     O_R   0.331960 0.593290 0.830130 -0.504876
O12   O     O_R   0.668040 0.593290 0.169870 -0.511514
O13   O     O_R   0.945600 0.250580 0.824860 -0.515026
O14   O     O_R   0.054400 0.250580 0.175140 -0.508819
O15   O     O_R   0.445600 0.750580 0.824860 -0.515025
O16   O     O_R   0.554400 0.750580 0.175140 -0.508821
O17   O     O_3   0.834640 0.334650 0.749500 -0.294641
O18   O     O_3   0.165360 0.334650 0.250500 -0.294717
O19   O     O_3   0.334640 0.834650 0.749500 -0.294626
O20   O     O_3   0.665360 0.834650 0.250500 -0.294730
O21   O     O_R   0.821450 0.543440 0.674610 -0.450005
O22   O     O_R   0.178550 0.543440 0.325390 -0.497138
O23   O     O_R   0.321450 0.043440 0.674610 -0.449993
O24   O     O_R   0.678550 0.043440 0.325390 -0.497130
O25   O     O_R   0.715320 0.458650 0.668100 -0.550044
O26   O     O_R   0.284680 0.458650 0.331900 -0.540570
O27   O     O_R   0.215320 0.958650 0.668100 -0.550049
O28   O     O_R   0.784680 0.958650 0.331900 -0.540559
O29   O     O_R   0.737170 0.209590 0.674530 -0.503541
O30   O     O_R   0.262830 0.209590 0.325470 -0.474031
O31   O     O_R   0.237170 0.709590 0.674530 -0.503554
O32   O     O_R   0.762830 0.709590 0.325470 -0.474038
O33   O     O_R   0.832710 0.092740 0.669580 -0.402719
O34   O     O_R   0.167290 0.092740 0.330420 -0.473498
O35   O     O_R   0.332710 0.592740 0.669580 -0.402776
O36   O     O_R   0.667290 0.592740 0.330420 -0.473446
O37   O     O_R   0.946290 0.250060 0.676040 -0.530933
O38   O     O_R   0.053710 0.250060 0.323960 -0.532061
O39   O     O_R   0.446290 0.750060 0.676040 -0.530928
O40   O     O_R   0.553710 0.750060 0.323960 -0.532075
O41   O     O_R   0.956270 0.452200 0.830470 -0.523825
O42   O     O_R   0.043730 0.452200 0.169530 -0.513563
O43   O     O_R   0.456270 0.952200 0.830470 -0.523826
O44   O     O_R   0.543730 0.952200 0.169530 -0.513562
O45   O     O_R   0.820760 0.543950 0.823440 -0.490493
O46   O     O_R   0.179240 0.543950 0.176560 -0.500765
O47   O     O_R   0.320760 0.043950 0.823440 -0.490496
O48   O     O_R   0.679240 0.043950 0.176560 -0.500752
O49   O     O_R   0.714570 0.459210 0.828640 -0.520130
O50   O     O_R   0.285430 0.459210 0.171360 -0.513682
O51   O     O_R   0.214570 0.959210 0.828640 -0.520130
O52   O     O_R   0.785430 0.959210 0.171360 -0.513678
S1    S     S_3+6 0.787866 0.348070 0.373837 -0.000059
O53   O     O_2   0.820858 0.245552 0.333579 -0.296952
O54   O     O_2   0.766284 0.438469 0.318912 -0.204800
O55   O     O_3   0.849603 0.410615 0.426384 -0.543589
H73   H     H_    0.864177 0.345158 0.459010 0.326981
S2    S     S_3+6 0.341872 0.320863 0.612123 -0.009894
O56   O     O_2   0.331893 0.270769 0.685682 -0.264354
O57   O     O_2   0.403185 0.404149 0.616293 -0.302123
O58   O     O_3   0.269081 0.395790 0.588219 -0.533619
H74   H     H_    0.229922 0.350494 0.609638 0.347835
S3    S     S_3+6 0.287915 0.848086 0.373900 -0.000139
O59   O     O_2   0.320857 0.745604 0.333571 -0.296907
O60   O     O_2   0.266408 0.938643 0.319053 -0.204805
O61   O     O_3   0.349666 0.910408 0.426511 -0.543681
H75   H     H_    0.364170 0.844870 0.459104 0.327017
S4    S     S_3+6 0.841868 0.820879 0.612131 -0.009858
O62   O     O_2   0.831885 0.770778 0.685689 -0.264278
O63   O     O_2   0.903185 0.904160 0.616304 -0.302116
O64   O     O_3   0.769080 0.895821 0.588232 -0.533569
H76   H     H_    0.729907 0.850408 0.609536 0.347772

loop_
_geom_bond_atom_site_label_1
_geom_bond_atom_site_label_2
_ccdc_geom_bond_type
Cr9   O33   S    
Cr7   O31   S    
C47   O31   A    
C2    C123  S    
O61   H75   S    
Cr11  O35   S    
C116  O12   A    
S4    O62   D    
C6    H2    S    
C94   C117  S    
C95   C99   A    
C29   C33   A    
S2    O56   D    
C46   O34   A    
C82   H30   S    
O55   H73   S    
C83   H27   S    
C70   C74   A    
C9    C121  A    
C17   H53   S    
C81   H25   S    
C112  O52   A    
C7    H3    S    
C119  O15   A    
C97   C105  S    
C15   C127  S    
C22   C130  A    
Cr9   O9    S    
Cr2   O22   S    
C20   C132  S    
C9    H45   S    
C41   C49   A    
C12   H48   S    
C108  H40   S    
C23   C47   S    
C106  H42   S    
C62   C66   A    
C120  O44   A    
C60   C76   A    
C52   H71   S    
Cr8   O28   S    
C48   O36   A    
C43   C44   A    
C115  O11   A    
C37   C38   A    
Cr6   O30   S    
C66   C82   S    
C78   C82   S    
C113  O9    A    
C16   C20   S    
C19   H59   S    
Cr4   O44   S    
C17   H57   S    
C113  O5    A    
C112  O48   A    
S1    O54   D    
C125  C129  A    
Cr7   O19   S    
C18   C130  S    
Cr7   O7    S    
Cr7   O51   S    
C93   C102  A    
C108  H44   S    
S4    O64   S    
Cr11  O11   S    
C10   C122  A    
C14   C126  S    
C55   H7    S    
Cr3   O47   S    
C118  O42   A    
C59   C63   A    
C98   C106  S    
C60   C64   A    
C1    C124  S    
C111  O51   A    
C48   O32   A    
C91   O39   A    
C49   C53   A    
C51   C55   A    
S3    O60   D    
C127  C131  A    
C61   C65   A    
C5    C21   A    
Cr9   O17   S    
C126  C130  A    
C107  H43   S    
C79   H23   S    
C80   H24   S    
C51   H72   S    
C88   C116  S    
C72   H12   S    
C120  O16   A    
C97   C98   A    
C54   H6    S    
C53   C54   A    
Cr1   O45   S    
C33   H61   S    
C25   C90   S    
C64   C68   A    
Cr10  O14   S    
Cr6   O6    S    
C77   H21   S    
C73   H13   S    
C36   H64   S    
C57   C73   A    
C20   H56   S    
C60   C109  S    
C45   O33   A    
C27   C44   A    
C61   C77   S    
C29   C38   A    
C107  C108  S    
Cr7   O27   S    
C47   O35   A    
C44   C52   A    
C90   O38   A    
Cr11  O39   S    
O58   H74   S    
C53   H5    S    
Cr1   O21   S    
C21   C45   S    
C100  C108  S    
C5    H1    S    
C30   C34   A    
C24   C48   S    
C46   O30   A    
C109  O49   A    
C39   C40   A    
Cr8   O8    S    
C50   H69   S    
C1    O21   A    
C81   H29   S    
C121  C125  A    
C13   S1    S    
C25   C38   A    
Cr5   O29   S    
C14   S2    S    
C123  C127  A    
C27   C40   A    
C8    C12   A    
Cr2   O18   S    
C23   C131  A    
C2    O26   A    
C21   C129  A    
C42   C50   A    
S4    O63   D    
C102  H34   S    
C96   C103  A    
C93   C97   A    
C69   C85   A    
C58   C74   A    
Cr8   O32   S    
C87   C115  S    
C62   C78   S    
C84   H28   S    
C66   C86   A    
C29   H65   S    
Cr3   O43   S    
Cr10  O38   S    
C13   C17   S    
C85   C113  S    
Cr5   O25   S    
C7    C23   A    
C96   C100  A    
C117  O13   A    
C8    C24   A    
C28   C91   S    
C11   H47   S    
C90   O2    A    
C16   H50   S    
C105  H37   S    
C4    O28   A    
C58   C62   A    
C119  O43   A    
C55   C56   A    
C101  C102  A    
S2    O58   S    
C41   C42   A    
C96   C119  S    
C35   C36   A    
C80   C84   S    
C15   C19   S    
Cr12  O40   S    
C5    C9    A    
C50   C54   A    
C115  O7    A    
C94   C98   A    
Cr9   O13   S    
C6    C22   A    
Cr5   O5    S    
C31   C40   A    
C32   C39   A    
C80   H20   S    
C18   H54   S    
S3    O59   D    
Cr8   O52   S    
C69   C73   A    
C56   H8    S    
C124  C128  A    
Cr1   O41   S    
S1    O53   D    
C64   C80   S    
C8    H4    S    
Cr10  O10   S    
C77   H17   S    
C78   H22   S    
C74   H14   S    
C58   C111  S    
C68   C84   S    
C20   H60   S    
C45   O29   A    
Cr12  O20   S    
C28   C39   A    
Cr2   O2    S    
C49   H70   S    
C69   H9    S    
C30   C37   A    
C116  O8    A    
C114  O10   A    
C24   C132  A    
C65   C81   S    
O64   H76   S    
C77   C81   S    
C71   H11   S    
C4    O24   A    
C18   H58   S    
Cr1   O17   S    
C114  O6    A    
C71   C87   A    
C92   O40   A    
C35   H63   S    
C22   C46   S    
C31   C35   A    
Cr6   O18   S    
C109  O45   A    
C32   C36   A    
C110  O50   A    
C19   H55   S    
Cr12  O16   S    
C11   C123  A    
C25   C42   A    
C6    C10   A    
C26   C37   A    
Cr4   O4    S    
C95   C120  S    
C99   C107  S    
C105  C106  S    
C28   C43   A    
Cr9   O37   S    
C79   C83   S    
C43   C51   A    
C15   S3    S    
C4    C121  S    
C103  H35   S    
C101  H33   S    
C15   H49   S    
C13   H51   S    
S1    O55   S    
C103  C104  A    
Cr8   O20   S    
C84   H32   S    
C13   C125  S    
C3    O23   A    
C82   H26   S    
C16   S4    S    
Cr10  O34   S    
C83   H31   S    
Cr4   O48   S    
C14   C18   S    
C72   C76   A    
C63   C79   S    
C34   H62   S    
C26   C89   S    
C7    C11   A    
C10   H46   S    
C32   H68   S    
C57   C112  S    
C105  H41   S    
Cr4   O20   S    
C59   C110  S    
S3    O61   S    
Cr11  O19   S    
C57   C61   A    
C92   O4    A    
C106  H38   S    
Cr5   O49   S    
C94   C101  A    
S2    O57   D    
Cr6   O26   S    
C3    C122  S    
Cr2   O42   S    
Cr12  O36   S    
Cr2   O46   S    
C89   O37   A    
C128  C132  A    
C72   C88   A    
C19   C131  S    
C63   C67   A    
C17   C129  S    
C2    O22   A    
Cr6   O50   S    
Cr1   O1    S    
C107  H39   S    
C122  C126  A    
C117  O41   A    
C99   C100  A    
C12   C124  A    
Cr3   O3    S    
C33   C34   A    
C27   C92   S    
C3    O27   A    
C67   C83   S    
C16   C128  S    
C111  O47   A    
C1    O25   A    
C78   H18   S    
C68   C88   A    
C93   C118  S    
Cr5   O17   S    
C70   C86   A    
C59   C75   A    
C95   C104  A    
C75   H15   S    
C14   H52   S    
C76   H16   S    
C70   H10   S    
C79   H19   S    
C30   H66   S    
C65   C85   A    
C67   C87   A    
C86   C114  S    
Cr11  O15   S    
Cr4   O24   S    
C71   C75   A    
C104  H36   S    
C118  O14   A    
Cr3   O23   S    
Cr3   O19   S    
C91   O3    A    
C110  O46   A    
C89   O1    A    
Cr10  O18   S    
C31   H67   S    
Cr12  O12   S    
C52   C56   A    
C26   C41   A    
