data_str_m2_o22_o22_f0_pcu.sym.180
_audit_creation_date              2012-12-10T18:09:32-0500
_audit_creation_method            fapswitch 2.2
_symmetry_space_group_name_H-M    P1
_symmetry_Int_Tables_number       1
_space_group_crystal_system       triclinic
_cell_length_a                    15.720464
_cell_length_b                    14.637682
_cell_length_c                    9.550958
_cell_angle_alpha                 89.891687
_cell_angle_beta                  90.140526
_cell_angle_gamma                 90.021883
_cell_volume                      2197.77126309

loop_
_atom_site_label
_atom_site_type_symbol
_atom_type_description
_atom_site_fract_x
_atom_site_fract_y
_atom_site_fract_z
_atom_type_partial_charge
C1    C     C_R   0.116443 0.376408 0.500098 0.748348
C2    C     C_R   0.116027 0.624002 0.500243 0.746683
C3    C     C_R   0.616769 0.876689 0.500046 0.750912
C4    C     C_R   0.616430 0.123565 0.500006 0.745768
C5    C     C_3   0.089155 0.493534 0.082917 -0.264136
C6    C     C_3   0.089149 0.506646 0.917748 -0.264726
C7    C     C_3   0.589563 0.998325 0.082771 -0.257334
C8    C     C_3   0.588878 0.009989 0.917404 -0.269104
C9    C     C_R   0.878391 0.381917 0.500409 0.737734
C10   C     C_R   0.878668 0.618350 0.499335 0.737356
C11   C     C_R   0.377303 0.883348 0.500537 0.736468
C12   C     C_R   0.378120 0.117725 0.499381 0.734452
C13   C     C_3   0.842648 0.216246 0.508083 -0.398477
C14   C     C_3   0.749411 0.327931 0.370932 -0.377561
C15   C     C_3   0.750119 0.672022 0.627881 -0.376460
C16   C     C_3   0.843215 0.784206 0.492096 -0.398524
C17   C     C_3   0.253768 0.822517 0.641547 -0.381375
C18   C     C_3   0.341250 0.719061 0.489413 -0.394696
C19   C     C_3   0.247573 0.169334 0.625861 -0.377896
C20   C     C_3   0.342475 0.283315 0.496088 -0.398104
C21   C     C_3   0.185002 0.747307 0.643780 -0.379947
C22   C     C_3   0.269505 0.648511 0.477942 -0.387586
C23   C     C_3   0.172442 0.236818 0.622142 -0.398546
C24   C     C_3   0.270912 0.353145 0.517246 -0.387370
C25   C     C_3   0.771050 0.146169 0.487821 -0.386043
C26   C     C_3   0.673890 0.261000 0.374923 -0.395926
C27   C     C_3   0.674390 0.738394 0.623329 -0.401366
C28   C     C_3   0.771656 0.854123 0.513629 -0.387255
C29   C     C_3   0.749109 0.328203 0.632620 -0.388045
C30   C     C_3   0.749517 0.672598 0.366274 -0.391899
C31   C     C_3   0.241505 0.837394 0.382500 -0.380082
C32   C     C_3   0.249711 0.173135 0.364946 -0.390484
C33   C     C_3   0.806888 0.315142 0.502231 0.190471
C34   C     C_3   0.807410 0.685249 0.497072 0.192191
C35   C     C_3   0.305303 0.817175 0.502958 0.189453
C36   C     C_3   0.306534 0.184347 0.497307 0.193707
C37   C     C_3   0.182973 0.695377 0.501489 0.178879
C38   C     C_3   0.183807 0.305554 0.499810 0.180413
C39   C     C_3   0.683902 0.194217 0.500254 0.181248
C40   C     C_3   0.684469 0.806144 0.499497 0.177805
C41   C     C_3   0.168552 0.766960 0.383688 -0.389264
C42   C     C_3   0.182526 0.250012 0.360528 -0.379874
C43   C     C_3   0.681304 0.251893 0.637275 -0.381749
C44   C     C_3   0.682165 0.749330 0.361503 -0.376018
C45   C     C_3   0.963750 0.585846 0.084286 0.208460
C46   C     C_3   0.951725 0.578709 0.917948 0.156892
C47   C     C_3   0.951753 0.421252 0.081707 0.156405
C48   C     C_3   0.963886 0.414060 0.915511 0.208459
C49   C     C_3   0.460732 0.084202 0.084354 0.206575
C50   C     C_3   0.448883 0.076535 0.918272 0.158290
C51   C     C_3   0.456736 0.917648 0.083133 0.159740
C52   C     C_3   0.466314 0.912555 0.915809 0.197101
Cu1   Cu    Cu3+1 0.000100 0.500000 0.642410 0.921356
Cu2   Cu    Cu3+1 0.000100 0.500000 0.357590 0.921512
Cu3   Cu    Cu3+1 0.500100 1.000000 0.642410 0.920856
Cu4   Cu    Cu3+1 0.500100 0.000000 0.357590 0.925214
H1    H     H_    0.870575 0.202979 0.612025 0.159702
H2    H     H_    0.725121 0.399323 0.366243 0.136608
H3    H     H_    0.726179 0.600464 0.632414 0.136302
H4    H     H_    0.870561 0.797974 0.388038 0.159892
H5    H     H_    0.223331 0.890873 0.651165 0.144229
H6    H     H_    0.383006 0.713610 0.398094 0.167910
H7    H     H_    0.222794 0.098053 0.626081 0.135012
H8    H     H_    0.370992 0.298324 0.393371 0.159457
H9    H     H_    0.894776 0.204895 0.433012 0.143265
H10   H     H_    0.786030 0.316479 0.273830 0.189388
H11   H     H_    0.786683 0.683696 0.725253 0.190205
H12   H     H_    0.895807 0.795239 0.566841 0.143010
H13   H     H_    0.295327 0.813870 0.734370 0.159289
H14   H     H_    0.380548 0.701708 0.581888 0.150341
H15   H     H_    0.282923 0.178118 0.725032 0.190639
H16   H     H_    0.394427 0.293405 0.572411 0.144934
H17   H     H_    0.199090 0.698971 0.730937 0.158959
H18   H     H_    0.279593 0.593432 0.556895 0.144314
H19   H     H_    0.169009 0.272933 0.724338 0.180868
H20   H     H_    0.276234 0.383578 0.623652 0.157436
H21   H     H_    0.777215 0.113688 0.383018 0.156633
H22   H     H_    0.671021 0.223340 0.273928 0.178188
H23   H     H_    0.670970 0.775283 0.724779 0.179676
H24   H     H_    0.777893 0.885520 0.619243 0.157388
H25   H     H_    0.121865 0.778730 0.664798 0.146972
H26   H     H_    0.271037 0.616064 0.372594 0.156163
H27   H     H_    0.112370 0.197907 0.607447 0.151024
H28   H     H_    0.277792 0.409784 0.440000 0.142219
H29   H     H_    0.777093 0.091029 0.567799 0.142694
H30   H     H_    0.613879 0.300411 0.386135 0.151165
H31   H     H_    0.614973 0.698277 0.609599 0.152543
H32   H     H_    0.777675 0.910058 0.435005 0.141897
H33   H     H_    0.786818 0.325738 0.731090 0.157672
H34   H     H_    0.717599 0.396250 0.628293 0.145821
H35   H     H_    0.717612 0.604735 0.370276 0.146344
H36   H     H_    0.787142 0.674918 0.268028 0.158038
H37   H     H_    0.214846 0.907380 0.394821 0.134618
H38   H     H_    0.273159 0.836291 0.279369 0.164537
H39   H     H_    0.217627 0.105328 0.366694 0.145777
H40   H     H_    0.287830 0.176042 0.267479 0.157305
H41   H     H_    0.107503 0.803303 0.401651 0.146179
H42   H     H_    0.165244 0.733132 0.279634 0.180720
H43   H     H_    0.118454 0.219655 0.343114 0.146451
H44   H     H_    0.196394 0.295965 0.270404 0.159548
H45   H     H_    0.693770 0.207297 0.729622 0.159736
H46   H     H_    0.617219 0.282870 0.651022 0.144417
H47   H     H_    0.618000 0.718765 0.345987 0.149727
H48   H     H_    0.695378 0.794491 0.270186 0.158661
H49   H     H_    0.899008 0.594726 0.128554 0.095977
H50   H     H_    0.882889 0.565036 0.898303 0.062997
H51   H     H_    0.882906 0.434888 0.100692 0.062631
H52   H     H_    0.899173 0.404942 0.870740 0.096186
H53   H     H_    0.395950 0.090956 0.129211 0.095059
H54   H     H_    0.380545 0.060198 0.898777 0.062351
H55   H     H_    0.387581 0.925163 0.105976 0.066670
H56   H     H_    0.400980 0.902617 0.873867 0.096394
H57   H     H_    0.132431 0.544112 0.132056 0.169328
H58   H     H_    0.119201 0.572970 0.891991 0.126851
H59   H     H_    0.119262 0.427257 0.108932 0.127344
H60   H     H_    0.132471 0.456169 0.868896 0.169152
H61   H     H_    0.630345 0.051656 0.130694 0.167098
H62   H     H_    0.616754 0.077213 0.890413 0.129021
H63   H     H_    0.624188 0.935099 0.110284 0.125946
H64   H     H_    0.633654 0.960842 0.869027 0.165479
N1    N     N_3   0.001260 0.500000 0.143650 -0.177440
N2    N     N_3   0.001260 0.500000 0.856350 -0.177469
N3    N     N_3   0.501260 0.000000 0.143650 -0.175961
N4    N     N_3   0.501260 0.000000 0.856350 -0.175405
O1    O     O_R   0.091250 0.408820 0.620260 -0.565441
O2    O     O_R   0.091250 0.408820 0.379740 -0.591862
O3    O     O_R   0.091250 0.591180 0.620260 -0.592024
O4    O     O_R   0.091250 0.591180 0.379740 -0.565444
O5    O     O_R   0.591250 0.908820 0.620260 -0.566221
O6    O     O_R   0.591250 0.908820 0.379740 -0.580859
O7    O     O_R   0.591250 0.091180 0.620260 -0.593839
O8    O     O_R   0.591250 0.091180 0.379740 -0.568049
O9    O     O_R   0.908940 0.408800 0.620260 -0.593645
O10   O     O_R   0.908940 0.408800 0.379740 -0.553784
O11   O     O_R   0.908940 0.591200 0.620260 -0.554306
O12   O     O_R   0.908940 0.591200 0.379740 -0.593880
O13   O     O_R   0.408940 0.908800 0.620260 -0.591628
O14   O     O_R   0.408940 0.908800 0.379740 -0.555122
O15   O     O_R   0.408940 0.091200 0.620260 -0.553662
O16   O     O_R   0.408940 0.091200 0.379740 -0.593455
N5    N     N_2   0.016684 0.664369 0.123080 -0.367376
H65   H     H_    0.071350 0.678105 0.067548 0.225310
C53   C     C_3   0.980736 0.739718 0.200161 -0.695775
H66   H     H_    0.989458 0.727667 0.313343 0.242417
H67   H     H_    0.912444 0.748806 0.174917 0.207355
H68   H     H_    0.014721 0.803930 0.173427 0.188194
N6    N     N_2   0.971046 0.665064 0.847401 -0.348586
H69   H     H_    0.033694 0.680753 0.828479 0.251424
C54   C     C_3   0.919102 0.743909 0.881352 -0.754548
H70   H     H_    0.898886 0.778762 0.785318 0.222352
H71   H     H_    0.957021 0.794747 0.940272 0.229328
H72   H     H_    0.861212 0.724676 0.941110 0.207613
N7    N     N_2   0.971006 0.334962 0.152561 -0.348290
H73   H     H_    0.033666 0.319201 0.171688 0.251606
C55   C     C_3   0.918871 0.256172 0.118445 -0.753933
H74   H     H_    0.898602 0.221503 0.214473 0.222352
H75   H     H_    0.956646 0.205214 0.059875 0.229160
H76   H     H_    0.861013 0.275427 0.058186 0.207383
N8    N     N_2   0.017025 0.335679 0.877376 -0.367674
H77   H     H_    0.071663 0.322138 0.933506 0.225092
C56   C     C_3   0.981338 0.260160 0.800040 -0.694616
H78   H     H_    0.990295 0.272062 0.686883 0.242442
H79   H     H_    0.913020 0.250962 0.824552 0.207398
H80   H     H_    0.015350 0.196066 0.827477 0.187938
N9    N     N_2   0.511920 0.164629 0.121760 -0.367910
H81   H     H_    0.565332 0.180346 0.064167 0.225976
C57   C     C_3   0.476148 0.238842 0.201356 -0.689596
H82   H     H_    0.488176 0.227242 0.313892 0.242503
H83   H     H_    0.407339 0.246374 0.179699 0.208170
H84   H     H_    0.508094 0.303927 0.172762 0.185361
N10   N     N_2   0.464978 0.163872 0.848182 -0.350260
H85   H     H_    0.526757 0.181259 0.825181 0.252604
C58   C     C_3   0.411423 0.241011 0.884841 -0.754584
H86   H     H_    0.388483 0.275509 0.790214 0.222849
H87   H     H_    0.448898 0.292964 0.942182 0.229814
H88   H     H_    0.355083 0.219781 0.946984 0.208316
N11   N     N_2   0.485612 0.833768 0.152991 -0.338817
H89   H     H_    0.549593 0.819843 0.151518 0.244330
C59   C     C_3   0.435196 0.751457 0.139219 -0.754153
H90   H     H_    0.458873 0.699750 0.214546 0.203922
H91   H     H_    0.443271 0.719569 0.036631 0.238132
H92   H     H_    0.366975 0.765000 0.155700 0.221116
N12   N     N_2   0.519374 0.835264 0.872979 -0.372256
H93   H     H_    0.578221 0.824914 0.917910 0.223704
C60   C     C_3   0.484566 0.761142 0.790910 -0.695799
H94   H     H_    0.494605 0.774568 0.678525 0.245087
H95   H     H_    0.416000 0.751403 0.811894 0.201156
H96   H     H_    0.517869 0.696531 0.817804 0.188008

loop_
_geom_bond_atom_site_label_1
_geom_bond_atom_site_label_2
_ccdc_geom_bond_type
C16   C28   S    
C53   H68   S    
C9    C33   S    
N10   H85   S    
C17   H13   S    
N9    H81   S    
C21   H17   S    
C55   H75   S    
C3    O6    A    
C51   N3    S    
C7    H61   S    
C19   H15   S    
N6    H69   S    
Cu1   O11   S    
C52   N12   S    
Cu3   Cu4   S    
C13   C25   S    
C14   C33   S    
C29   H33   S    
C56   H78   S    
C44   H48   S    
C8    H62   S    
C7    C8    S    
C57   H83   S    
C13   H9    S    
C58   H86   S    
C13   C33   S    
Cu2   O2    S    
C26   H22   S    
C23   H27   S    
C37   C41   S    
C25   H21   S    
C32   C36   S    
N6    C54   S    
C11   O14   A    
C10   O12   A    
C38   C42   S    
C27   H23   S    
C19   C36   S    
C54   H71   S    
N8    H77   S    
C48   N2    S    
C5    C6    S    
Cu4   O16   S    
C26   C39   S    
C47   N1    S    
C13   H1    S    
C28   C40   S    
C53   H66   S    
Cu2   O10   S    
C29   C33   S    
C50   H54   S    
Cu3   O15   S    
C16   H4    S    
C20   H16   S    
C6    H58   S    
Cu1   O3    S    
C16   C34   S    
C15   C27   S    
C42   H43   S    
C20   C24   S    
C19   H7    S    
N11   C59   S    
C28   H32   S    
C47   C48   S    
C24   C38   S    
C12   O16   A    
C50   N10   S    
C16   H12   S    
C12   C36   S    
C18   C35   S    
C15   C34   S    
C52   N4    S    
C59   H92   S    
C17   H5    S    
C2    O3    A    
Cu2   O12   S    
N9    C57   S    
C18   C22   S    
C5    H59   S    
C55   H76   S    
C45   N5    S    
C30   C44   S    
C29   H34   S    
C56   H79   S    
C44   H47   S    
C45   H49   S    
C4    O7    A    
C58   H87   S    
C14   H2    S    
C48   N8    S    
C30   C34   S    
C51   C52   S    
Cu4   N3    S    
C7    H63   S    
C50   N4    S    
C1    O2    A    
C30   H36   S    
C54   H72   S    
C7    N3    S    
C57   H82   S    
C8    N4    S    
C60   H96   S    
C39   C43   S    
C47   N7    S    
C45   N1    S    
Cu1   Cu2   S    
C22   C37   S    
Cu2   O4    S    
C17   C21   S    
C20   H8    S    
C19   C23   S    
N12   H93   S    
C43   H45   S    
C49   N9    S    
C42   H44   S    
N12   C60   S    
Cu4   O14   S    
C25   C39   S    
Cu3   O5    S    
C46   N6    S    
C4    C39   S    
C27   C40   S    
C26   H30   S    
C15   H11   S    
C25   H29   S    
C14   H10   S    
C12   O15   A    
Cu1   O9    S    
C10   C34   S    
C14   C26   S    
C27   H31   S    
C6    H60   S    
Cu4   O8    S    
Cu1   O1    S    
C1    C38   S    
C57   H84   S    
C32   H40   S    
Cu2   N1    S    
C21   H25   S    
C3    C40   S    
N11   H89   S    
Cu3   O7    S    
N5    H65   S    
C31   C35   S    
N7    C55   S    
C6    N2    S    
C23   C38   S    
C22   H26   S    
C56   H80   S    
C8    H64   S    
C49   H53   S    
C9    O9    A    
C58   H88   S    
C1    O1    A    
C53   H67   S    
Cu3   N4    S    
C5    N1    S    
C51   H55   S    
C31   C41   S    
C5    H57   S    
C3    O5    A    
C15   H3    S    
C24   H20   S    
C23   H19   S    
C30   H35   S    
N10   C58   S    
C31   H38   S    
C47   H51   S    
C18   H14   S    
Cu3   O13   S    
Cu1   N2    S    
C52   H56   S    
N5    C53   S    
N8    C56   S    
C24   H28   S    
C43   H46   S    
C10   O11   A    
C31   H37   S    
C54   H70   S    
C9    O10   A    
C4    O8    A    
C2    C37   S    
C60   H94   S    
C48   H52   S    
C46   H50   S    
C11   C35   S    
C41   H41   S    
C11   O13   A    
C28   H24   S    
Cu4   O6    S    
C60   H95   S    
C59   H90   S    
C20   C36   S    
C45   C46   S    
C40   C44   S    
C32   H39   S    
C21   C37   S    
C22   H18   S    
C49   C50   S    
C55   H74   S    
C32   C42   S    
C41   H42   S    
C46   N2    S    
C18   H6    S    
C17   C35   S    
N7    H73   S    
C51   N11   S    
C29   C43   S    
C2    O4    A    
C59   H91   S    
C49   N3    S    
