data_str_m2_o14_o22_f0_pcu.sym.185
_audit_creation_date              2013-03-05T15:51:22-0500
_audit_creation_method            fapswitch 2.2
_symmetry_space_group_name_H-M    P1
_symmetry_Int_Tables_number       1
_space_group_crystal_system       triclinic
_cell_length_a                    10.751591
_cell_length_b                    10.765679
_cell_length_c                    9.630668
_cell_angle_alpha                 91.592534
_cell_angle_beta                  89.47797
_cell_angle_gamma                 92.260322
_cell_volume                      1113.39886509

loop_
_atom_site_label
_atom_site_type_symbol
_atom_site_description
_atom_site_fract_x
_atom_site_fract_y
_atom_site_fract_z
_atom_type_partial_charge
O1    O     O_R   0.499990 0.319640 0.618810 -0.589404
O2    O     O_R   0.500000 0.319660 0.381240 -0.575428
C1    C     C_R   0.493695 0.262772 0.498481 0.791537
O3    O     O_R   0.317680 0.499970 0.618790 -0.601058
O4    O     O_R   0.317700 0.499990 0.381210 -0.587374
C2    C     C_R   0.260197 0.496143 0.500275 0.820582
Cu1   Cu    Cu3+1 0.499990 0.499990 0.640660 1.010010
Cu2   Cu    Cu3+1 0.500010 0.500010 0.359340 0.966496
O5    O     O_R   0.500000 0.680340 0.618760 -0.544138
O6    O     O_R   0.500010 0.680360 0.381190 -0.602891
O7    O     O_R   0.682300 0.500010 0.618790 -0.534681
O8    O     O_R   0.682320 0.500030 0.381210 -0.616536
C3    C     C_R   0.493085 0.736967 0.501128 0.812847
C4    C     C_R   0.739981 0.498702 0.499845 0.835301
C5    C     C_3   0.070240 0.474338 0.649011 -0.358369
H1    H     H_    0.105589 0.550182 0.720438 0.256637
H2    H     H_    0.102649 0.385451 0.689685 0.157020
C6    C     C_3   0.927822 0.471245 0.648831 0.512446
H3    H     H_    0.892832 0.377175 0.679774 0.099783
H4    H     H_    0.118164 0.697484 0.519060 0.219496
C7    C     C_3   0.080011 0.621404 0.449595 -0.521515
C8    C     C_3   0.067750 0.389233 0.402164 0.461850
C9    C     C_3   0.122363 0.494631 0.500384 -0.091464
H5    H     H_    0.101900 0.403671 0.294135 0.119093
C10   C     C_3   0.878404 0.497445 0.500540 -0.145452
C11   C     C_3   0.936299 0.621798 0.443791 0.203561
C12   C     C_3   0.923587 0.390052 0.403499 -0.584004
H6    H     H_    0.883850 0.299149 0.438932 0.226165
H7    H     H_    0.890262 0.401326 0.295639 0.187318
H8    H     H_    0.118909 0.639227 0.344128 0.178870
H9    H     H_    0.910558 0.625374 0.332143 0.106598
H10   H     H_    0.627740 0.112995 0.342027 0.164709
C13   C     C_R   0.299106 0.127952 0.654287 -0.181130
H11   H     H_    0.291008 0.227454 0.649401 0.173585
C14   C     C_R   0.213504 0.063616 0.737462 -0.181371
H12   H     H_    0.146121 0.115734 0.796722 0.179350
C15   C     C_R   0.214955 0.934096 0.744692 0.430459
C16   C     C_R   0.301303 0.869439 0.662849 -0.192186
H13   H     H_    0.297503 0.769115 0.664471 0.172825
C17   C     C_R   0.391870 0.933535 0.581582 0.058566
C18   C     C_R   0.391188 0.064692 0.578171 0.114723
C19   C     C_R   0.480705 0.128679 0.495151 -0.069987
C20   C     C_R   0.561473 0.064048 0.408478 -0.177365
H14   H     H_    0.625380 0.888289 0.342407 0.185843
C21   C     C_R   0.561128 0.936233 0.410236 -0.093267
C22   C     C_R   0.481932 0.870772 0.500698 -0.033811
H15   H     H_    0.358222 0.360857 0.125755 0.144312
C23   C     C_R   0.678557 0.650279 0.144107 -0.187847
H16   H     H_    0.684230 0.664733 0.253353 0.226937
C24   C     C_R   0.770752 0.712748 0.067837 -0.269568
H17   H     H_    0.847325 0.762056 0.120290 0.215834
C25   C     C_R   0.754319 0.726552 0.926701 0.006052
H18   H     H_    0.813339 0.795434 0.875945 0.248479
C26   C     C_R   0.639236 0.689096 0.869678 0.369231
C27   C     C_R   0.576715 0.584424 0.928687 0.126981
C28   C     C_R   0.584169 0.576807 0.076372 0.203501
N1    N     N_R   0.501200 0.501210 0.147910 -0.192422
C29   C     C_R   0.422288 0.423392 0.072160 -0.025950
H19   H     H_    0.362385 0.356861 0.868052 0.125584
C30   C     C_R   0.424521 0.421255 0.924295 -0.009887
N2    N     N_R   0.501250 0.501290 0.852040 -0.200343
N3    N     N_R   0.130204 0.868713 0.836246 0.157622
O9    O     O_R   0.042787 0.927176 0.902053 -0.351809
O10   O     O_R   0.144791 0.752200 0.861929 -0.340465
N4    N     N_R   0.565428 0.792566 0.836886 0.113161
O11   O     O_R   0.617059 0.889736 0.778786 -0.348438
O12   O     O_R   0.454750 0.801214 0.891364 -0.356716
F1    F     F_    0.886117 0.554585 0.748878 -0.627751
N5    N     N_R   0.888632 0.732885 0.514677 0.155559
O13   O     O_R   0.926025 0.767073 0.638399 -0.269421
O14   O     O_R   0.822995 0.808528 0.445566 -0.409224
F2    F     F_    0.106411 0.274409 0.442688 -0.667655

loop_
_geom_bond_atom_site_label_1
_geom_bond_atom_site_label_2
_geom_bond_distance
_ccdc_geom_bond_type
C5    C6    1.530281 S    
C24   C25   1.385098 A    
C27   C28   1.430097 A    
O6    C3    1.293848 A    
C1    C19   1.444345 S    
C5    H2    1.113645 S    
C15   C16   1.405289 A    
Cu2   N1    2.036533 S    
C12   H7    1.113255 S    
C18   C19   1.415767 A    
C26   C27   1.418988 A    
C7    H8    1.113625 S    
C28   N1    1.376764 A    
C14   H12   1.082652 S    
C13   H11   1.080520 S    
Cu2   O8    1.973304 S    
C13   C18   1.411928 A    
C5    C9    1.550399 S    
C15   N3    1.439611 S    
O8    C4    1.305536 A    
H19   C30   1.081426 S    
N4    O11   1.302550 A    
C26   N4    1.436704 S    
C21   C22   1.397831 A    
H14   C21   1.082362 S    
H15   C29   1.081840 S    
Cu1   O7    1.969489 S    
C20   C21   1.376448 A    
N1    C29   1.369355 A    
N3    O9    1.301845 A    
C6    C10   1.565082 S    
O3    Cu1   1.973304 S    
O4    C2    1.298655 A    
C27   N2    1.386047 A    
C23   C24   1.391403 A    
C17   C18   1.413597 A    
C16   C17   1.414211 A    
C7    C11   1.546827 S    
C25   C26   1.398529 A    
C24   H17   1.083023 S    
C17   C22   1.417593 A    
O2    C1    1.299359 A    
C8    C12   1.550294 S    
C7    C9    1.549023 S    
C4    C10   1.488949 S    
N5    O13   1.299808 A    
O7    C4    1.297636 A    
C8    H5    1.113065 S    
O4    Cu2   1.969490 S    
N5    O14   1.299311 A    
C19   C20   1.391817 A    
C2    C9    1.481373 S    
C29   C30   1.423581 A    
C5    H1    1.110582 S    
Cu1   O5    1.958827 S    
Cu1   Cu2   2.709304 S    
C16   H13   1.079758 S    
H4    C7    1.111168 S    
C14   C15   1.398742 A    
Cu2   O6    1.947137 S    
C6    H3    1.113836 S    
C11   H9    1.114807 S    
C8    F2    1.386895 S    
C12   H6    1.113389 S    
C23   C28   1.414607 A    
C11   N5    1.468171 S    
O5    C3    1.305398 A    
C3    C22   1.450319 S    
C23   H16   1.061216 S    
N3    O10   1.300999 A    
C13   C14   1.391234 A    
C10   C11   1.564332 S    
O1    Cu1   1.947137 S    
O3    C2    1.301782 A    
C6    F1    1.382109 S    
H10   C20   1.084286 S    
C8    C9    1.557226 S    
O2    Cu2   1.958828 S    
N4    O12   1.301773 A    
C25   H18   1.081156 S    
C30   N2    1.368935 A    
O1    C1    1.296552 A    
C10   C12   1.556302 S    
Cu1   N2    2.035556 S    
