data_str_m2_o10_o29_f0_pcu.sym.192
_audit_creation_date              2012-12-10T16:51:16-0500
_audit_creation_method            fapswitch 2.2
_symmetry_space_group_name_H-M    P1
_symmetry_Int_Tables_number       1
_space_group_crystal_system       triclinic
_cell_length_a                    27.834095
_cell_length_b                    8.697895
_cell_length_c                    7.444056
_cell_angle_alpha                 103.368873
_cell_angle_beta                  94.529076
_cell_angle_gamma                 92.982695
_cell_volume                      1743.28310749

loop_
_atom_site_label
_atom_site_type_symbol
_atom_type_description
_atom_site_fract_x
_atom_site_fract_y
_atom_site_fract_z
_atom_type_partial_charge
C1    C     C_R   0.498162 0.199799 0.453172 0.772827
C2    C     C_R   0.501344 0.800129 0.546852 0.761322
C3    C     C_R   0.102156 0.504733 0.539593 -0.175388
C4    C     C_R   0.897831 0.504255 0.521666 -0.170864
C5    C     C_R   0.124545 0.363564 0.470044 -0.074117
C6    C     C_R   0.875441 0.646311 0.589298 -0.058558
C7    C     C_R   0.095697 0.223131 0.384457 0.292672
C8    C     C_R   0.904429 0.789555 0.658481 0.289362
C9    C     C_R   0.131043 0.647633 0.609862 -0.147713
C10   C     C_R   0.868871 0.361946 0.446501 -0.137844
C11   C     C_R   0.354880 0.514348 0.509911 -0.240330
C12   C     C_R   0.644796 0.494050 0.493722 -0.192246
C13   C     C_R   0.971002 0.360340 0.461032 -0.015490
C14   C     C_R   0.029230 0.646079 0.612408 -0.019602
C15   C     C_R   0.977979 0.647057 0.601837 0.049598
C16   C     C_R   0.022151 0.361522 0.460258 0.047536
C17   C     C_R   0.949097 0.503909 0.528730 0.072771
C18   C     C_R   0.051019 0.503851 0.538006 0.074894
C19   C     C_R   0.940786 0.219455 0.396279 -0.325047
C20   C     C_R   0.059714 0.783123 0.696639 -0.343235
C21   C     C_R   0.890939 0.220538 0.384700 0.620167
C22   C     C_R   0.109385 0.785160 0.691797 0.655890
C23   C     C_R   0.407602 0.504823 0.502905 0.817887
C24   C     C_R   0.592290 0.498792 0.497941 0.853258
C25   C     C_R   0.045293 0.225407 0.378039 -0.247046
C26   C     C_R   0.954648 0.788237 0.658158 -0.254204
C27   C     C_2   0.496941 0.032255 0.426713 0.304363
C28   C     C_2   0.501930 0.967531 0.573328 0.292683
C29   C     C_R   0.175530 0.368598 0.486678 0.612016
C30   C     C_R   0.824467 0.639611 0.585091 0.609203
C31   C     C_R   0.181002 0.649351 0.594924 0.563977
C32   C     C_R   0.818382 0.364505 0.436344 0.571941
C33   C     C_R   0.285247 0.590152 0.678296 -0.146784
C34   C     C_R   0.721414 0.412880 0.604718 -0.250584
C35   C     C_R   0.335266 0.596579 0.672083 0.144545
C36   C     C_R   0.671152 0.408014 0.602187 0.146900
C37   C     C_R   0.323382 0.438750 0.352995 0.475120
C38   C     C_R   0.669098 0.579762 0.385312 0.472616
C39   C     C_R   0.273127 0.443810 0.355992 0.203680
C40   C     C_R   0.719551 0.582183 0.386249 0.181809
C41   C     C_R   0.253899 0.514438 0.523028 0.178013
C42   C     C_R   0.745704 0.499000 0.498112 0.217054
Cu1   Cu    Cu3+1 0.505380 0.517380 0.684380 1.194108
Cu2   Cu    Cu3+1 0.494620 0.482620 0.315620 1.212169
H1    H     H_    0.741870 0.348089 0.688852 0.176803
H2    H     H_    0.270463 0.649871 0.803716 0.186216
H3    H     H_    0.954338 0.104171 0.354661 0.164117
H4    H     H_    0.046517 0.892180 0.769383 0.166650
H5    H     H_    0.024741 0.120504 0.299247 0.144646
H6    H     H_    0.974631 0.901630 0.696499 0.149691
N1    N     N_R   0.202389 0.510767 0.535757 -0.457942
N2    N     N_R   0.797448 0.501577 0.505281 -0.450295
N3    N     N_2   0.486510 0.456430 0.038510 0.237960
N4    N     N_2   0.513490 0.543570 0.961490 0.257496
O1    O     O_R   0.503500 0.286120 0.619780 -0.520364
O2    O     O_R   0.496500 0.713880 0.380220 -0.534189
O3    O     O_R   0.494410 0.256780 0.308360 -0.512733
O4    O     O_R   0.505590 0.743220 0.691640 -0.531948
O5    O     O_R   0.434810 0.514700 0.655690 -0.581526
O6    O     O_R   0.565190 0.485300 0.344310 -0.524319
O7    O     O_R   0.425720 0.485350 0.344280 -0.539936
O8    O     O_R   0.574280 0.514650 0.655720 -0.550867
O9    O     O_2   0.198329 0.233072 0.456647 -0.459020
O10   O     O_2   0.801741 0.768558 0.661999 -0.492544
O11   O     O_2   0.790110 0.231362 0.357629 -0.452557
O12   O     O_2   0.207943 0.788621 0.635884 -0.432337
F1    F     F_    0.341392 0.359505 0.196075 -0.641199
F2    F     F_    0.643887 0.663242 0.281261 -0.613685
F3    F     F_    0.455995 0.347478 0.923119 -0.498748
F4    F     F_    0.544746 0.650219 0.076527 -0.456258
N5    N     N_2   0.242017 0.375094 0.192089 -0.378103
H7    H     H_    0.256548 0.287732 0.097836 0.327026
C43   C     C_3   0.218728 0.487740 0.104896 -0.634392
H8    H     H_    0.195934 0.423470 0.977784 0.238998
H9    H     H_    0.246258 0.567770 0.065923 0.216551
H10   H     H_    0.195077 0.559554 0.199220 0.231823
N6    N     N_2   0.744191 0.671530 0.279138 -0.370540
H11   H     H_    0.727915 0.772576 0.265330 0.318355
C44   C     C_3   0.756669 0.579074 0.103578 -0.593762
H12   H     H_    0.779027 0.481501 0.124414 0.226235
H13   H     H_    0.777837 0.656098 0.033859 0.257075
H14   H     H_    0.723326 0.528936 0.012623 0.226725
N7    N     N_2   0.117539 0.085544 0.289495 -0.357156
H15   H     H_    0.136988 0.102582 0.182458 0.304039
C45   C     C_3   0.092476 0.930160 0.258021 -0.579407
H16   H     H_    0.118866 0.838243 0.228178 0.239453
H17   H     H_    0.065030 0.910930 0.136839 0.195443
H18   H     H_    0.074959 0.916984 0.382985 0.226705
N8    N     N_2   0.882822 0.936320 0.716934 -0.368968
H19   H     H_    0.865940 0.977495 0.610945 0.318330
C46   C     C_3   0.907128 0.058061 0.867993 -0.598761
H20   H     H_    0.880544 0.141595 0.927865 0.255738
H21   H     H_    0.935728 0.126007 0.816507 0.191656
H22   H     H_    0.923002 0.004961 0.979280 0.242974
N9    N     N_2   0.647273 0.314021 0.706236 -0.389610
H23   H     H_    0.667023 0.307624 0.827199 0.265900
C47   C     C_3   0.628622 0.158998 0.598438 -0.538879
H24   H     H_    0.608134 0.097230 0.686394 0.246483
H25   H     H_    0.658835 0.087024 0.547993 0.239997
H26   H     H_    0.603873 0.169287 0.477955 0.201565
N10   N     N_2   0.364555 0.697600 0.823883 -0.408929
H27   H     H_    0.396169 0.748677 0.793225 0.281379
C48   C     C_3   0.368588 0.643066 0.993457 -0.436314
H28   H     H_    0.392447 0.729220 0.101386 0.228731
H29   H     H_    0.384229 0.526156 0.969092 0.286207
H30   H     H_    0.332620 0.632967 0.045806 0.206615
F5    F     F_    0.864614 0.080702 0.313219 -0.638275
F6    F     F_    0.136041 0.922799 0.771735 -0.618967
F7    F     F_    0.490669 0.944098 0.248342 -0.595166
F8    F     F_    0.507967 0.055638 0.751730 -0.589216

loop_
_geom_bond_atom_site_label_1
_geom_bond_atom_site_label_2
_ccdc_geom_bond_type
C31   O12   S    
C7    N7    S    
C29   O9    S    
N10   H27   S    
C30   O10   S    
C8    C26   A    
C43   H8    S    
C14   C18   A    
N9    H23   S    
C34   C42   A    
N6    H11   S    
N3    F3    S    
C47   H24   S    
C39   C41   A    
N3    N4    D    
C23   O5    A    
C19   C21   A    
C26   H6    S    
C19   H3    S    
C9    C22   A    
C3    C18   A    
C11   C37   A    
C32   N2    A    
Cu1   O4    S    
Cu2   N3    S    
C12   C36   A    
Cu1   O5    S    
C40   C42   A    
N10   C48   S    
C33   H2    S    
C43   H9    S    
C47   H25   S    
C5    C29   A    
N6    C44   S    
C10   C21   A    
C13   C19   A    
C45   H17   S    
C14   C20   A    
C4    C6    A    
C31   N1    A    
C46   H20   S    
C5    C7    A    
C15   C26   A    
C6    C8    A    
C28   F8    S    
C45   H16   S    
Cu1   Cu2   S    
C3    C9    A    
C1    O3    A    
C46   H21   S    
Cu2   O2    S    
Cu1   N4    S    
N7    H15   S    
N4    F4    S    
Cu2   O3    S    
C24   O6    A    
N9    C47   S    
C48   H29   S    
C34   H1    S    
C20   H4    S    
C21   F5    S    
C4    C17   A    
Cu1   O1    S    
C6    C30   A    
C20   C22   A    
C43   H10   S    
N8    C46   S    
C4    C10   A    
C3    C5    A    
C48   H28   S    
C47   H26   S    
N5    C43   S    
C29   N1    A    
C45   H18   S    
C16   C25   A    
C15   C17   A    
C30   N2    A    
C24   O8    A    
N7    C45   S    
C14   C15   A    
C38   F2    S    
C35   N10   S    
C44   H14   S    
C2    O4    A    
Cu2   O7    S    
C12   C24   S    
C44   H13   S    
C7    C25   A    
C13   C17   A    
C33   C41   A    
C11   C35   A    
C1    O1    A    
N5    H7    S    
C37   C39   A    
C2    O2    A    
C46   H22   S    
C38   C40   A    
C36   N9    S    
Cu2   O6    S    
C22   F6    S    
C37   F1    S    
C11   C23   S    
C33   C35   A    
C48   H30   S    
C34   C36   A    
C12   C38   A    
C25   H5    S    
C9    C31   A    
C44   H12   S    
C10   C32   A    
C23   O7    A    
C27   F7    S    
C16   C18   A    
C13   C16   A    
C27   C28   D    
C1    C27   S    
C39   N5    S    
C40   N6    S    
C2    C28   S    
C8    N8    S    
N8    H19   S    
C41   N1    S    
Cu1   O8    S    
C42   N2    S    
C32   O11   S    
