data_str_m12_o9_o10_f0_bcu.sym.179
_audit_creation_date              2012-12-11T17:37:44-0500
_audit_creation_method            fapswitch 2.2
_symmetry_space_group_name_H-M    P1
_symmetry_Int_Tables_number       1
_space_group_crystal_system       triclinic
_cell_length_a                    13.213169
_cell_length_b                    13.01726
_cell_length_c                    15.396541
_cell_angle_alpha                 117.344106
_cell_angle_beta                  63.817633
_cell_angle_gamma                 97.361003
_cell_volume                      2101.68331631

loop_
_atom_site_label
_atom_site_type_symbol
_atom_type_description
_atom_site_fract_x
_atom_site_fract_y
_atom_site_fract_z
_atom_type_partial_charge
C1    C     C_R   0.018066 0.835605 0.038742 -0.144034
C2    C     C_R   0.686591 0.477998 0.318704 0.055487
C3    C     C_R   0.663782 0.461578 0.929379 0.098360
C4    C     C_R   0.996094 0.831033 0.324388 0.071294
C5    C     C_R   0.335892 0.539507 0.972877 -0.124360
C6    C     C_R   0.897876 0.204536 0.792732 -0.139764
C7    C     C_R   0.215154 0.430246 0.687813 -0.119668
C8    C     C_R   0.081471 0.246477 0.054986 -0.148535
C9    C     C_R   0.986492 0.164749 0.955443 -0.137972
C10   C     C_R   0.318226 0.531178 0.777545 -0.105278
C11   C     C_R   0.258210 0.443090 0.071718 -0.052837
C12   C     C_R   0.689818 0.430825 0.216547 -0.144208
C13   C     C_R   0.975975 0.307629 0.702728 -0.168569
C14   C     C_R   0.358980 0.471462 0.008923 0.059378
C15   C     C_R   0.911619 0.216147 0.702946 0.074201
C16   C     C_R   0.322960 0.454277 0.676635 0.020847
C17   C     C_R   0.061630 0.139548 0.985403 0.127313
C18   C     C_R   0.308326 0.036064 0.260196 -0.302273
C19   C     C_R   0.204575 0.023247 0.335525 0.580148
C20   C     C_R   0.102272 0.058832 0.344898 -0.047785
C21   C     C_R   0.105343 0.112326 0.282806 -0.305330
C22   C     C_R   0.209099 0.124688 0.208112 -0.064235
C23   C     C_R   0.757255 0.516123 0.891611 -0.059950
C24   C     C_R   0.310411 0.086855 0.196914 -0.139774
C25   C     C_R   0.939198 0.148865 0.518697 -0.247441
C26   C     C_R   0.876549 0.143012 0.616677 0.044224
C27   C     C_R   0.822120 0.042458 0.615116 0.034377
C28   C     C_R   0.860189 0.941427 0.516189 -0.255925
C29   C     C_R   0.952922 0.940884 0.423670 0.115525
C30   C     C_R   0.992465 0.047718 0.425572 0.083054
C31   C     C_R   0.700463 0.945513 0.730587 -0.158855
C32   C     C_R   0.600107 0.943652 0.815161 -0.135447
C33   C     C_R   0.520471 0.040488 0.883163 -0.073923
C34   C     C_R   0.970688 0.721009 0.316392 -0.082608
C35   C     C_R   0.541162 0.139511 0.866758 -0.100562
C36   C     C_R   0.640839 0.141372 0.781416 -0.162570
C37   C     C_R   0.721381 0.043890 0.711667 0.118552
C38   C     C_R   0.923131 0.413407 0.403851 -0.102426
C39   C     C_R   0.816622 0.377554 0.412111 -0.175530
C40   C     C_R   0.720407 0.455699 0.491067 0.123120
C41   C     C_R   0.729636 0.563296 0.569859 -0.158223
C42   C     C_R   0.836071 0.598742 0.560905 -0.190857
C43   C     C_R   0.932419 0.526462 0.474562 -0.086598
C44   C     C_R   0.522495 0.422103 0.560760 -0.251726
C45   C     C_R   0.678649 0.422066 0.991413 -0.121457
C46   C     C_R   0.414103 0.443832 0.576895 0.069226
C47   C     C_R   0.395915 0.478389 0.509782 0.061172
C48   C     C_R   0.487250 0.480909 0.421865 -0.173142
C49   C     C_R   0.596172 0.465106 0.408582 0.077939
C50   C     C_R   0.614132 0.438887 0.480685 0.031934
C51   C     C_R   0.219526 0.446364 0.488716 -0.180054
C52   C     C_R   0.102529 0.468749 0.537754 -0.187383
C53   C     C_R   0.049789 0.573403 0.629871 -0.097027
C54   C     C_R   0.114525 0.657910 0.671104 -0.141858
C55   C     C_R   0.232497 0.634902 0.626505 -0.063887
C56   C     C_R   0.053461 0.818705 0.219679 -0.139865
C57   C     C_R   0.284015 0.524749 0.537096 0.064729
C58   C     C_2   0.466902 0.457126 0.002276 -0.157387
C59   C     C_2   0.560771 0.457986 0.919752 -0.256753
C60   C     C_2   0.886165 0.978558 0.059768 -0.189521
C61   C     C_2   0.870016 0.061171 0.158555 -0.179501
C62   C     C_R   0.788265 0.523291 0.313971 -0.111172
C63   C     C_R   0.911208 0.751986 0.949330 0.515689
C64   C     C_R   0.935939 0.859964 0.016132 -0.042870
H1    H     H_    0.062825 0.899532 0.079332 0.132196
H2    H     H_    0.843041 0.148628 0.824065 0.106221
H3    H     H_    0.189444 0.371982 0.625712 0.112700
H4    H     H_    0.130346 0.256560 0.097734 0.104566
H5    H     H_    0.951672 0.102425 0.902223 0.097996
H6    H     H_    0.387187 0.575331 0.794188 0.097668
H7    H     H_    0.988958 0.353519 0.656322 0.104677
H8    H     H_    0.390664 0.097337 0.139556 0.138840
H9    H     H_    0.387163 0.007392 0.251434 0.143853
H10   H     H_    0.628867 0.379244 0.189703 0.104919
H11   H     H_    0.027452 0.142543 0.291135 0.141248
H12   H     H_    0.210900 0.163157 0.158578 0.153497
H13   H     H_    0.970238 0.229130 0.517299 0.121406
H14   H     H_    0.818309 0.863353 0.511713 0.125831
H15   H     H_    0.761053 0.869711 0.679446 0.105036
H16   H     H_    0.583398 0.866364 0.826830 0.118225
H17   H     H_    0.442246 0.038364 0.947819 0.115794
H18   H     H_    0.478805 0.213917 0.918917 0.154681
H19   H     H_    0.653656 0.217578 0.767924 0.126586
H20   H     H_    0.013836 0.559520 0.463542 0.159670
H21   H     H_    0.779694 0.538434 0.826310 0.152266
H22   H     H_    0.997883 0.355539 0.339359 0.131839
H23   H     H_    0.809881 0.294156 0.351728 0.125951
H24   H     H_    0.655333 0.623715 0.631875 0.126666
H25   H     H_    0.844245 0.684132 0.617488 0.123889
H26   H     H_    0.535029 0.404219 0.617836 0.129992
H27   H     H_    0.473233 0.506306 0.369718 0.133717
H28   H     H_    0.258020 0.362000 0.420984 0.134074
H29   H     H_    0.052574 0.402964 0.505767 0.124445
H30   H     H_    0.958521 0.589463 0.669077 0.149724
H31   H     H_    0.071748 0.739808 0.740412 0.154430
H32   H     H_    0.934443 0.696815 0.381492 0.101742
H33   H     H_    0.468249 0.452709 0.070344 0.165281
H34   H     H_    0.559838 0.467772 0.853697 0.141216
H35   H     H_    0.859691 0.000763 0.013067 0.120997
H36   H     H_    0.892669 0.045202 0.211293 0.135528
H37   H     H_    0.630790 0.361521 0.020660 0.107711
H38   H     H_    0.094431 0.882092 0.193500 0.115387
H39   H     H_    0.815030 0.563989 0.377353 0.132358
H40   H     H_    0.392357 0.592545 0.938786 0.106355
N1    N     N_R   0.037320 0.720000 0.995830 -0.071744
N2    N     N_R   0.946240 0.290870 0.848020 -0.041783
N3    N     N_R   0.146160 0.501170 0.788610 -0.040603
N4    N     N_R   0.025750 0.332680 0.063570 -0.041964
N5    N     N_R   0.962680 0.280000 0.004170 -0.045565
N6    N     N_R   0.209230 0.553860 0.848010 -0.040296
N7    N     N_R   0.175100 0.482030 0.063570 -0.060410
N8    N     N_R   0.996810 0.351820 0.788610 -0.041102
N9    N     N_R   0.790770 0.446140 0.151990 -0.042289
N10   N     N_R   0.824900 0.517970 0.936430 -0.044024
N11   N     N_R   0.003190 0.648180 0.211390 -0.038194
N12   N     N_R   0.774330 0.457010 0.995830 -0.050451
N13   N     N_R   0.053760 0.709130 0.151980 -0.045862
N14   N     N_R   0.853840 0.498830 0.211390 -0.043722
N15   N     N_R   0.974250 0.667320 0.936430 -0.087665
N16   N     N_R   0.225670 0.542990 0.004170 -0.051006
Ni1   Ni    Ni4+2 0.130310 0.630310 0.000000 0.225658
Ni2   Ni    Ni4+2 0.869690 0.369690 0.000000 0.202941
Ni3   Ni    Ni4+2 0.985660 0.509480 0.863750 0.228770
Ni4   Ni    Ni4+2 0.014340 0.490520 0.136250 0.256001
C65   C     C_2   0.244580 0.413520 0.157320 0.920851
O1    O     O_2   0.312424 0.341823 0.138515 -0.707386
O2    O     O_R   0.157797 0.471143 0.260937 -0.814988
H41   H     H_    0.165774 0.449920 0.313374 0.313294
O3    O     O_3   0.202575 0.974270 0.399045 -0.632793
C66   C     C_3   0.217663 0.061127 0.489424 0.244790
H42   H     H_    0.166571 0.144686 0.526166 0.083625
H43   H     H_    0.308647 0.076973 0.464870 0.099131
C67   C     C_3   0.179838 0.020449 0.576323 -0.825782
H44   H     H_    0.231704 0.939567 0.544549 0.256399
H45   H     H_    0.189996 0.088664 0.648397 0.210012
H46   H     H_    0.089271 0.003286 0.601297 0.251490
C68   C     C_2   0.297901 0.723591 0.678375 0.975178
O4    O     O_2   0.248210 0.803819 0.769004 -0.661496
O5    O     O_R   0.415888 0.716962 0.623917 -0.807450
H47   H     H_    0.449955 0.781895 0.668357 0.324366
O6    O     O_3   0.842362 0.728549 0.896381 -0.675222
C69   C     C_3   0.748799 0.812449 0.952974 0.262096
H48   H     H_    0.772462 0.879449 0.923624 0.107909
H49   H     H_    0.717050 0.852190 0.042773 0.106994
C70   C     C_3   0.650104 0.756972 0.927952 -0.977077
H50   H     H_    0.613863 0.697972 0.965677 0.266514
H51   H     H_    0.582067 0.825684 0.963222 0.219591
H52   H     H_    0.678069 0.708209 0.838843 0.256656

loop_
_geom_bond_atom_site_label_1
_geom_bond_atom_site_label_2
_ccdc_geom_bond_type
C19   O3    S    
C12   H10   S    
C41   C42   A    
C3    C23   A    
C35   C36   A    
C22   H12   S    
C60   H35   S    
C2    C12   A    
C70   H50   S    
N2    N8    A    
C53   C54   A    
C52   C53   A    
C68   O5    S    
C28   C29   A    
C26   C27   A    
N12   Ni2   S    
C38   H22   S    
C18   C24   A    
C36   C37   A    
C11   C65   S    
C34   H32   S    
C12   N9    A    
C13   N8    A    
N6    Ni1   S    
C38   C39   A    
C11   C14   A    
N5    Ni2   S    
C47   C57   S    
C36   H19   S    
N4    N5    A    
C18   C19   A    
C56   N13   A    
N13   Ni1   S    
C6    C15   A    
C54   C55   A    
N9    Ni2   S    
C19   C20   A    
N11   N13   A    
C48   H27   S    
C67   H46   S    
C1    H1    S    
C51   C57   A    
N3    Ni3   S    
C28   H14   S    
C4    C29   S    
N7    Ni4   S    
C5    H40   S    
C21   C22   A    
C4    C56   A    
C7    N3    A    
C43   H20   S    
C69   C70   S    
C58   H33   S    
N4    Ni4   S    
C8    N4    A    
C70   H51   S    
C35   H18   S    
C44   C46   A    
C9    N5    A    
C14   C58   S    
C4    C34   A    
C63   O6    S    
C5    N16   A    
C11   N7    A    
C51   C52   A    
N8    Ni3   S    
C16   C46   S    
C39   C40   A    
C15   C26   S    
C20   C30   S    
C13   H7    S    
C34   N11   A    
C5    C14   A    
C3    C45   A    
C31   C37   A    
C60   C61   D    
C66   H43   S    
C29   C30   A    
C2    C49   S    
C51   H28   S    
C32   H16   S    
C63   N15   A    
C47   C48   A    
N2    Ni2   S    
C6    N2    A    
N1    Ni1   S    
C52   H29   S    
N14   Ni4   S    
C54   H31   S    
C45   H37   S    
N10   Ni3   S    
C10   H6    S    
C9    C17   A    
C40   C41   A    
C8    H4    S    
C18   H9    S    
C13   C15   A    
C67   H44   S    
N3    N6    A    
C25   H13   S    
C58   C59   D    
C66   C67   S    
C42   C43   A    
O2    H41   S    
C1    C64   A    
C70   H52   S    
C44   H26   S    
N16   Ni1   S    
C24   H8    S    
C65   O2    S    
O3    C66   S    
C44   C50   A    
C25   C30   A    
C41   H24   S    
C46   C47   A    
C48   C49   A    
N11   Ni4   S    
C53   H30   S    
C31   C32   A    
C7    C16   A    
C9    H5    S    
C63   C64   A    
C62   H39   S    
N10   N12   A    
O5    H47   S    
C31   H15   S    
N15   Ni3   S    
C68   O4    D    
C21   H11   S    
C8    C17   A    
C55   C68   S    
C60   C64   S    
C42   H25   S    
C32   C33   A    
C55   C57   A    
C66   H42   S    
C25   C26   A    
C56   H38   S    
C38   C43   A    
C10   C16   A    
O6    C69   S    
C23   N10   A    
C45   N12   A    
C65   O1    D    
C27   C37   S    
C40   C50   S    
C33   C35   A    
C10   N6    A    
C22   C24   A    
N7    N16   A    
C62   N14   A    
C7    H3    S    
N9    N14   A    
C61   H36   S    
C6    H2    S    
C20   C21   A    
C49   C50   A    
C23   H21   S    
C27   C28   A    
C67   H45   S    
C59   H34   S    
C69   H48   S    
N1    N15   A    
C33   H17   S    
C69   H49   S    
C39   H23   S    
C2    C62   A    
C1    N1    A    
C3    C59   S    
