data_str_m2_o14_o14_f0_pcu.sym.10
_audit_creation_date              2012-10-26T19:04:12-0400
_audit_creation_method            fapswitch 2.2
_symmetry_space_group_name_H-M    P1
_symmetry_Int_Tables_number       1
_space_group_crystal_system       triclinic
_cell_length_a                    14.962226
_cell_length_b                    15.551151
_cell_length_c                    9.614596
_cell_angle_alpha                 90.122626
_cell_angle_beta                  89.913454
_cell_angle_gamma                 89.728156
_cell_volume                      2237.0897287

loop_
_atom_site_label
_atom_site_type_symbol
_atom_type_description
_atom_site_fract_x
_atom_site_fract_y
_atom_site_fract_z
_atom_type_partial_charge
C1    C     C_R   0.378311 0.884218 0.500050 0.544820
C2    C     C_R   0.746897 0.190730 0.405315 -0.119783
C3    C     C_R   0.272114 0.333095 0.512900 -0.118964
C4    C     C_R   0.247011 0.690627 0.405461 -0.119798
C5    C     C_R   0.682215 0.811671 0.500116 -0.045181
C6    C     C_R   0.677045 0.193223 0.501402 -0.046628
C7    C     C_R   0.182203 0.311659 0.500114 -0.045218
C8    C     C_R   0.177071 0.693201 0.501390 -0.046586
C9    C     C_R   0.664397 0.999389 0.143401 -0.079645
C10   C     C_R   0.164397 0.499383 0.143400 -0.079624
C11   C     C_R   0.744763 0.999388 0.071181 -0.155143
C12   C     C_R   0.381302 0.118545 0.499899 0.580462
C13   C     C_R   0.244763 0.499377 0.071180 -0.155136
C14   C     C_R   0.744815 0.999566 0.927876 -0.156564
C15   C     C_R   0.244815 0.499554 0.927875 -0.156573
C16   C     C_R   0.664500 0.999751 0.855884 -0.079029
C17   C     C_R   0.164500 0.499744 0.855883 -0.079018
C18   C     C_R   0.580817 0.999811 0.925062 0.157769
C19   C     C_R   0.080817 0.499805 0.925062 0.157796
C20   C     C_R   0.580773 0.999726 0.074538 0.162156
C21   C     C_R   0.080773 0.499721 0.074538 0.162146
C22   C     C_R   0.423168 0.000397 0.074058 0.024521
C23   C     C_R   0.878301 0.384227 0.500052 0.544763
C24   C     C_R   0.923168 0.500406 0.074059 0.024595
C25   C     C_R   0.615500 0.121431 0.500365 0.545141
C26   C     C_R   0.618199 0.881101 0.499946 0.523315
C27   C     C_R   0.115512 0.621422 0.500362 0.545133
C28   C     C_R   0.118190 0.381092 0.499946 0.523240
C29   C     C_R   0.423218 0.000483 0.926324 0.011299
C30   C     C_R   0.923219 0.500494 0.926326 0.011319
C31   C     C_R   0.194730 0.073807 0.462342 -0.114673
C32   C     C_R   0.220498 0.901671 0.681153 -0.109338
C33   C     C_R   0.694674 0.573774 0.463154 -0.114666
C34   C     C_R   0.881303 0.618547 0.499896 0.580463
C35   C     C_R   0.720619 0.401552 0.681507 -0.109345
C36   C     C_R   0.104527 0.052525 0.451575 -0.113722
C37   C     C_R   0.147350 0.907766 0.770310 -0.118459
C38   C     C_R   0.604452 0.552476 0.452843 -0.113694
C39   C     C_R   0.647553 0.407575 0.770836 -0.118525
C40   C     C_R   0.539301 0.616548 0.460807 -0.088291
C41   C     C_R   0.584113 0.342827 0.773037 -0.089401
C42   C     C_R   0.039363 0.116591 0.459446 -0.088383
C43   C     C_R   0.083907 0.843017 0.772513 -0.089419
C44   C     C_R   0.564157 0.702338 0.477102 -0.048710
C45   C     C_R   0.336668 0.269215 0.512187 0.345727
C46   C     C_R   0.593182 0.271884 0.685458 -0.022488
C47   C     C_R   0.064193 0.202360 0.476130 -0.048926
C48   C     C_R   0.093053 0.772001 0.685106 -0.022488
C49   C     C_R   0.655124 0.725246 0.486562 0.007458
C50   C     C_R   0.667441 0.263536 0.594670 0.020088
C51   C     C_R   0.155141 0.225254 0.486070 0.007370
C52   C     C_R   0.167389 0.763585 0.594492 0.020157
C53   C     C_R   0.221116 0.160024 0.482363 -0.037876
C54   C     C_R   0.232583 0.829320 0.593151 -0.032748
C55   C     C_R   0.721093 0.660011 0.482809 -0.037876
C56   C     C_R   0.310651 0.754328 0.404055 0.332217
C57   C     C_R   0.732633 0.329270 0.593328 -0.032728
C58   C     C_R   0.311705 0.183104 0.498705 0.019150
C59   C     C_R   0.305956 0.822168 0.499912 -0.004535
C60   C     C_R   0.811711 0.683110 0.498688 0.019145
C61   C     C_R   0.805930 0.322191 0.499920 -0.004525
C62   C     C_R   0.836705 0.769242 0.511652 0.345680
C63   C     C_R   0.810533 0.254431 0.403902 0.332167
C64   C     C_R   0.772153 0.833127 0.512361 -0.119040
Cu1   Cu    Cu3+1 0.499990 0.000000 0.640660 0.922133
Cu2   Cu    Cu3+1 0.999990 0.500000 0.640660 0.922103
Cu3   Cu    Cu3+1 0.500010 0.000000 0.359340 0.983177
Cu4   Cu    Cu3+1 0.000010 0.500000 0.359340 0.983266
F1    F     F_    0.423954 0.291609 0.521155 -0.664573
F2    F     F_    0.378667 0.748064 0.310772 -0.637703
F3    F     F_    0.924011 0.791644 0.520132 -0.664445
F4    F     F_    0.878456 0.248239 0.310444 -0.637834
H1    H     H_    0.807627 0.999514 0.871712 0.128142
H2    H     H_    0.765263 0.455711 0.680006 0.129435
H3    H     H_    0.085167 0.986082 0.437454 0.148602
H4    H     H_    0.139148 0.963734 0.836345 0.117580
H5    H     H_    0.585069 0.486017 0.438996 0.148666
H6    H     H_    0.639408 0.463491 0.837000 0.117583
H7    H     H_    0.469302 0.599797 0.453661 0.142208
H8    H     H_    0.526653 0.348292 0.841116 0.126076
H9    H     H_    0.969378 0.099850 0.451946 0.142430
H10   H     H_    0.026388 0.848536 0.840461 0.125976
H11   H     H_    0.511933 0.750389 0.483070 0.171528
H12   H     H_    0.307627 0.499500 0.871711 0.128171
H13   H     H_    0.539739 0.225685 0.688021 0.195427
H14   H     H_    0.011961 0.250406 0.482043 0.171752
H15   H     H_    0.039619 0.725790 0.687652 0.195198
H16   H     H_    0.792306 0.899778 0.521725 0.118412
H17   H     H_    0.753648 0.137664 0.332745 0.138211
H18   H     H_    0.292246 0.399732 0.522663 0.118421
H19   H     H_    0.253821 0.637501 0.333018 0.138121
H20   H     H_    0.360096 0.000733 0.129232 0.121672
H21   H     H_    0.860097 0.500749 0.129233 0.121715
H22   H     H_    0.672177 0.999178 0.252956 0.172470
H23   H     H_    0.672407 0.999838 0.746280 0.181417
H24   H     H_    0.172177 0.499177 0.252955 0.172489
H25   H     H_    0.807526 0.999247 0.127182 0.134319
H26   H     H_    0.307526 0.499235 0.127181 0.134363
H27   H     H_    0.172407 0.499835 0.746279 0.181388
H28   H     H_    0.360179 0.001117 0.871650 0.109223
H29   H     H_    0.860180 0.501144 0.871656 0.109160
H30   H     H_    0.243430 0.022490 0.454187 0.106289
H31   H     H_    0.265163 0.955819 0.679645 0.129374
H32   H     H_    0.743365 0.522457 0.454899 0.106198
N1    N     N_R   0.501200 1.000000 0.147910 -0.241047
N2    N     N_R   0.001200 0.500000 0.147910 -0.241045
N3    N     N_R   0.501270 1.000000 0.852040 -0.246616
N4    N     N_R   0.001270 0.500000 0.852040 -0.246595
O1    O     O_R   0.409820 0.909830 0.618810 -0.520545
O2    O     O_R   0.590170 0.909830 0.618760 -0.516354
O3    O     O_R   0.090170 0.590170 0.618760 -0.539586
O4    O     O_R   0.090170 0.409830 0.618760 -0.516288
O5    O     O_R   0.590190 0.090180 0.381190 -0.513529
O6    O     O_R   0.590190 0.909820 0.381190 -0.504275
O7    O     O_R   0.090190 0.590180 0.381190 -0.513415
O8    O     O_R   0.090190 0.409820 0.381190 -0.504418
O9    O     O_R   0.409820 0.090170 0.618810 -0.512715
O10   O     O_R   0.909820 0.409830 0.618810 -0.520510
O11   O     O_R   0.909820 0.590170 0.618810 -0.512908
O12   O     O_R   0.409840 0.909830 0.381240 -0.443775
O13   O     O_R   0.409840 0.090170 0.381240 -0.498369
O14   O     O_R   0.909840 0.409830 0.381240 -0.443720
O15   O     O_R   0.909840 0.590170 0.381240 -0.498184
O16   O     O_R   0.590170 0.090170 0.618760 -0.539596

loop_
_geom_bond_atom_site_label_1
_geom_bond_atom_site_label_2
_ccdc_geom_bond_type
C44   C49   A    
C33   C55   A    
Cu2   Cu4   S    
C35   H2    S    
C34   O15   A    
C22   C29   A    
C33   H32   S    
C36   C42   A    
C4    C8    A    
C44   H11   S    
C23   O10   A    
C39   C41   A    
C28   O4    A    
C3    H18   S    
C19   C21   A    
Cu3   O6    S    
C31   H30   S    
C3    C7    A    
C1    C59   S    
C11   C14   A    
C6    C25   S    
C60   C62   A    
Cu1   O16   S    
C13   H26   S    
C61   C63   A    
C18   N3    A    
C62   C64   A    
C28   O8    A    
C1    O1    A    
C12   O13   A    
Cu1   Cu3   S    
C41   C46   A    
Cu2   O3    S    
Cu3   O12   S    
C8    C52   A    
C40   C44   A    
C21   N2    A    
C4    H19   S    
C12   C58   S    
C19   N4    A    
C27   O3    A    
C55   C60   A    
C4    C56   A    
C34   C60   S    
C5    C49   A    
C2    C6    A    
C42   H9    S    
Cu4   N2    S    
C41   H8    S    
Cu3   O13   S    
Cu4   O15   S    
C32   C54   A    
C52   C54   A    
C23   O14   A    
C54   C59   A    
C10   C21   A    
C45   C58   A    
C48   H15   S    
C45   F1    S    
C47   H14   S    
Cu4   O14   S    
Cu3   N1    S    
C47   C51   A    
C49   C55   A    
C3    C45   A    
C6    C50   A    
C7    C28   S    
C5    C26   S    
C5    C64   A    
C51   C53   A    
C1    O12   A    
C37   C43   A    
C2    H17   S    
C35   C39   A    
C26   O6    A    
C36   H3    S    
C25   O5    A    
C9    C11   A    
C14   H1    S    
C9    C20   A    
C10   H24   S    
C40   H7    S    
C32   C37   A    
C31   C53   A    
C32   H31   S    
C17   H27   S    
Cu1   O1    S    
Cu4   O8    S    
C37   H4    S    
C56   F2    S    
Cu2   O11   S    
C13   C15   A    
C14   C16   A    
C24   N2    A    
C2    C63   A    
C20   N1    A    
C43   C48   A    
C23   C61   S    
C34   O11   A    
C15   C17   A    
C26   O2    A    
C16   H23   S    
C22   H20   S    
C29   H28   S    
C30   N4    A    
C50   C57   A    
Cu2   N4    S    
C10   C13   A    
C53   C58   A    
C57   C61   A    
C15   H12   S    
C38   H5    S    
C22   N1    A    
C46   C50   A    
C33   C38   A    
C56   C59   A    
C11   H25   S    
C35   C57   A    
C46   H13   S    
Cu3   O5    S    
C7    C51   A    
C24   H21   S    
C38   C40   A    
C30   H29   S    
C17   C19   A    
C64   H16   S    
C62   F3    S    
C18   C20   A    
C42   C47   A    
C25   O16   A    
C24   C30   A    
Cu1   O2    S    
Cu4   O7    S    
C12   O9    A    
C48   C52   A    
C63   F4    S    
C16   C18   A    
Cu2   O10   S    
C8    C27   S    
Cu1   O9    S    
C31   C36   A    
C29   N3    A    
Cu2   O4    S    
C39   H6    S    
C9    H22   S    
Cu1   N3    S    
C43   H10   S    
C27   O7    A    
