data_str_m9_o2_o16_f0_sra.sym.71
_audit_creation_date              2012-12-11T16:25:34-0500
_audit_creation_method            fapswitch 2.2
_symmetry_space_group_name_H-M    P1
_symmetry_Int_Tables_number       1
_space_group_crystal_system       triclinic
_cell_length_a                    20.173501
_cell_length_b                    7.265286
_cell_length_c                    13.458083
_cell_angle_alpha                 90.433166
_cell_angle_beta                  103.226774
_cell_angle_gamma                 89.344639
_cell_volume                      1920.024126

loop_
_atom_site_label
_atom_site_type_symbol
_atom_type_description
_atom_site_fract_x
_atom_site_fract_y
_atom_site_fract_z
_atom_type_partial_charge
O1    O     O_R   0.449520 0.506760 0.599710 -0.537108
O2    O     O_R   0.550480 0.006760 0.400290 -0.537013
O3    O     O_R   0.587930 0.180200 0.595790 -0.538580
O4    O     O_R   0.412070 0.680200 0.404210 -0.538586
C1    C     C_R   0.614498 0.343985 0.617297 0.693287
C2    C     C_R   0.385508 0.844760 0.382710 0.693684
O5    O     O_R   0.452350 0.177380 0.611700 -0.540776
O6    O     O_R   0.547650 0.677380 0.388300 -0.541071
O7    O     O_R   0.413930 0.001760 0.416320 -0.535176
O8    O     O_R   0.586070 0.501760 0.583680 -0.535916
C3    C     C_R   0.436531 0.346822 0.637956 0.679458
C4    C     C_R   0.563540 0.844338 0.362022 0.679311
O9    O     O_3   0.487550 0.337460 0.435880 -0.377209
O10   O     O_3   0.512450 0.837460 0.564120 -0.377346
V1    V     V_3+5 0.502310 0.064670 0.511900 1.418979
V2    V     V_3+5 0.497690 0.564670 0.488100 1.418279
C5    C     C_R   0.610860 0.791055 0.109623 -0.166275
C6    C     C_R   0.388652 0.443661 0.886681 -0.164936
H1    H     H_    0.517340 0.786687 0.159620 0.101813
H2    H     H_    0.482221 0.438385 0.836638 0.102262
H3    H     H_    0.694962 0.761918 0.985167 0.139782
H4    H     H_    0.304226 0.493688 0.009299 0.140435
H5    H     H_    0.585573 0.761186 0.031149 0.114935
H6    H     H_    0.413687 0.485871 0.963398 0.114907
C7    C     C_R   0.603141 0.846086 0.283775 -0.025156
C8    C     C_R   0.396820 0.360716 0.715838 -0.025131
C9    C     C_R   0.930462 0.901530 0.317356 -0.174506
C10   C     C_R   0.069939 0.302277 0.685316 -0.174716
C11   C     C_R   0.894548 0.913603 0.393728 -0.124207
C12   C     C_R   0.106067 0.275890 0.610014 -0.122827
C13   C     C_R   0.824027 0.895319 0.370301 -0.163956
C14   C     C_R   0.176464 0.296992 0.632466 -0.165444
C15   C     C_R   0.787340 0.862612 0.268682 0.064943
C16   C     C_R   0.212804 0.347046 0.731924 0.063429
C17   C     C_R   0.824807 0.845028 0.191088 0.059880
C18   C     C_R   0.175135 0.378172 0.808271 0.060385
C19   C     C_R   0.714849 0.847622 0.241425 0.060131
C20   C     C_R   0.285138 0.366539 0.758239 0.058891
C21   C     C_R   0.681861 0.810080 0.138119 0.132194
C22   C     C_R   0.317795 0.420570 0.859290 0.131734
C23   C     C_R   0.719825 0.790567 0.063988 -0.193384
C24   C     C_R   0.279636 0.452324 0.932214 -0.195600
C25   C     C_R   0.790043 0.809203 0.089684 -0.202473
C26   C     C_R   0.209546 0.430458 0.907487 -0.201871
C27   C     C_R   0.673716 0.867569 0.313105 -0.222164
C28   C     C_R   0.326419 0.335338 0.687697 -0.221926
C29   C     C_R   0.571857 0.806844 0.182298 -0.179970
C30   C     C_R   0.427822 0.415646 0.815026 -0.180546
C31   C     C_R   0.896441 0.866668 0.216407 -0.068967
C32   C     C_R   0.103642 0.353821 0.784032 -0.068872
H7    H     H_    0.694775 0.895260 0.392771 0.104064
H8    H     H_    0.305609 0.295162 0.609669 0.103597
H9    H     H_    0.985103 0.920646 0.336977 0.100835
H10   H     H_    0.015407 0.281168 0.666683 0.101016
H11   H     H_    0.921508 0.939561 0.471781 0.121709
H12   H     H_    0.079378 0.236740 0.533655 0.121705
H13   H     H_    0.816862 0.794829 0.028952 0.134673
H14   H     H_    0.182522 0.455468 0.967186 0.134342
H15   H     H_    0.101278 0.684498 0.462427 0.119272
H16   H     H_    0.897123 0.504490 0.531291 0.119349
C33   C     C_R   0.233740 0.942989 0.040627 -0.140013
C34   C     C_R   0.767139 0.288903 0.962066 -0.140230
C35   C     C_R   0.290295 0.983601 0.001925 -0.101739
C36   C     C_R   0.710913 0.253030 0.002482 -0.099923
C37   C     C_R   0.355012 0.983317 0.065937 -0.135475
C38   C     C_R   0.646118 0.246808 0.938940 -0.135748
C39   C     C_R   0.363718 0.941309 0.169057 -0.146301
C40   C     C_R   0.636995 0.277713 0.834562 -0.146619
C41   C     C_R   0.307309 0.898654 0.210476 0.067837
C42   C     C_R   0.693066 0.315282 0.791309 0.068772
C43   C     C_R   0.240953 0.900091 0.145043 0.058494
C44   C     C_R   0.759526 0.320254 0.856302 0.058528
C45   C     C_R   0.316220 0.852440 0.314902 -0.178164
C46   C     C_R   0.683650 0.350938 0.685488 -0.178926
C47   C     C_R   0.258839 0.806951 0.353849 0.064419
C48   C     C_R   0.740614 0.392840 0.644742 0.064149
C49   C     C_R   0.192484 0.808629 0.288441 0.070711
C50   C     C_R   0.807085 0.397348 0.709698 0.071370
C51   C     C_R   0.183519 0.856341 0.184233 -0.176880
C52   C     C_R   0.816590 0.359680 0.815311 -0.177331
C53   C     C_R   0.266135 0.761161 0.457920 -0.147550
C54   C     C_R   0.732848 0.428380 0.539339 -0.148643
C55   C     C_R   0.209696 0.717486 0.496229 -0.123784
C56   C     C_R   0.788886 0.468633 0.499327 -0.124371
C57   C     C_R   0.144956 0.718520 0.432270 -0.125923
C58   C     C_R   0.853732 0.473484 0.562788 -0.126432
C59   C     C_R   0.136152 0.763753 0.329558 -0.141025
C60   C     C_R   0.863032 0.437844 0.666723 -0.140479
H17   H     H_    0.184507 0.944219 0.987621 0.113163
H18   H     H_    0.816417 0.293134 0.014819 0.113962
H19   H     H_    0.283836 0.015436 0.921792 0.130815
H20   H     H_    0.717696 0.229773 0.083582 0.129251
H21   H     H_    0.398756 0.015290 0.035486 0.118755
H22   H     H_    0.602623 0.218616 0.970737 0.118798
H23   H     H_    0.415082 0.941953 0.215713 0.094470
H24   H     H_    0.585521 0.273197 0.788460 0.094580
H25   H     H_    0.315366 0.759423 0.510921 0.114342
H26   H     H_    0.683562 0.424923 0.486591 0.115478
H27   H     H_    0.216257 0.683072 0.576044 0.130179
H28   H     H_    0.781939 0.495747 0.418573 0.129000
H29   H     H_    0.084798 0.763175 0.282896 0.094910
H30   H     H_    0.914507 0.442047 0.712793 0.094461
O11   O     O_R   0.913760 0.203480 0.916370 -0.533207
O12   O     O_R   0.086240 0.703480 0.083630 -0.535475
O13   O     O_R   0.047590 0.535230 0.888250 -0.541296
O14   O     O_R   0.952410 0.035230 0.111750 -0.539589
C61   C     C_R   0.063808 0.367173 0.862221 0.672080
C62   C     C_R   0.936118 0.869498 0.137805 0.672012
O15   O     O_R   0.912020 0.532880 0.904260 -0.539461
O16   O     O_R   0.087980 0.032880 0.095740 -0.536664
O17   O     O_R   0.949590 0.708460 0.099750 -0.538646
O18   O     O_R   0.050410 0.208460 0.900250 -0.536499
C63   C     C_R   0.885807 0.365436 0.883327 0.683187
C64   C     C_R   0.114206 0.864446 0.116583 0.683592
O19   O     O_3   0.012370 0.375360 0.064120 -0.376531
O20   O     O_3   0.987630 0.875360 0.935880 -0.376513
V3    V     V_3+5 0.997700 0.648160 0.988110 1.412704
V4    V     V_3+5 0.002300 0.148160 0.011890 1.420324
H31   H     H_    0.800012 0.907355 0.433744 0.120974
H32   H     H_    0.200650 0.273182 0.569994 0.120549

loop_
_geom_bond_atom_site_label_1
_geom_bond_atom_site_label_2
_ccdc_geom_bond_type
C38   C40   A    
C35   C37   A    
C9    C11   A    
C54   H26   S    
C61   O18   A    
O1    C3    A    
O2    C4    A    
O16   V4    S    
C2    O7    A    
C43   C51   A    
O15   V3    S    
C21   C23   A    
O5    C3    A    
O13   C61   A    
C40   H24   S    
C46   C48   A    
C6    H6    S    
O11   C63   A    
C56   C58   A    
C58   C60   A    
C27   H7    S    
C28   H8    S    
O20   V3    S    
C41   C43   A    
C5    C21   A    
C1    C46   S    
C33   C35   A    
C6    C22   A    
C34   C36   A    
C59   H29   S    
C10   C32   A    
C26   H14   S    
C37   C39   A    
C17   C31   A    
C13   C15   A    
C41   C45   A    
C17   C25   A    
C7    C29   A    
C16   C18   A    
O15   C63   A    
C38   H22   S    
C33   C43   A    
C22   C24   A    
O6    V2    S    
C20   C22   A    
C55   H27   S    
O14   V4    S    
C39   H23   S    
C45   C47   A    
O13   V3    S    
C24   C26   A    
C14   H32   S    
C11   C13   A    
C53   C55   A    
C33   H17   S    
C51   C64   S    
C31   C62   S    
C49   C51   A    
C57   C59   A    
C56   H28   S    
O4    C2    A    
C48   C54   A    
C10   H10   S    
C47   C53   A    
C11   H11   S    
C3    C8    S    
C12   H12   S    
C15   C19   A    
C44   C52   A    
C39   C41   A    
C36   C38   A    
O4    V2    S    
H15   C57   S    
C42   C46   A    
O18   V4    S    
C25   H13   S    
O6    C4    A    
O19   V4    S    
C50   C52   A    
C34   C44   A    
O1    V2    S    
C5    H5    S    
O2    V1    S    
C47   C49   A    
C13   H31   S    
H2    C30   S    
H3    C23   S    
C55   C57   A    
C54   C56   A    
C32   C61   S    
O12   C64   A    
C18   C26   A    
O11   V4    S    
C36   H20   S    
C19   C27   A    
C7    C27   A    
C18   C32   A    
C2    C45   S    
O12   V3    S    
C50   C60   A    
O16   C64   A    
H16   C58   S    
C16   C20   A    
C23   C25   A    
C5    C29   A    
C48   C50   A    
O3    C1    A    
C6    C30   A    
C60   H30   S    
C9    H9    S    
C8    C30   A    
C62   O17   A    
C4    C7    S    
O17   V3    S    
C10   C12   A    
O7    V1    S    
C1    O8    A    
C19   C21   A    
O8    V2    S    
C12   C14   A    
H4    C24   S    
O14   C62   A    
C34   H18   S    
O5    V1    S    
C37   H21   S    
C15   C17   A    
H1    C29   S    
C20   C28   A    
C8    C28   A    
C52   C63   S    
C49   C59   A    
C40   C42   A    
O9    V2    S    
C35   H19   S    
C53   H25   S    
O10   V1    S    
O3    V1    S    
C42   C44   A    
C9    C31   A    
C14   C16   A    
