data_str_m12_o10_o22_f0_bcu.sym.171
_audit_creation_date              2013-03-05T15:39:31-0500
_audit_creation_method            fapswitch 2.2
_symmetry_space_group_name_H-M    P1
_symmetry_Int_Tables_number       1
_space_group_crystal_system       triclinic
_cell_length_a                    19.744616
_cell_length_b                    16.942864
_cell_length_c                    15.577932
_cell_angle_alpha                 90.059374
_cell_angle_beta                  53.77294
_cell_angle_gamma                 89.809605
_cell_volume                      4203.79860407

loop_
_atom_site_label
_atom_site_type_symbol
_atom_site_description
_atom_site_fract_x
_atom_site_fract_y
_atom_site_fract_z
_atom_type_partial_charge
C1    C     C_R   0.378218 0.198160 0.990541 -0.150185
C2    C     C_R   0.374765 0.802830 0.995712 -0.145374
C3    C     C_R   0.838681 0.672281 0.053749 -0.109358
C4    C     C_R   0.876933 0.302003 0.992359 -0.145947
H1    H     H_    0.393648 0.254369 0.005900 0.167245
H2    H     H_    0.384784 0.747171 0.019299 0.139128
H3    H     H_    0.826607 0.717129 0.110144 0.109832
H4    H     H_    0.891480 0.245933 0.009260 0.165915
N1    N     N_R   0.408680 0.130160 0.995800 -0.040878
N2    N     N_R   0.408680 0.869840 0.995800 -0.043157
N3    N     N_R   0.908680 0.630160 0.995800 -0.034604
N4    N     N_R   0.908680 0.369840 0.995800 -0.041262
C5    C     C_R   0.392239 0.801635 0.208627 0.297499
C6    C     C_R   0.361299 0.183458 0.217893 0.329278
C7    C     C_R   0.863533 0.315424 0.217802 0.322409
C8    C     C_R   0.904801 0.701651 0.202263 0.234692
N5    N     N_R   0.421680 0.867580 0.153120 -0.052928
N6    N     N_R   0.421680 0.132420 0.153120 -0.049731
N7    N     N_R   0.921680 0.367580 0.153120 -0.050280
N8    N     N_R   0.921680 0.632420 0.153120 -0.054894
C9    C     C_R   0.366467 0.888431 0.896069 -0.115075
C10   C     C_R   0.367529 0.111741 0.894515 -0.104430
C11   C     C_R   0.867604 0.387619 0.894623 -0.124416
C12   C     C_R   0.827718 0.585631 0.955987 -0.100899
H5    H     H_    0.364054 0.913702 0.834172 0.115297
H6    H     H_    0.365124 0.085816 0.832882 0.113653
H7    H     H_    0.866021 0.412725 0.832015 0.116596
H8    H     H_    0.804998 0.550497 0.919963 0.125068
N9    N     N_R   0.403730 0.921770 0.935950 -0.048104
N10   N     N_R   0.403730 0.078230 0.935950 -0.048582
N11   N     N_R   0.903730 0.421770 0.935950 -0.050015
N12   N     N_R   0.903730 0.578230 0.935950 -0.047614
C13   C     C_R   0.362065 0.084786 0.313961 -0.211736
C14   C     C_R   0.399158 0.893740 0.306231 -0.213796
C15   C     C_R   0.910562 0.609767 0.299757 -0.208051
C16   C     C_R   0.863639 0.414378 0.314472 -0.211850
H9    H     H_    0.351635 0.049690 0.378412 0.116960
H10   H     H_    0.399568 0.923290 0.367449 0.109820
H11   H     H_    0.913483 0.580042 0.358906 0.109225
H12   H     H_    0.853259 0.450084 0.378733 0.118339
N13   N     N_R   0.426630 0.075970 0.212960 -0.049037
N14   N     N_R   0.426630 0.924030 0.212960 -0.045132
N15   N     N_R   0.926630 0.575970 0.212960 -0.045158
N16   N     N_R   0.926630 0.424030 0.212960 -0.048990
C17   C     C_R   0.351253 0.188704 0.928523 0.072673
C18   C     C_R   0.348217 0.812234 0.932881 0.083056
C19   C     C_R   0.785414 0.645883 0.031068 0.080359
C20   C     C_R   0.850148 0.310826 0.929927 0.078464
C21   C     C_R   0.372438 0.818456 0.307975 -0.031133
C22   C     C_R   0.317470 0.151004 0.320004 -0.053619
C23   C     C_R   0.820362 0.347328 0.320442 -0.051706
C24   C     C_R   0.894035 0.688348 0.297125 -0.016581
C25   C     C_R   0.659212 0.178865 0.959172 -0.109362
C26   C     C_R   0.624059 0.799897 0.011731 -0.065227
C27   C     C_R   0.156390 0.681563 0.962370 -0.155543
C28   C     C_R   0.157790 0.319087 0.961206 -0.112478
H13   H     H_    0.668573 0.233398 0.919173 0.198458
H14   H     H_    0.619952 0.743519 0.984286 0.190325
H15   H     H_    0.164432 0.735329 0.921033 0.180763
H16   H     H_    0.167030 0.264689 0.920701 0.198636
N17   N     N_R   0.591320 0.134600 0.004200 -0.046493
N18   N     N_R   0.591320 0.865400 0.004200 -0.064331
N19   N     N_R   0.091320 0.634600 0.004200 -0.053105
N20   N     N_R   0.091320 0.365400 0.004200 -0.048718
C29   C     C_R   0.641883 0.819835 0.779582 0.345463
C30   C     C_R   0.603549 0.198818 0.790373 0.329082
C31   C     C_R   0.103421 0.301144 0.789858 0.328914
C32   C     C_R   0.111475 0.696094 0.785695 0.294917
N21   N     N_R   0.578320 0.867660 0.846880 -0.079670
N22   N     N_R   0.578320 0.132340 0.846880 -0.082348
N23   N     N_R   0.078320 0.367660 0.846880 -0.084743
N24   N     N_R   0.078320 0.632340 0.846880 -0.088480
C33   C     C_R   0.590508 0.107005 0.699192 -0.205163
C34   C     C_R   0.635382 0.917130 0.685735 -0.184364
C35   C     C_R   0.101314 0.601240 0.693144 -0.183515
C36   C     C_R   0.091378 0.393658 0.698466 -0.198312
H17   H     H_    0.581469 0.077314 0.645303 0.115712
H18   H     H_    0.643588 0.954111 0.623984 0.118462
H19   H     H_    0.097820 0.568859 0.636083 0.113194
H20   H     H_    0.084104 0.424462 0.643695 0.116693
N25   N     N_R   0.573370 0.074390 0.787040 -0.051790
N26   N     N_R   0.573370 0.925610 0.787040 -0.053153
N27   N     N_R   0.073370 0.574390 0.787040 -0.052584
N28   N     N_R   0.073370 0.425610 0.787040 -0.053771
C37   C     C_R   0.633327 0.894441 0.104982 -0.141200
C38   C     C_R   0.668823 0.082239 0.051830 -0.136483
C39   C     C_R   0.164996 0.412263 0.059098 -0.137296
C40   C     C_R   0.163864 0.588830 0.060917 -0.133651
H21   H     H_    0.638153 0.921866 0.163872 0.094626
H22   H     H_    0.689413 0.048477 0.091357 0.107057
H23   H     H_    0.181225 0.438670 0.107565 0.096991
H24   H     H_    0.179623 0.563122 0.110263 0.092162
N29   N     N_R   0.596270 0.927870 0.064040 -0.045031
N30   N     N_R   0.596270 0.072130 0.064040 -0.048112
N31   N     N_R   0.096270 0.427870 0.064040 -0.046715
N32   N     N_R   0.096270 0.572130 0.064040 -0.040532
Ni1   Ni    Ni4+2 0.500000 0.131190 0.000000 0.266415
Ni2   Ni    Ni4+2 0.500000 0.868810 0.000000 0.242758
Ni3   Ni    Ni4+2 1.000000 0.631190 0.000000 0.252064
Ni4   Ni    Ni4+2 1.000000 0.368810 0.000000 0.263205
Ni5   Ni    Ni4+2 0.488650 1.000000 0.862740 0.196084
Ni6   Ni    Ni4+2 0.988650 0.500000 0.862740 0.202787
Ni7   Ni    Ni4+2 0.511350 0.000000 0.137260 0.201367
Ni8   Ni    Ni4+2 0.011350 0.500000 0.137260 0.202387
C41   C     C_R   0.709956 0.146294 0.984060 0.114743
C42   C     C_R   0.649959 0.815351 0.074549 0.133286
C43   C     C_R   0.204791 0.651837 0.992033 0.149914
C44   C     C_R   0.206762 0.349542 0.989383 0.120993
C45   C     C_R   0.679810 0.850105 0.676783 -0.162376
C46   C     C_R   0.609801 0.185452 0.698145 -0.152143
C47   C     C_R   0.109594 0.314802 0.697732 -0.151688
C48   C     C_R   0.129362 0.676478 0.687466 -0.105478
C49   C     C_3   0.198728 0.132243 0.513195 -0.435641
C50   C     C_3   0.231885 0.836528 0.475416 -0.425891
C51   C     C_3   0.756412 0.690026 0.467340 -0.426347
C52   C     C_3   0.700120 0.366672 0.512887 -0.430399
H25   H     H_    0.236165 0.095533 0.530359 0.175193
H26   H     H_    0.251261 0.892259 0.492972 0.165972
H27   H     H_    0.766656 0.628017 0.481036 0.165931
H28   H     H_    0.736654 0.403940 0.530727 0.175142
H29   H     H_    0.167097 0.091624 0.491104 0.160574
H30   H     H_    0.206008 0.852703 0.430753 0.161163
H31   H     H_    0.723720 0.687295 0.428648 0.161597
H32   H     H_    0.668694 0.406720 0.489700 0.159938
C53   C     C_3   0.132376 0.178252 0.615387 -0.346676
C54   C     C_3   0.162961 0.798304 0.581255 -0.347793
C55   C     C_3   0.700145 0.730734 0.574840 -0.362155
C56   C     C_3   0.633460 0.321371 0.614889 -0.350635
H33   H     H_    0.636948 0.741225 0.593649 0.157259
H34   H     H_    0.571178 0.327370 0.629720 0.152948
H35   H     H_    0.069816 0.172480 0.631065 0.154508
H36   H     H_    0.103731 0.794733 0.587919 0.160592
H37   H     H_    0.126194 0.149681 0.682905 0.227282
H38   H     H_    0.150310 0.836337 0.647116 0.224387
H39   H     H_    0.692286 0.689708 0.635322 0.217971
H40   H     H_    0.626487 0.350237 0.682865 0.225332
H41   H     H_    0.351844 0.197449 0.451427 0.161243
H42   H     H_    0.367694 0.811530 0.484976 0.160693
H43   H     H_    0.893333 0.686179 0.474647 0.166026
H44   H     H_    0.852645 0.301691 0.454717 0.161636
H45   H     H_    0.819488 0.764627 0.621065 0.217018
H46   H     H_    0.762498 0.248145 0.614885 0.208078
H47   H     H_    0.262246 0.250309 0.612571 0.208363
H48   H     H_    0.268173 0.754103 0.640460 0.199402
C57   C     C_3   0.308071 0.237819 0.449549 -0.399233
C58   C     C_3   0.344498 0.757800 0.468943 -0.403238
C59   C     C_3   0.882665 0.744926 0.452582 -0.418322
C60   C     C_3   0.810025 0.261060 0.451304 -0.399629
C61   C     C_3   0.820471 0.818459 0.374055 -0.395744
C62   C     C_3   0.699415 0.251039 0.414555 -0.407334
C63   C     C_3   0.195087 0.246766 0.416128 -0.408672
C64   C     C_3   0.276242 0.702936 0.387252 -0.400156
C65   C     C_3   0.256050 0.191586 0.421361 0.417086
C66   C     C_3   0.308217 0.779045 0.407342 0.399357
C67   C     C_3   0.840641 0.735310 0.394924 0.394707
C68   C     C_3   0.758763 0.306889 0.421527 0.413447
H49   H     H_    0.878390 0.854651 0.327236 0.173563
H50   H     H_    0.730718 0.209968 0.347276 0.179105
H51   H     H_    0.224412 0.286491 0.347900 0.178766
H52   H     H_    0.327455 0.658669 0.343454 0.176355
H53   H     H_    0.792103 0.814149 0.330273 0.161096
H54   H     H_    0.655757 0.286827 0.407091 0.161470
H55   H     H_    0.150250 0.210377 0.411961 0.162084
H56   H     H_    0.250783 0.716268 0.341364 0.163910
C69   C     C_3   0.739806 0.809622 0.574244 0.404284
C70   C     C_3   0.658694 0.232443 0.600073 0.416446
C71   C     C_3   0.157441 0.267092 0.599983 0.414741
C72   C     C_3   0.191947 0.715017 0.586486 0.391521
C73   C     C_3   0.825756 0.794926 0.554203 -0.377941
C74   C     C_3   0.751530 0.222148 0.558772 -0.398550
C75   C     C_3   0.250473 0.276767 0.557413 -0.402468
C76   C     C_3   0.275963 0.719393 0.574655 -0.402095
C77   C     C_3   0.757261 0.860012 0.479442 -0.412553
C78   C     C_3   0.649386 0.199921 0.514282 -0.426202
C79   C     C_3   0.146840 0.299291 0.515129 -0.426634
C80   C     C_3   0.207553 0.665954 0.491839 -0.419480
H57   H     H_    0.698211 0.868883 0.486499 0.156044
H58   H     H_    0.582204 0.198816 0.544896 0.157147
H59   H     H_    0.079340 0.301651 0.547225 0.157333
H60   H     H_    0.149012 0.662422 0.496738 0.158585
H61   H     H_    0.782175 0.919092 0.478745 0.157356
H62   H     H_    0.674548 0.138575 0.491422 0.160957
H63   H     H_    0.172805 0.360028 0.490788 0.162490
H64   H     H_    0.227809 0.604690 0.492875 0.159302
H65   H     H_    0.347455 0.283717 0.390018 0.165095
H66   H     H_    0.398637 0.716507 0.421160 0.159994
H67   H     H_    0.944889 0.773885 0.399091 0.157691
H68   H     H_    0.850427 0.215122 0.391657 0.163909
H69   H     H_    0.856464 0.852470 0.544829 0.154823
H70   H     H_    0.768141 0.158302 0.551157 0.153181
H71   H     H_    0.267057 0.340465 0.550098 0.154662
H72   H     H_    0.296570 0.658987 0.578226 0.156398
C81   C     C_2   0.274767 0.691883 0.976735 -0.220940
C82   C     C_2   0.278158 0.310076 0.972266 -0.211315
C83   C     C_2   0.781537 0.186052 0.967474 -0.203096
C84   C     C_2   0.694964 0.760402 0.096168 -0.236164
H73   H     H_    0.276685 0.686737 0.044698 0.098411
H74   H     H_    0.280548 0.315247 0.039897 0.102306
H75   H     H_    0.785051 0.179289 0.034006 0.103034
H76   H     H_    0.738090 0.790437 0.106425 0.114611
C85   C     C_2   0.821075 0.246048 0.897918 0.258669
C86   C     C_2   0.704843 0.682529 0.070781 0.258456
C87   C     C_2   0.316786 0.748799 0.903599 0.283710
C88   C     C_2   0.320429 0.252767 0.898847 0.262792
C89   C     C_3   0.418786 0.722270 0.155335 -1.060743
H77   H     H_    0.469898 0.728695 0.069481 0.286777
H78   H     H_    0.444243 0.685560 0.188872 0.246363
H79   H     H_    0.365158 0.691543 0.165120 0.242677
C90   C     C_3   0.367396 0.268607 0.187415 -1.060011
H80   H     H_    0.430501 0.280238 0.114052 0.305053
H81   H     H_    0.318666 0.283445 0.175721 0.234124
H82   H     H_    0.361555 0.309358 0.246667 0.243706
C91   C     C_3   0.872621 0.230161 0.186085 -1.052021
H83   H     H_    0.935572 0.219951 0.111413 0.305051
H84   H     H_    0.869633 0.190275 0.244103 0.243532
H85   H     H_    0.823634 0.213215 0.175844 0.233404
C92   C     C_3   0.939459 0.776598 0.138994 -0.957552
H86   H     H_    0.982094 0.762589 0.053085 0.291525
H87   H     H_    0.888575 0.815076 0.152209 0.237556
H88   H     H_    0.977259 0.808769 0.159120 0.243137
C93   C     C_3   0.834197 0.250434 0.792243 -0.972055
H89   H     H_    0.902142 0.258387 0.728095 0.235533
H90   H     H_    0.814291 0.195651 0.773894 0.253063
H91   H     H_    0.799720 0.301854 0.791521 0.281793
C94   C     C_3   0.638756 0.631945 0.078922 -0.958746
H92   H     H_    0.632250 0.576302 0.120748 0.242148
H93   H     H_    0.576833 0.661532 0.126689 0.244111
H94   H     H_    0.657020 0.616826 0.998422 0.280806
C95   C     C_3   0.329563 0.751635 0.797910 -0.996832
H95   H     H_    0.397261 0.760437 0.733403 0.244977
H96   H     H_    0.310859 0.695775 0.780077 0.252326
H97   H     H_    0.293852 0.801818 0.796793 0.270557
C96   C     C_3   0.333928 0.250166 0.792863 -0.973831
H98   H     H_    0.402131 0.243632 0.728595 0.235014
H99   H     H_    0.301106 0.198589 0.789696 0.281973
H100  H     H_    0.312495 0.305130 0.776795 0.253355
N33   N     N_R   0.646670 0.740451 0.806763 0.195694
O1    O     O_R   0.578737 0.698290 0.861381 -0.446633
O2    O     O_R   0.715993 0.712269 0.786716 -0.467205
N34   N     N_R   0.603815 0.274181 0.831735 0.202122
O3    O     O_R   0.672780 0.314685 0.785096 -0.482992
O4    O     O_R   0.540157 0.295799 0.925858 -0.459805
N35   N     N_R   0.104220 0.225661 0.830273 0.202340
O5    O     O_R   0.039087 0.202181 0.921730 -0.455911
O6    O     O_R   0.173711 0.185435 0.784257 -0.481658
N36   N     N_R   0.090755 0.774278 0.828722 0.206472
O7    O     O_R   0.149485 0.823126 0.807306 -0.468560
O8    O     O_R   0.014806 0.800726 0.874102 -0.413067

loop_
_geom_bond_atom_site_label_1
_geom_bond_atom_site_label_2
_geom_bond_distance
_ccdc_geom_bond_type
N7    Ni4   1.929216 S    
C64   H52   1.108581 S    
N27   Ni6   1.860872 S    
C58   C76   1.529905 S    
C59   H67   1.113257 S    
N28   Ni6   1.851665 S    
C27   H15   1.072860 S    
C6    N6    1.325410 A    
C14   N14   1.319302 A    
C85   C93   1.509579 S    
C4    H4    1.068820 S    
C29   N33   1.429995 S    
N14   Ni7   1.879204 S    
H44   C60   1.114242 S    
C34   C45   1.388158 A    
C57   C75   1.512036 S    
N16   Ni8   1.879204 S    
C49   H25   1.111573 S    
C33   C46   1.381293 A    
N25   Ni5   1.860872 S    
C89   H77   1.106674 S    
C2    C18   1.365402 A    
C24   C67   1.469374 S    
C7    N7    1.324953 A    
H43   C59   1.112713 S    
C35   C48   1.373523 A    
C88   C96   1.509462 S    
C1    H1    1.069866 S    
C79   H59   1.113461 S    
H41   C57   1.114304 S    
C55   C69   1.548606 S    
C53   C71   1.559966 S    
C55   H39   1.106430 S    
N23   N28   1.396952 A    
C95   H97   1.109473 S    
C54   C72   1.541238 S    
C56   H40   1.098008 S    
C26   H14   1.068839 S    
C50   C54   1.531610 S    
C81   H73   1.085129 S    
C91   H85   1.107958 S    
C49   C53   1.543952 S    
C22   C65   1.471534 S    
C69   C77   1.559371 S    
N35   O5    1.296483 A    
C48   C72   1.462117 S    
C90   H82   1.101968 S    
C51   C55   1.519154 S    
N3    Ni3   1.842640 S    
C32   C48   1.391430 A    
C3    C19   1.368613 A    
N2    Ni2   1.842528 S    
N22   N25   1.396050 A    
N15   Ni8   1.869892 S    
C28   C44   1.377823 A    
N5    Ni2   1.929216 S    
N19   Ni3   1.843591 S    
N21   N26   1.396952 A    
C38   N30   1.340641 A    
C90   H81   1.108043 S    
N18   Ni2   1.843220 S    
C37   N29   1.346287 A    
C62   H50   1.092999 S    
C39   C44   1.386352 A    
C40   H24   1.077009 S    
N1    Ni1   1.842640 S    
C78   H62   1.113828 S    
N35   O6    1.300458 A    
C39   N31   1.338401 A    
C74   H70   1.114984 S    
C60   C74   1.514340 S    
C28   N20   1.319032 A    
N6    Ni1   1.929052 S    
C11   H7    1.081639 S    
C4    N4    1.327100 A    
C59   C67   1.550250 S    
C96   H98   1.110530 S    
C78   H58   1.113473 S    
C61   C77   1.522660 S    
C6    C90   1.502063 S    
N22   Ni1   1.929198 S    
C32   N24   1.331597 A    
H46   C74   1.108412 S    
C63   H55   1.113354 S    
C57   C65   1.548924 S    
N21   Ni2   1.929044 S    
C91   H84   1.102516 S    
C59   C73   1.540994 S    
C30   N34   1.431048 S    
C77   H61   1.114027 S    
C62   C68   1.561367 S    
N33   O1    1.300772 A    
C56   C70   1.558839 S    
N34   O4    1.296675 A    
C36   N28   1.319334 A    
C2    H2    1.071840 S    
C27   N19   1.314048 A    
C25   N17   1.322055 A    
C55   H33   1.113886 S    
C34   N26   1.313303 A    
C6    C22   1.399788 A    
C33   N25   1.322156 A    
C96   H100  1.109970 S    
C90   H80   1.102923 S    
C86   C94   1.505083 S    
C83   H75   1.085044 S    
C89   H78   1.105175 S    
C69   C73   1.552481 S    
C82   C88   1.345917 D    
C62   H54   1.113261 S    
N36   O8    1.300447 A    
C23   C68   1.473901 S    
C70   C78   1.553360 S    
C51   H31   1.114488 S    
C39   H23   1.076630 S    
C26   C42   1.370957 A    
N9    Ni5   1.904341 S    
N11   Ni6   1.904341 S    
C8    C24   1.381835 A    
C21   C66   1.462057 S    
C16   H12   1.079592 S    
C63   C79   1.527401 S    
C38   H22   1.080130 S    
N6    N13   1.379196 A    
C84   H76   1.083087 S    
C87   C95   1.511939 S    
C40   C43   1.388260 A    
C37   H21   1.081348 S    
N17   N30   1.451832 A    
C71   C75   1.550241 S    
C26   N18   1.322283 A    
C32   N36   1.428916 S    
C13   C22   1.392166 A    
C91   H83   1.103246 S    
C9    N9    1.337410 A    
N19   N32   1.451832 A    
C64   C80   1.510781 S    
C76   H72   1.113649 S    
C28   H16   1.068874 S    
C19   C86   1.458908 S    
C27   C43   1.378293 A    
C40   N32   1.337705 A    
C92   H88   1.109656 S    
C63   H51   1.092971 S    
C15   H11   1.081446 S    
C12   N12   1.345586 A    
C95   H95   1.110285 S    
C93   H89   1.110602 S    
C53   H35   1.113219 S    
C58   C66   1.541137 S    
C54   H36   1.113139 S    
C8    N8    1.329278 A    
C52   C68   1.559998 S    
C1    N1    1.322747 A    
C41   C83   1.446758 S    
H45   C73   1.101320 S    
C94   H92   1.110387 S    
C75   H71   1.115090 S    
C8    C92   1.504433 S    
C50   H26   1.112779 S    
C30   C46   1.385716 A    
C96   H99   1.107939 S    
C29   C45   1.405366 A    
C64   H56   1.113120 S    
C16   C23   1.393585 A    
C45   C69   1.476834 S    
N1    N10   1.326466 A    
C5    C21   1.382905 A    
C31   C47   1.386423 A    
C18   C87   1.444429 S    
C62   C78   1.527742 S    
C64   C66   1.548369 S    
N3    N12   1.326466 A    
C70   C74   1.551774 S    
C7    C23   1.399837 A    
N32   Ni8   1.833542 S    
N4    N11   1.327316 A    
C52   C56   1.543887 S    
C72   C76   1.559082 S    
C5    C89   1.500245 S    
C16   N16   1.323438 A    
C38   C41   1.395267 A    
C61   H53   1.111713 S    
C44   C82   1.433346 S    
C94   H94   1.110169 S    
C2    N2    1.320441 A    
N5    N14   1.378306 A    
N8    N15   1.379196 A    
C15   N15   1.321720 A    
N7    N16   1.378306 A    
C12   H8    1.081273 S    
C79   H63   1.113606 S    
C9    C18   1.373230 A    
C4    C20   1.362206 A    
C89   H79   1.108377 S    
C53   H37   1.097815 S    
C80   H64   1.114689 S    
C9    H5    1.081817 S    
N36   O7    1.300235 A    
C14   C21   1.376093 A    
C31   N35   1.430194 S    
C11   C20   1.376413 A    
C52   H32   1.112883 S    
C43   C81   1.429506 S    
C51   C67   1.555571 S    
C14   H10   1.080907 S    
C12   C19   1.394600 A    
C58   H66   1.113405 S    
N17   Ni1   1.843591 S    
C36   H20   1.079923 S    
N20   N31   1.450897 A    
C49   C65   1.560524 S    
C56   H34   1.113233 S    
N30   Ni7   1.833542 S    
C42   C84   1.455568 S    
C7    C91   1.501730 S    
C83   C85   1.350748 D    
N12   Ni6   1.894916 S    
C17   C88   1.446177 S    
C93   H91   1.107997 S    
N23   Ni4   1.929044 S    
H48   C76   1.110020 S    
C3    H3    1.075102 S    
C81   C87   1.344107 D    
C5    N5    1.321427 A    
C13   N13   1.323059 A    
N33   O2    1.299660 A    
C92   H86   1.105624 S    
N20   Ni4   1.843220 S    
H47   C75   1.108814 S    
C93   H90   1.110130 S    
C10   N10   1.339141 A    
N31   Ni8   1.824518 S    
N13   Ni7   1.869892 S    
C46   C70   1.471153 S    
N2    N9    1.327316 A    
C35   N27   1.303853 A    
C82   H74   1.085592 S    
N8    Ni3   1.929052 S    
C61   H49   1.111538 S    
H42   C58   1.112832 S    
C36   C47   1.380735 A    
C29   N21   1.329308 A    
C20   C85   1.457436 S    
N10   Ni5   1.894916 S    
C51   H27   1.113681 S    
N34   O3    1.300350 A    
C94   H93   1.104392 S    
N26   Ni5   1.851665 S    
C25   H13   1.068783 S    
C71   C79   1.554509 S    
C31   N23   1.333647 A    
C63   C65   1.561479 S    
C61   C67   1.548936 S    
C92   H87   1.108009 S    
C52   H28   1.111703 S    
C1    C17   1.360426 A    
C13   H9    1.077828 S    
N4    Ni4   1.842528 S    
N24   N27   1.396050 A    
C3    N3    1.323563 A    
C47   C71   1.468555 S    
C10   H6    1.081734 S    
C50   H30   1.113488 S    
C25   C41   1.383682 A    
C60   H68   1.106246 S    
C80   H60   1.114278 S    
C10   C17   1.370714 A    
C49   H29   1.112889 S    
C30   N22   1.333833 A    
C54   H38   1.106755 S    
C95   H96   1.110099 S    
C73   H69   1.113141 S    
C34   H18   1.077927 S    
N18   N29   1.450897 A    
C57   H65   1.105716 S    
C15   C24   1.376164 A    
C33   H17   1.080036 S    
C60   C68   1.546946 S    
C72   C80   1.555192 S    
C77   H57   1.114163 S    
C35   H19   1.080550 S    
C50   C66   1.563198 S    
C37   C42   1.392825 A    
C84   C86   1.356932 D    
C11   N11   1.342679 A    
N29   Ni7   1.824518 S    
N24   Ni3   1.929198 S    
