data_str_m2_o10_o28_f0_pcu.sym.164
_audit_creation_date              2012-12-10T16:50:10-0500
_audit_creation_method            fapswitch 2.2
_symmetry_space_group_name_H-M    P1
_symmetry_Int_Tables_number       1
_space_group_crystal_system       triclinic
_cell_length_a                    23.491433
_cell_length_b                    8.758805
_cell_length_c                    7.408518
_cell_angle_alpha                 102.758732
_cell_angle_beta                  93.904291
_cell_angle_gamma                 92.61919
_cell_volume                      1480.372678

loop_
_atom_site_label
_atom_site_type_symbol
_atom_type_description
_atom_site_fract_x
_atom_site_fract_y
_atom_site_fract_z
_atom_type_partial_charge
C1    C     C_R   0.498853 0.200359 0.454356 0.820091
C2    C     C_R   0.501668 0.799419 0.546125 0.864306
C3    C     C_R   0.235837 0.562814 0.381400 -0.158810
C4    C     C_R   0.764147 0.436873 0.618335 -0.158826
C5    C     C_R   0.295170 0.565428 0.374594 0.219985
C6    C     C_R   0.704814 0.434259 0.625131 0.222786
C7    C     C_R   0.328874 0.511152 0.510642 -0.074977
C8    C     C_R   0.671120 0.488778 0.489277 -0.076005
C9    C     C_R   0.302500 0.460950 0.653935 -0.324844
C10   C     C_R   0.697493 0.539103 0.346067 -0.326589
C11   C     C_R   0.243198 0.459519 0.659924 0.019436
C12   C     C_R   0.756791 0.540444 0.340002 0.019419
C13   C     C_R   0.209773 0.509841 0.522174 0.285219
C14   C     C_R   0.790215 0.489983 0.477654 0.285138
C15   C     C_2   0.504912 0.035405 0.430757 -0.011709
C16   C     C_2   0.497657 0.964504 0.573353 0.020078
C17   C     C_R   0.391087 0.503235 0.503243 0.810104
C18   C     C_R   0.608911 0.496738 0.496741 0.812062
C19   C     C_R   0.882295 0.632116 0.541472 0.579157
C20   C     C_R   0.117694 0.367692 0.458338 0.579170
C21   C     C_R   0.876817 0.355001 0.420875 0.536997
C22   C     C_R   0.123170 0.644806 0.578929 0.536981
C23   C     C_R   0.937134 0.352890 0.428220 -0.054962
C24   C     C_R   0.062852 0.646917 0.571585 -0.054939
C25   C     C_R   0.969768 0.497438 0.494466 -0.022020
C26   C     C_R   0.030219 0.502369 0.505335 -0.022017
C27   C     C_R   0.942046 0.637457 0.550431 -0.015097
C28   C     C_R   0.057941 0.362349 0.449374 -0.015114
C29   C     C_R   0.966151 0.213218 0.373274 -0.052410
C30   C     C_R   0.033836 0.786588 0.626541 -0.052417
C31   C     C_R   0.025744 0.219807 0.384273 -0.197757
C32   C     C_R   0.974243 0.779999 0.615540 -0.197760
Cu1   Cu    Cu3+1 0.506340 0.517380 0.684380 0.957736
Cu2   Cu    Cu3+1 0.493660 0.482620 0.315620 0.958086
H1    H     H_    0.047070 0.111897 0.341401 0.187839
H2    H     H_    0.952918 0.887909 0.658422 0.187842
H3    H     H_    0.209629 0.603100 0.277270 0.157252
H4    H     H_    0.790348 0.396427 0.722351 0.157219
H5    H     H_    0.328027 0.419671 0.759007 0.168519
H6    H     H_    0.671969 0.580523 0.241103 0.169683
H7    H     H_    0.453197 0.385743 0.949833 0.229084
H8    H     H_    0.546558 0.615143 0.050393 0.239813
N1    N     N_R   0.851267 0.492776 0.477528 -0.465569
N2    N     N_R   0.148720 0.507034 0.522282 -0.465592
N3    N     N_2   0.484110 0.456420 0.038520 -0.214153
N4    N     N_2   0.515890 0.543580 0.961480 -0.204119
O1    O     O_R   0.504120 0.286130 0.619770 -0.592607
O2    O     O_R   0.495880 0.713870 0.380230 -0.561802
O3    O     O_R   0.493410 0.256770 0.308360 -0.592296
O4    O     O_R   0.506590 0.743230 0.691640 -0.571400
O5    O     O_R   0.423230 0.514630 0.655730 -0.596764
O6    O     O_R   0.576770 0.485370 0.344270 -0.598728
O7    O     O_R   0.412530 0.485280 0.344320 -0.547606
O8    O     O_R   0.587470 0.514720 0.655680 -0.550402
O9    O     O_2   0.855188 0.764988 0.597669 -0.510446
O10   O     O_2   0.144801 0.234821 0.402155 -0.510369
O11   O     O_2   0.843576 0.221582 0.358164 -0.514359
O12   O     O_2   0.156409 0.778227 0.641632 -0.514413
C33   C     C_1   0.937067 0.060045 0.304849 0.341082
N5    N     N_1   0.914059 0.937132 0.249944 -0.209469
C34   C     C_1   0.062920 0.939759 0.694998 0.341090
N6    N     N_1   0.085927 0.062670 0.749928 -0.209464
N7    N     N_2   0.320368 0.623083 0.231131 -0.410936
H9    H     H_    0.294547 0.604775 0.109052 0.252977
C35   C     C_3   0.344330 0.783107 0.287697 -0.616240
H10   H     H_    0.309999 0.864478 0.326829 0.227444
H11   H     H_    0.365691 0.815338 0.170955 0.229477
H12   H     H_    0.376692 0.796126 0.407134 0.213749
N8    N     N_2   0.679588 0.376152 0.768223 -0.410513
H13   H     H_    0.705382 0.394145 0.890328 0.253490
C36   C     C_3   0.655642 0.216151 0.710966 -0.632758
H14   H     H_    0.690010 0.134836 0.672158 0.231086
H15   H     H_    0.623466 0.203340 0.591060 0.217833
H16   H     H_    0.634085 0.183664 0.827205 0.222817
C37   C     C_1   0.217058 0.404831 0.806634 0.270682
N9    N     N_1   0.196018 0.360759 0.924037 -0.246370
C38   C     C_1   0.782923 0.595150 0.193285 0.270656
N10   N     N_1   0.803952 0.639228 0.075869 -0.246407
N11   N     N_2   0.521289 0.951627 0.255294 -0.411714
H17   H     H_    0.498661 0.976828 0.142277 0.285816
C39   C     C_3   0.582306 0.957596 0.238550 -0.680964
H18   H     H_    0.591525 0.884788 0.102165 0.229361
H19   H     H_    0.604679 0.910765 0.349919 0.222182
H20   H     H_    0.598821 0.080194 0.247210 0.222020
N12   N     N_2   0.482761 0.043005 0.752907 -0.434656
H21   H     H_    0.511143 0.128822 0.832435 0.281804
C40   C     C_3   0.422467 0.060419 0.773380 -0.672110
H22   H     H_    0.415845 0.109428 0.921408 0.223916
H23   H     H_    0.398433 0.944389 0.730059 0.227845
H24   H     H_    0.405624 0.140581 0.688319 0.219153

loop_
_geom_bond_atom_site_label_1
_geom_bond_atom_site_label_2
_ccdc_geom_bond_type
C6    N8    S    
C40   H22   S    
N7    C35   S    
C17   O7    A    
C20   O10   S    
C17   O5    A    
C39   H18   S    
C18   O6    A    
C38   N10   T    
C32   H2    S    
C24   C26   A    
C15   C16   D    
C9    H5    S    
C5    N7    S    
C10   H6    S    
H8    N4    S    
N8    C36   S    
C2    O4    A    
C20   N2    A    
C21   N1    A    
C15   N11   S    
C29   C33   S    
C35   H11   S    
C1    C15   S    
C2    C16   S    
C3    C13   A    
C33   N5    T    
Cu1   N4    S    
C34   N6    T    
C39   H19   S    
C19   N1    A    
N12   C40   S    
C22   N2    A    
C4    C6    A    
N11   C39   S    
C1    O1    A    
C6    C8    A    
C20   C28   A    
C2    O2    A    
C25   C26   A    
N12   H21   S    
C8    C18   S    
N7    H9    S    
C37   N9    T    
C21   O11   S    
C35   H12   S    
C12   C38   S    
Cu1   Cu2   S    
Cu2   N3    S    
C9    C11   A    
C10   C12   A    
C12   C14   A    
C21   C23   A    
C16   N12   S    
Cu1   O1    S    
C22   C24   A    
C30   C34   S    
Cu2   O2    S    
C23   C29   A    
C39   H20   S    
C19   C27   A    
C5    C7    A    
C19   O9    S    
Cu1   O8    S    
C7    C9    A    
Cu2   O3    S    
C27   C32   A    
Cu2   O6    S    
C28   C31   A    
C4    H4    S    
C3    C5    A    
C7    C17   S    
C22   O12   S    
C36   H16   S    
Cu1   O5    S    
C26   C28   A    
C40   H23   S    
Cu1   O4    S    
C36   H14   S    
C29   C31   A    
C11   C37   S    
C30   C32   A    
C11   C13   A    
C31   H1    S    
C23   C25   A    
C4    C14   A    
N8    H13   S    
C24   C30   A    
C18   O8    A    
N11   H17   S    
N3    N4    D    
C3    H3    S    
Cu2   O7    S    
C8    C10   A    
C35   H10   S    
C40   H24   S    
C36   H15   S    
H7    N3    S    
C1    O3    A    
C13   N2    S    
C14   N1    S    
C25   C27   A    
