data_str_m4_o4_o24_f0_acs.sym.69
_audit_creation_date              2012-12-11T15:50:42-0500
_audit_creation_method            fapswitch 2.2
_symmetry_space_group_name_H-M    P1
_symmetry_Int_Tables_number       1
_space_group_crystal_system       triclinic
_cell_length_a                    19.036894
_cell_length_b                    10.936632
_cell_length_c                    18.662578
_cell_angle_alpha                 89.470765
_cell_angle_beta                  90.391269
_cell_angle_gamma                 90.259181
_cell_volume                      3885.24447732

loop_
_atom_site_label
_atom_site_type_symbol
_atom_type_description
_atom_site_fract_x
_atom_site_fract_y
_atom_site_fract_z
_atom_type_partial_charge
Br1   Br    Br    0.366018 0.401752 0.431132 -0.603835
Br2   Br    Br    0.610453 0.540678 0.599376 -0.548334
Br3   Br    Br    0.866023 0.901765 0.431130 -0.603221
Br4   Br    Br    0.110456 0.040662 0.599377 -0.548717
Br5   Br    Br    0.410135 0.366418 0.908779 -0.512202
Br6   Br    Br    0.583161 0.375609 0.087935 -0.511649
Br7   Br    Br    0.913916 0.872043 0.912743 -0.511349
Br8   Br    Br    0.086541 0.867976 0.090697 -0.515343
C1    C     C_R   0.289682 0.996856 0.860915 0.539446
C2    C     C_R   0.780679 0.509866 0.938343 -0.009389
C3    C     C_R   0.228065 0.542564 0.355150 0.566997
C4    C     C_R   0.471848 0.823971 0.648165 0.557611
C5    C     C_R   0.562495 0.819190 0.360079 0.557574
C6    C     C_R   0.971850 0.323972 0.648167 0.557492
C7    C     C_R   0.062498 0.319190 0.360079 0.560268
C8    C     C_R   0.258836 0.634665 0.645383 0.542936
C9    C     C_R   0.739831 0.632724 0.354828 0.557472
C10   C     C_R   0.758837 0.134666 0.645382 0.542616
C11   C     C_R   0.239832 0.132722 0.354827 0.558298
C12   C     C_3   0.460237 0.927269 0.036060 -0.118068
C13   C     C_R   0.716976 0.005412 0.061659 -0.010405
C14   C     C_3   0.509081 0.926033 0.969993 -0.100407
C15   C     C_3   0.979114 0.426106 0.034139 -0.103909
C16   C     C_3   0.021606 0.424044 0.963665 -0.100328
C17   C     C_3   0.414098 0.825066 0.002624 -0.159068
C18   C     C_3   0.555144 0.827070 0.006350 -0.130203
C19   C     C_3   0.929063 0.325904 0.004850 -0.158467
C20   C     C_3   0.069963 0.323169 0.995124 -0.156280
C21   C     C_3   0.463420 0.823925 0.937774 0.044014
C22   C     C_3   0.505468 0.828643 0.070714 0.049345
C23   C     C_3   0.972097 0.324017 0.935814 0.047683
C24   C     C_R   0.279484 0.013140 0.937831 -0.008569
C25   C     C_3   0.026985 0.325456 0.064207 0.047752
C26   C     C_R   0.272088 0.452318 0.023827 -0.025424
C27   C     C_R   0.722410 0.463064 0.975270 -0.020191
C28   C     C_R   0.774642 0.957576 0.025010 -0.018774
C29   C     C_R   0.223162 0.961252 0.975672 -0.026494
C30   C     C_R   0.284338 0.484456 0.952546 0.061748
C31   C     C_R   0.711235 0.492070 0.046719 0.062316
C32   C     C_R   0.786482 0.987936 0.953535 0.064200
C33   C     C_R   0.709059 0.994849 0.139687 0.557924
C34   C     C_R   0.211932 0.990653 0.047117 0.062053
C35   C     C_R   0.175397 0.594057 0.949371 -0.155291
C36   C     C_R   0.823381 0.593566 0.050759 -0.154452
C37   C     C_R   0.674904 0.089535 0.948442 -0.153172
C38   C     C_R   0.320759 0.102309 0.048802 -0.161571
C39   C     C_R   0.164342 0.565480 0.021366 -0.149316
C40   C     C_R   0.833920 0.566432 0.978797 -0.147311
C41   C     C_R   0.663929 0.061740 0.020639 -0.151266
C42   C     C_R   0.331067 0.075767 0.977063 -0.142002
C43   C     C_3   0.348472 0.451884 0.041246 -0.212889
C44   C     C_R   0.790037 0.496059 0.860879 0.541444
C45   C     C_3   0.646046 0.470291 0.957497 -0.217613
C46   C     C_3   0.850960 0.962538 0.043010 -0.216428
C47   C     C_3   0.146597 0.962645 0.958714 -0.214670
C48   C     C_3   0.361741 0.489374 0.963710 0.037765
C49   C     C_3   0.633841 0.501956 0.035730 0.036760
C50   C     C_3   0.863873 0.996714 0.964902 0.036129
C51   C     C_3   0.134341 0.995527 0.036765 0.037993
C52   C     C_R   0.239542 0.565302 0.916175 0.006076
C53   C     C_R   0.758548 0.567554 0.083717 0.005726
C54   C     C_R   0.740083 0.064714 0.916095 0.006582
C55   C     C_R   0.208908 0.494507 0.139717 0.543460
C56   C     C_R   0.257808 0.070099 0.083081 0.005345
C57   C     C_R   0.547733 0.825914 0.435859 -0.001014
C58   C     C_R   0.508086 0.828651 0.580166 0.029732
C59   C     C_R   0.047743 0.325912 0.435862 -0.002499
C60   C     C_R   0.008093 0.328652 0.580169 0.029781
C61   C     C_R   0.439725 0.816720 0.862886 0.526998
C62   C     C_R   0.530497 0.821704 0.144321 0.545100
C63   C     C_R   0.942456 0.317070 0.863368 0.522180
C64   C     C_R   0.057086 0.318181 0.136545 0.524922
C65   C     C_R   0.525561 0.720680 0.470201 0.013293
C66   C     C_3   0.509424 0.725539 0.973224 -0.104742
C67   C     C_R   0.503799 0.723891 0.539049 0.089831
C68   C     C_R   0.025579 0.220674 0.470207 0.012754
C69   C     C_R   0.003814 0.223888 0.539055 0.090029
C70   C     C_R   0.540822 0.932471 0.550253 -0.168424
C71   C     C_R   0.557830 0.932404 0.476754 -0.163598
C72   C     C_R   0.040823 0.432475 0.550254 -0.168195
C73   C     C_R   0.057831 0.432407 0.476755 -0.163746
C74   C     C_3   0.469177 0.632802 0.449517 -0.230427
C75   C     C_3   0.444448 0.637656 0.526177 -0.229071
C76   C     C_3   0.969202 0.132778 0.449527 -0.230129
C77   C     C_3   0.460668 0.727005 0.038589 -0.122349
C78   C     C_3   0.944471 0.137636 0.526185 -0.229202
C79   C     C_R   0.242741 0.565782 0.429369 0.028120
C80   C     C_R   0.759999 0.569001 0.571056 0.040891
C81   C     C_R   0.742743 0.065788 0.429368 0.028624
C82   C     C_R   0.260001 0.068998 0.571055 0.040856
C83   C     C_R   0.189781 0.624792 0.465012 -0.028049
C84   C     C_R   0.816978 0.552572 0.525784 -0.011824
C85   C     C_R   0.689782 0.124796 0.465012 -0.027960
C86   C     C_R   0.316980 0.052570 0.525782 -0.011694
C87   C     C_R   0.187694 0.628979 0.537341 0.000652
C88   C     C_3   0.019920 0.223757 0.966291 -0.109723
C89   C     C_R   0.810634 0.544209 0.453517 -0.009480
C90   C     C_R   0.687695 0.128983 0.537340 0.000655
C91   C     C_R   0.310635 0.044205 0.453515 -0.009989
C92   C     C_R   0.290904 0.502905 0.545214 -0.134830
C93   C     C_R   0.685588 0.564024 0.466469 -0.139698
C94   C     C_R   0.790908 0.002914 0.545212 -0.134990
C95   C     C_R   0.185589 0.064013 0.466467 -0.139572
C96   C     C_R   0.291933 0.496450 0.470610 0.126046
C97   C     C_R   0.692442 0.561110 0.540980 0.098831
C98   C     C_R   0.791936 0.996459 0.470608 0.125964
C99   C     C_3   0.977429 0.225815 0.035926 -0.108664
C100  C     C_R   0.192443 0.061101 0.540979 0.098926
C101  C     C_3   0.158735 0.747321 0.452795 -0.274183
C102  C     C_3   0.889784 0.600519 0.523351 -0.245890
C103  C     C_3   0.658735 0.247324 0.452796 -0.274300
C104  C     C_3   0.389786 0.100514 0.523348 -0.245429
C105  C     C_3   0.156756 0.755207 0.533420 -0.227559
C106  C     C_3   0.885404 0.582167 0.442518 -0.251405
C107  C     C_3   0.656757 0.255209 0.533420 -0.227503
C108  C     C_3   0.385405 0.082159 0.442514 -0.252115
C109  C     C_R   0.259516 0.633788 0.851121 0.528186
C110  C     C_R   0.216198 0.504327 0.061493 -0.016077
C111  C     C_R   0.740165 0.634409 0.148880 0.534499
C112  C     C_R   0.759575 0.133707 0.851096 0.528341
C113  C     C_R   0.239988 0.134772 0.148846 0.530542
C114  C     C_R   0.242777 0.579713 0.578039 -0.005102
C115  C     C_R   0.746202 0.571973 0.422889 0.000292
C116  C     C_R   0.742779 0.079717 0.578037 -0.005047
C117  C     C_R   0.246203 0.071967 0.422887 -0.000053
C118  C     C_R   0.272393 0.044945 0.645345 0.590138
C119  C     C_R   0.728065 0.042564 0.355150 0.566999
C120  C     C_R   0.772392 0.544947 0.645346 0.589946
Cr1   Cr    Cr6+3 0.229640 0.835880 0.747370 1.059487
Cr2   Cr    Cr6+3 0.614230 0.677220 0.250660 1.052230
Cr3   Cr    Cr6+3 0.885770 0.177220 0.749340 1.071073
Cr4   Cr    Cr6+3 0.114230 0.177220 0.250660 1.050286
Cr5   Cr    Cr6+3 0.770360 0.835880 0.252630 1.065392
Cr6   Cr    Cr6+3 0.729640 0.335880 0.747370 1.060618
Cr7   Cr    Cr6+3 0.270360 0.335880 0.252630 1.059591
Cr8   Cr    Cr6+3 0.387390 0.989720 0.750850 1.047535
Cr9   Cr    Cr6+3 0.612610 0.989720 0.249150 1.042184
Cr10  Cr    Cr6+3 0.887390 0.489720 0.750850 1.046427
Cr11  Cr    Cr6+3 0.112610 0.489720 0.249150 1.044708
Cr12  Cr    Cr6+3 0.385770 0.677220 0.749340 1.071439
H1    H     H_    0.355949 0.819861 0.000375 0.112882
H2    H     H_    0.892658 0.182901 0.531900 0.132161
H3    H     H_    0.492029 0.543280 0.434676 0.196067
H4    H     H_    0.392640 0.682931 0.531896 0.132052
H5    H     H_    0.430633 0.671905 0.410601 0.173693
H6    H     H_    0.451070 0.549689 0.555664 0.199710
H7    H     H_    0.930656 0.171864 0.410609 0.175008
H8    H     H_    0.951096 0.049675 0.555677 0.199618
H9    H     H_    0.332032 0.459095 0.576422 0.155272
H10   H     H_    0.633443 0.569166 0.443456 0.162893
H11   H     H_    0.832037 0.959106 0.576419 0.155078
H12   H     H_    0.613328 0.825000 0.009473 0.108076
H13   H     H_    0.133444 0.069149 0.443454 0.162766
H14   H     H_    0.105670 0.742654 0.427732 0.163450
H15   H     H_    0.925444 0.538403 0.551894 0.154355
H16   H     H_    0.605669 0.242657 0.427733 0.163204
H17   H     H_    0.425445 0.038397 0.551892 0.154312
H18   H     H_    0.196277 0.812244 0.427329 0.146003
H19   H     H_    0.893186 0.698000 0.539337 0.185762
H20   H     H_    0.696276 0.312249 0.427330 0.146092
H21   H     H_    0.393189 0.197995 0.539333 0.185882
H22   H     H_    0.193686 0.824938 0.554141 0.193429
H23   H     H_    0.870899 0.323481 0.007971 0.111643
H24   H     H_    0.892774 0.665472 0.409862 0.221909
H25   H     H_    0.693685 0.324942 0.554141 0.193428
H26   H     H_    0.392777 0.165462 0.409857 0.221753
H27   H     H_    0.102576 0.758271 0.555200 0.174234
H28   H     H_    0.917722 0.504102 0.424316 0.141225
H29   H     H_    0.602577 0.258272 0.555201 0.174279
H30   H     H_    0.417722 0.004091 0.424313 0.140296
H31   H     H_    0.445902 0.009202 0.066712 0.131237
H32   H     H_    0.527651 0.008041 0.940171 0.138416
H33   H     H_    0.964721 0.509454 0.063904 0.138269
H34   H     H_    0.128077 0.319082 0.991943 0.114141
H35   H     H_    0.037384 0.505610 0.931889 0.139897
H36   H     H_    0.527631 0.641674 0.946372 0.155538
H37   H     H_    0.445859 0.646459 0.070922 0.144325
H38   H     H_    0.033691 0.139435 0.937434 0.158597
H39   H     H_    0.961996 0.143274 0.066728 0.156013
H40   H     H_    0.136275 0.649557 0.922329 0.154309
H41   H     H_    0.863800 0.645466 0.078143 0.154116
H42   H     H_    0.634860 0.141936 0.920617 0.156296
H43   H     H_    0.360433 0.156391 0.075627 0.150135
H44   H     H_    0.116877 0.597875 0.046420 0.184215
H45   H     H_    0.546404 0.015652 0.580834 0.131032
H46   H     H_    0.882580 0.595516 0.954065 0.181952
H47   H     H_    0.615580 0.091323 0.045209 0.180506
H48   H     H_    0.378869 0.107913 0.951957 0.189918
H49   H     H_    0.871716 0.871512 0.059051 0.187407
H50   H     H_    0.126627 0.870784 0.943701 0.185831
H51   H     H_    0.367943 0.359558 0.055351 0.181876
H52   H     H_    0.624194 0.380153 0.941430 0.189055
H53   H     H_    0.360967 0.522170 0.081556 0.130731
H54   H     H_    0.634319 0.546708 0.919704 0.134836
H55   H     H_    0.862844 0.036980 0.081244 0.128986
H56   H     H_    0.573517 0.016238 0.450797 0.150907
H57   H     H_    0.133412 0.036728 0.919976 0.133964
H58   H     H_    0.382779 0.582967 0.956483 0.134092
H59   H     H_    0.614413 0.596012 0.044293 0.137073
H60   H     H_    0.883975 0.090878 0.956522 0.129783
H61   H     H_    0.113250 0.088514 0.044804 0.132824
H62   H     H_    0.046399 0.515661 0.580833 0.130906
H63   H     H_    0.073512 0.516244 0.450795 0.150674
H64   H     H_    0.992060 0.043257 0.434692 0.196061
O1    O     O_R   0.214300 0.709080 0.827500 -0.529049
O2    O     O_R   0.543340 0.717710 0.330180 -0.513769
O3    O     O_R   0.956660 0.217710 0.669820 -0.480392
O4    O     O_R   0.043340 0.217710 0.330180 -0.507968
O5    O     O_R   0.320590 0.625770 0.672930 -0.507737
O6    O     O_R   0.679410 0.625770 0.327070 -0.528923
O7    O     O_R   0.820590 0.125770 0.672930 -0.508100
O8    O     O_R   0.179410 0.125770 0.327070 -0.528286
O9    O     O_3   0.334270 0.834280 0.749190 -0.312350
O10   O     O_3   0.665730 0.834280 0.250810 -0.313098
O11   O     O_3   0.834270 0.334280 0.749190 -0.310394
O12   O     O_R   0.785700 0.709080 0.172500 -0.530718
O13   O     O_3   0.165730 0.334280 0.250810 -0.325670
O14   O     O_R   0.236190 0.958390 0.823150 -0.485333
O15   O     O_R   0.763810 0.958390 0.176850 -0.495811
O16   O     O_R   0.736190 0.458390 0.823150 -0.484976
O17   O     O_R   0.263810 0.458390 0.176850 -0.495434
O18   O     O_R   0.332090 0.075280 0.831290 -0.478933
O19   O     O_R   0.667910 0.075280 0.168710 -0.477596
O20   O     O_R   0.832090 0.575280 0.831290 -0.478298
O21   O     O_R   0.167910 0.575280 0.168710 -0.478361
O22   O     O_R   0.446280 0.918040 0.826620 -0.508632
O23   O     O_R   0.714300 0.209080 0.827500 -0.528099
O24   O     O_R   0.553720 0.918040 0.173380 -0.516436
O25   O     O_R   0.946280 0.418040 0.826620 -0.510306
O26   O     O_R   0.053720 0.418040 0.173380 -0.503842
O27   O     O_R   0.457080 0.716270 0.831760 -0.486524
O28   O     O_R   0.542920 0.716270 0.168240 -0.498814
O29   O     O_R   0.957080 0.216270 0.831760 -0.487295
O30   O     O_R   0.042920 0.216270 0.168240 -0.490433
O31   O     O_R   0.320980 0.624440 0.823040 -0.490862
O32   O     O_R   0.679020 0.624440 0.176960 -0.479985
O33   O     O_R   0.820980 0.124440 0.823040 -0.490036
O34   O     O_R   0.285700 0.209080 0.172500 -0.531709
O35   O     O_R   0.179020 0.124440 0.176960 -0.491732
O36   O     O_R   0.213880 0.710510 0.665560 -0.510221
O37   O     O_R   0.786120 0.710510 0.334440 -0.471532
O38   O     O_R   0.713880 0.210510 0.665560 -0.510298
O39   O     O_R   0.286120 0.210510 0.334440 -0.470898
O40   O     O_R   0.235800 0.959720 0.673040 -0.459336
O41   O     O_R   0.764200 0.959720 0.326960 -0.444192
O42   O     O_R   0.735800 0.459720 0.673040 -0.459452
O43   O     O_R   0.264200 0.459720 0.326960 -0.443382
O44   O     O_R   0.331670 0.076720 0.669350 -0.516737
O45   O     O_R   0.445900 0.919370 0.676500 -0.514978
O46   O     O_R   0.668330 0.076720 0.330650 -0.527080
O47   O     O_R   0.831670 0.576720 0.669350 -0.517356
O48   O     O_R   0.168330 0.576720 0.330650 -0.526489
O49   O     O_R   0.554100 0.919370 0.323500 -0.505791
O50   O     O_R   0.945900 0.419370 0.676500 -0.514962
O51   O     O_R   0.054100 0.419370 0.323500 -0.499399
O52   O     O_R   0.456660 0.717710 0.669820 -0.480422

loop_
_geom_bond_atom_site_label_1
_geom_bond_atom_site_label_2
_ccdc_geom_bond_type
C1    O14   A    
C26   C110  A    
C60   C72   A    
C4    O52   A    
C14   C21   S    
C47   C51   S    
Cr9   O10   S    
C53   C111  S    
C40   H46   S    
C55   O17   A    
Br5   C48   S    
C27   C31   A    
Cr11  O48   S    
Cr4   O8    S    
C107  H29   S    
Cr3   O3    S    
C61   O22   A    
C68   C76   S    
C13   C41   A    
Cr9   O46   S    
C57   C65   A    
C91   C117  A    
C13   C28   A    
C7    O51   A    
Cr3   O29   S    
C90   C116  A    
C104  H21   S    
Br4   C100  S    
C50   H60   S    
C26   C43   S    
Cr5   O15   S    
C64   O26   A    
C57   C71   A    
Cr5   O10   S    
C86   C91   A    
C8    O5    A    
C46   H49   S    
Cr4   O35   S    
C76   C78   S    
C43   C48   S    
Cr9   O24   S    
C109  O1    A    
C61   O27   A    
Br8   C51   S    
C46   C50   S    
C75   H4    S    
C72   C73   A    
C27   C45   S    
C12   C17   S    
C109  O31   A    
C56   C113  S    
C31   C49   S    
C37   C54   A    
C92   C96   A    
C32   C54   A    
Cr8   O44   S    
Cr4   O13   S    
C113  O34   A    
Cr7   O39   S    
C29   C34   A    
C8    C114  S    
Cr6   O38   S    
Cr8   O22   S    
C102  H15   S    
C1    C24   S    
C19   H23   S    
C105  H22   S    
C1    O18   A    
C95   H13   S    
C39   C110  A    
C72   H62   S    
C80   C84   A    
C3    C79   S    
C15   C25   S    
C25   C99   S    
C81   C98   A    
C84   C89   A    
Cr12  O31   S    
C15   C16   S    
C94   C98   A    
C2    C27   A    
Cr12  O52   S    
C15   C19   S    
C107  H25   S    
C103  H16   S    
C102  C106  S    
Br7   C50   S    
C54   C112  S    
C7    O4    A    
C25   C64   S    
Cr9   O19   S    
C101  C105  S    
C112  O33   A    
Cr5   O37   S    
C10   O38   A    
C23   C63   S    
C42   H48   S    
C111  O12   A    
Cr11  O13   S    
C6    O3    A    
C49   H59   S    
C93   C97   A    
C45   H54   S    
C65   C67   A    
Br6   C49   S    
C108  H26   S    
C94   C116  A    
C101  H18   S    
C37   H42   S    
C22   C62   S    
C9    C115  S    
Cr12  O5    S    
C82   C86   A    
C21   C61   S    
Br3   C98   S    
C17   C21   S    
C58   C70   A    
Cr10  O11   S    
C44   O16   A    
C120  O47   A    
C32   C50   S    
C104  H17   S    
C19   C23   S    
C11   O8    A    
C47   H50   S    
Cr7   O43   S    
C28   C32   A    
C68   C69   A    
C73   H63   S    
C9    O6    A    
C43   H53   S    
C91   C108  S    
C48   H58   S    
C45   C49   S    
C70   C71   A    
C39   H44   S    
C5    C57   S    
C21   C66   S    
C55   O21   A    
C113  O35   A    
C4    C58   S    
C11   C117  S    
C118  O44   A    
C93   H10   S    
C38   C56   A    
C83   C101  S    
C38   H43   S    
C79   C83   A    
Cr11  O51   S    
C103  H20   S    
Cr3   O11   S    
C66   H36   S    
Cr1   O14   S    
Cr2   O2    S    
C75   H6    S    
Cr1   O1    S    
C2    C44   S    
C51   H61   S    
C106  H24   S    
C41   H47   S    
Cr2   O28   S    
C2    C40   A    
C7    C59   S    
C17   C77   S    
C37   C41   A    
C63   O25   A    
C108  H30   S    
C52   C109  S    
C70   H45   S    
C93   C115  A    
C24   C29   A    
C20   C25   S    
C22   C77   S    
C106  H28   S    
C101  H14   S    
C33   O15   A    
Br1   C96   S    
C24   C42   A    
C33   O19   A    
C112  O23   A    
Cr12  O9    S    
C85   C103  S    
Cr1   O9    S    
C119  O41   A    
C35   C52   A    
C87   C114  A    
C77   H37   S    
C6    O50   A    
C88   C99   S    
C12   C14   S    
C69   C78   S    
C44   O20   A    
Cr1   O36   S    
Cr3   O7    S    
C92   H9    S    
C30   C52   A    
Cr8   O45   S    
Cr2   O6    S    
C82   C100  A    
Cr9   O49   S    
C34   C56   A    
C65   C74   S    
C104  C108  S    
C31   C53   A    
C43   H51   S    
C78   H2    S    
Cr4   O4    S    
Cr8   O9    S    
C81   C119  S    
C76   H7    S    
C60   C69   A    
C55   C110  S    
C38   C42   A    
C5    O49   A    
Cr7   O17   S    
C46   H55   S    
C99   H39   S    
C26   C30   A    
Cr5   O12   S    
Cr10  O25   S    
C17   H1    S    
C84   C102  S    
C16   C20   S    
C62   O24   A    
C74   H3    S    
Cr10  O47   S    
C78   H8    S    
C34   C51   S    
C105  H27   S    
C111  O32   A    
C59   C73   A    
C15   H33   S    
Cr1   O40   S    
C11   O39   A    
C36   C53   A    
C30   C48   S    
C13   C33   S    
C94   H11   S    
Br2   C97   S    
C3    O48   A    
Cr7   O34   S    
Cr11  O21   S    
Cr12  O27   S    
C20   C88   S    
C119  O46   A    
C3    O43   A    
Cr6   O23   S    
Cr6   O11   S    
C18   H12   S    
C10   O7    A    
C89   C106  S    
C16   C23   S    
C120  O42   A    
C89   C115  A    
C12   C22   S    
C118  O40   A    
C80   C97   A    
C36   H41   S    
C19   C99   S    
C20   H34   S    
C90   C107  S    
C47   H57   S    
Cr4   O30   S    
C35   H40   S    
C87   C105  S    
Cr6   O16   S    
C58   C67   A    
Cr3   O33   S    
Cr2   O32   S    
C18   C66   S    
C64   O30   A    
Cr10  O20   S    
Cr2   O10   S    
Cr11  O26   S    
C92   C114  A    
C67   C75   S    
C63   O29   A    
C66   C77   S    
C81   C85   A    
C95   C117  A    
C45   H52   S    
C62   O28   A    
C71   H56   S    
C28   C46   S    
C4    O45   A    
C9    O37   A    
C79   C96   A    
C29   C47   S    
C82   C118  S    
C12   H31   S    
Cr8   O18   S    
C74   H5    S    
C8    O36   A    
C83   C87   A    
C80   C120  S    
C74   C75   S    
C14   C18   S    
Cr5   O41   S    
C6    C60   S    
C5    O2    A    
C95   C100  A    
C103  C107  S    
C59   C68   A    
C88   H38   S    
C76   H64   S    
Cr10  O50   S    
C16   H35   S    
C35   C39   A    
C85   C90   A    
Cr6   O42   S    
C86   C104  S    
C14   H32   S    
C102  H19   S    
C36   C40   A    
C10   C116  S    
C23   C88   S    
C18   C22   S    
Cr7   O13   S    
