data_str_m9_o2_o20_f0_sra.sym.122
_audit_creation_date              2012-12-11T16:29:25-0500
_audit_creation_method            fapswitch 2.2
_symmetry_space_group_name_H-M    P1
_symmetry_Int_Tables_number       1
_space_group_crystal_system       triclinic
_cell_length_a                    6.954201
_cell_length_b                    17.184971
_cell_length_c                    18.921623
_cell_angle_alpha                 106.237653
_cell_angle_beta                  89.605088
_cell_angle_gamma                 90.437469
_cell_volume                      2170.98833691

loop_
_atom_site_label
_atom_site_type_symbol
_atom_type_description
_atom_site_fract_x
_atom_site_fract_y
_atom_site_fract_z
_atom_type_partial_charge
O1    O     O_R   0.494360 0.415680 0.413760 -0.528853
O2    O     O_R   0.818810 0.432910 0.557230 -0.520717
O3    O     O_R   0.994290 0.584320 0.586240 -0.520724
C1    C     C_R   0.650012 0.416719 0.581276 0.784419
O4    O     O_R   0.823740 0.406440 0.412520 -0.543406
O5    O     O_R   0.999250 0.557660 0.440500 -0.526725
C2    C     C_R   0.654731 0.382332 0.385816 0.791103
O6    O     O_R   0.489400 0.442340 0.559500 -0.506730
O7    O     O_3   0.662500 0.549650 0.509350 -0.371371
V1    V     V_3+5 0.935340 0.490790 0.498270 1.501996
O8    O     O_R   0.329270 0.567090 0.442770 -0.532065
C3    C     C_R   0.161491 0.583224 0.418672 0.751818
O9    O     O_R   0.324340 0.593560 0.587480 -0.532522
C4    C     C_R   0.154708 0.618047 0.613815 0.933308
V2    V     V_3+5 0.435970 0.509210 0.501730 1.496385
O10   O     O_3   0.158940 0.450350 0.490650 -0.356569
H1    H     H_    0.022569 0.878827 0.559245 0.132997
C5    C     C_R   0.192393 0.585996 0.756177 0.293757
C6    C     C_R   0.212456 0.570302 0.824272 -0.259217
C7    C     C_R   0.200027 0.631560 0.889417 0.196532
C8    C     C_R   0.167999 0.711606 0.887968 0.166732
C9    C     C_R   0.150930 0.731942 0.819535 -0.039501
C10   C     C_R   0.162929 0.667575 0.752320 -0.023824
C11   C     C_R   0.122426 0.813944 0.816718 -0.130527
C12   C     C_R   0.105492 0.831881 0.747393 -0.077633
C13   C     C_R   0.107503 0.766754 0.680586 -0.033095
C14   C     C_R   0.142426 0.685429 0.683279 -0.147906
C15   C     C_R   0.086472 0.913985 0.742967 0.334993
C16   C     C_R   0.055355 0.928954 0.674460 0.138762
C17   C     C_R   0.047996 0.865252 0.610990 -0.278312
C18   C     C_R   0.074544 0.785169 0.612314 0.307051
H2    H     H_    0.235272 0.508782 0.826658 0.122581
C19   C     C_1   0.111210 0.865814 0.134286 -0.220493
C20   C     C_1   0.118891 0.822884 0.177527 0.002981
C21   C     C_1   0.128621 0.772076 0.228897 0.002835
C22   C     C_1   0.136949 0.729283 0.272250 0.007248
C23   C     C_1   0.146642 0.678505 0.323644 -0.009219
C24   C     C_1   0.154090 0.635484 0.366816 -0.221522
C25   C     C_1   0.641516 0.364744 0.633299 -0.201044
C26   C     C_1   0.637283 0.321896 0.676640 0.005712
C27   C     C_1   0.633857 0.271219 0.728150 0.010159
C28   C     C_1   0.631302 0.228522 0.771637 0.014384
C29   C     C_1   0.627834 0.177910 0.823198 0.015921
C30   C     C_1   0.623561 0.135149 0.866611 -0.197453
C31   C     C_R   0.766499 0.405618 0.248250 -0.238656
C32   C     C_R   0.821866 0.422717 0.183267 0.181227
C33   C     C_R   0.809099 0.362207 0.116397 0.161784
C34   C     C_R   0.739239 0.283937 0.114558 0.309582
C35   C     C_R   0.687398 0.265272 0.181548 -0.005053
C36   C     C_R   0.700319 0.327902 0.249257 -0.040823
C37   C     C_R   0.619750 0.186739 0.182734 -0.122237
C38   C     C_R   0.563390 0.172486 0.250500 -0.007363
C39   C     C_R   0.576873 0.235049 0.318295 -0.015045
C40   C     C_R   0.644820 0.313509 0.317134 -0.115649
C41   C     C_R   0.495397 0.095027 0.251479 -0.208543
C42   C     C_R   0.439837 0.078742 0.316206 -0.247099
C43   C     C_R   0.453774 0.138254 0.383399 0.336624
C44   C     C_R   0.524777 0.216304 0.385307 0.322568
H3    H     H_    0.775441 0.454906 0.298230 0.115345
H4    H     H_    0.483874 0.045129 0.202028 0.125861
H5    H     H_    0.387300 0.018558 0.313847 0.130497
O11   O     O_R   0.775690 0.057750 0.940570 -0.507132
O12   O     O_R   0.441200 0.093570 0.087490 -0.542850
O13   O     O_R   0.265840 0.942320 0.059480 -0.530769
C45   C     C_R   0.610129 0.117717 0.114211 0.794567
O14   O     O_R   0.446270 0.067110 0.942790 -0.518097
O15   O     O_R   0.270950 0.915660 0.913750 -0.524122
C46   C     C_R   0.615062 0.083274 0.918718 0.787564
O16   O     O_R   0.770580 0.084400 0.086300 -0.526338
O17   O     O_3   0.602640 0.950400 0.990690 -0.375904
V3    V     V_3+5 0.329740 0.009200 0.001730 1.482914
O18   O     O_R   0.940900 0.906360 0.912450 -0.532858
C47   C     C_R   0.110516 0.881784 0.886084 0.905834
O19   O     O_R   0.935830 0.932820 0.057160 -0.530552
C48   C     C_R   0.103514 0.917798 0.082170 0.724514
V4    V     V_3+5 0.829130 0.990680 0.998180 1.479629
O20   O     O_3   0.106100 0.049590 0.009310 -0.352071
N1    N     N_3   0.891371 0.502106 0.184456 -0.662932
H6    H     H_    0.784397 0.530160 0.161907 0.229702
H7    H     H_    0.910935 0.537833 0.238549 0.231302
N2    N     N_3   0.867247 0.379996 0.049591 -0.688315
H8    H     H_    0.010470 0.399656 0.054882 0.260346
H9    H     H_    0.781983 0.427009 0.042388 0.239104
O21   O     O_3   0.716681 0.225736 0.047920 -0.661184
H10   H     H_    0.756002 0.246641 0.006339 0.314561
O22   O     O_3   0.548250 0.274047 0.452129 -0.663610
H11   H     H_    0.505342 0.253083 0.493305 0.321760
O23   O     O_3   0.199308 0.521096 0.693414 -0.655354
H12   H     H_    0.221254 0.469726 0.706243 0.282010
N3    N     N_3   0.218785 0.613199 0.958721 -0.665296
H13   H     H_    0.272030 0.554632 0.950947 0.232687
H14   H     H_    0.080848 0.613805 0.981181 0.231075
N4    N     N_3   0.152649 0.771545 0.957390 -0.689346
H15   H     H_    0.278956 0.771230 0.987012 0.251793
H16   H     H_    0.036469 0.756389 0.986438 0.226573
O24   O     O_3   0.102171 0.978813 0.805651 -0.656842
H17   H     H_    0.092650 0.031392 0.794262 0.321319
N5    N     N_3   0.029647 0.009860 0.669111 -0.682561
H18   H     H_    0.135409 0.021437 0.633746 0.244414
H19   H     H_    0.895469 0.012898 0.645431 0.243369
O25   O     O_3   0.064823 0.724698 0.546687 -0.665131
H20   H     H_    0.035791 0.748006 0.505585 0.277073
O26   O     O_3   0.400600 0.121329 0.448130 -0.654943
H21   H     H_    0.354501 0.064440 0.437041 0.288834

loop_
_geom_bond_atom_site_label_1
_geom_bond_atom_site_label_2
_ccdc_geom_bond_type
O14   C46   A    
C41   C42   A    
O12   C45   A    
C26   C27   S    
N4    H15   S    
C27   C28   T    
C21   C22   T    
O18   V4    S    
N2    H8    S    
C43   C44   A    
C39   C40   A    
C12   C15   A    
C13   C14   A    
C36   C40   A    
O19   V4    S    
C16   N5    S    
C18   O25   S    
C8    C9    A    
C15   C16   A    
C23   C24   T    
C5    C6    A    
O5    C3    A    
C17   C18   A    
N1    H7    S    
C11   C47   S    
V2    O10   S    
C42   C43   A    
O16   V4    S    
C20   C21   S    
C37   C45   S    
O13   V3    S    
O8    V2    S    
C19   C48   S    
C6    C7    A    
C35   C37   A    
C33   C34   A    
O17   V3    S    
O15   C47   A    
C10   C14   A    
C4    C14   S    
O7    V1    S    
C38   C41   A    
C1    O6    A    
C13   C18   A    
N4    H16   S    
O9    C4    A    
H1    C17   S    
O11   V4    S    
C6    H2    S    
C44   O22   S    
N2    H9    S    
V4    O20   S    
C43   O26   S    
O19   C48   A    
C5    C10   A    
O25   H20   S    
C11   C12   A    
C25   C26   T    
C32   N1    S    
O22   H11   S    
C12   C13   A    
C31   C32   A    
C7    N3    S    
C5    O23   S    
C34   O21   S    
O2    C1    A    
C29   C30   T    
C16   C17   A    
N3    H14   S    
O14   V3    S    
C1    C25   S    
O8    C3    A    
O24   H17   S    
C7    C8    A    
C19   C20   T    
C42   H5    S    
O21   H10   S    
O3    C4    A    
O1    V2    S    
C34   C35   A    
O12   V3    S    
C35   C36   A    
O6    V2    S    
N5    H19   S    
O9    V2    S    
O17   V4    S    
C9    C11   A    
C30   C46   S    
C28   C29   S    
O2    V1    S    
V3    O20   S    
C38   C39   A    
O4    C2    A    
C32   C33   A    
C31   H3    S    
O1    C2    A    
O18   C47   A    
O5    V1    S    
C39   C44   A    
O11   C46   A    
C15   O24   S    
O7    V2    S    
C37   C38   A    
O3    V1    S    
V1    O10   S    
N1    H6    S    
N3    H13   S    
C8    N4    S    
C31   C36   A    
C45   O16   A    
O13   C48   A    
O15   V3    S    
C33   N2    S    
C3    C24   S    
O4    V1    S    
O23   H12   S    
C22   C23   S    
N5    H18   S    
O26   H21   S    
C9    C10   A    
C2    C40   S    
C41   H4    S    
