data_str_m2_o10_o17_f0_pcu.sym.60
_audit_creation_date              2012-10-26T19:40:08-0400
_audit_creation_method            fapswitch 2.2
_symmetry_space_group_name_H-M    P1
_symmetry_Int_Tables_number       1
_space_group_crystal_system       triclinic
_cell_length_a                    14.98842
_cell_length_b                    8.679112
_cell_length_c                    7.53179
_cell_angle_alpha                 103.138689
_cell_angle_beta                  94.691843
_cell_angle_gamma                 92.614356
_cell_volume                      948.853356706

loop_
_atom_site_label
_atom_site_type_symbol
_atom_type_description
_atom_site_fract_x
_atom_site_fract_y
_atom_site_fract_z
_atom_type_partial_charge
C1    C     C_R   0.495741 0.199926 0.453347 0.559042
C2    C     C_R   0.183015 0.361928 0.469395 -0.129777
C3    C     C_R   0.766709 0.493591 0.494025 0.025290
C4    C     C_R   0.233291 0.506408 0.505974 0.025290
C5    C     C_R   0.808091 0.348823 0.459187 0.064885
C6    C     C_R   0.191908 0.651176 0.540813 0.064885
C7    C     C_R   0.902107 0.350433 0.460104 0.033687
C8    C     C_R   0.097893 0.649567 0.539895 0.033687
C9    C     C_R   0.952943 0.497907 0.498245 0.045204
C10   C     C_R   0.047057 0.502093 0.501755 0.045204
C11   C     C_R   0.909857 0.641459 0.533440 0.015129
C12   C     C_R   0.504259 0.800074 0.546653 0.559042
C13   C     C_R   0.090142 0.358541 0.466560 0.015128
C14   C     C_R   0.946888 0.209139 0.424697 -0.109718
C15   C     C_R   0.053111 0.790861 0.575303 -0.109718
C16   C     C_R   0.039841 0.213402 0.428050 -0.124816
C17   C     C_R   0.960159 0.786598 0.571950 -0.124816
C18   C     C_2   0.492685 0.031519 0.427897 -0.096845
C19   C     C_2   0.507315 0.968481 0.572103 -0.096845
C20   C     C_R   0.329441 0.502681 0.502022 0.563623
C21   C     C_R   0.670559 0.497319 0.497978 0.563623
C22   C     C_R   0.816985 0.638072 0.530604 -0.129777
Cu1   Cu    Cu3+1 0.510010 0.517380 0.684380 1.103690
Cu2   Cu    Cu3+1 0.489990 0.482620 0.315620 1.103690
H1    H     H_    0.783368 0.748053 0.557851 0.136243
H2    H     H_    0.216632 0.251947 0.442149 0.136243
H3    H     H_    0.911261 0.093890 0.393367 0.151333
H4    H     H_    0.088739 0.906110 0.606633 0.151333
H5    H     H_    0.072476 0.102687 0.399804 0.129213
H6    H     H_    0.927523 0.897313 0.600196 0.129213
H7    H     H_    0.478935 0.959188 0.289257 0.163609
H8    H     H_    0.521065 0.040812 0.710743 0.163610
I1    I     I_    0.727747 0.131167 0.412172 -0.381830
I2    I     I_    0.272253 0.868833 0.587827 -0.381829
I3    I     I_    0.373376 0.290635 0.901629 -0.168253
I4    I     I_    0.626624 0.709365 0.098371 -0.168253
N1    N     N_2   0.474890 0.456420 0.038520 -0.035228
N2    N     N_2   0.525110 0.543580 0.961480 -0.035228
O1    O     O_R   0.506510 0.286130 0.619770 -0.494584
O2    O     O_R   0.493490 0.713870 0.380230 -0.494584
O3    O     O_R   0.489600 0.256770 0.308360 -0.484503
O4    O     O_R   0.510400 0.743230 0.691640 -0.484503
O5    O     O_R   0.378710 0.514640 0.655720 -0.478596
O6    O     O_R   0.621290 0.485360 0.344280 -0.478596
O7    O     O_R   0.361800 0.485290 0.344300 -0.486799
O8    O     O_R   0.638200 0.514710 0.655700 -0.486799

loop_
_geom_bond_atom_site_label_1
_geom_bond_atom_site_label_2
_ccdc_geom_bond_type
C12   O2    A    
C2    C4    A    
Cu1   Cu2   S    
C8    C10   A    
C15   C17   A    
N1    N2    D    
Cu2   O3    S    
C14   H3    S    
C21   O6    A    
C9    C10   A    
C11   C22   A    
C20   O7    A    
I4    N2    S    
Cu2   N1    S    
C15   H4    S    
C2    H2    S    
Cu1   O8    S    
C17   H6    S    
C9    C11   A    
C1    C18   S    
Cu1   O4    S    
Cu1   O1    S    
Cu2   O7    S    
C12   C19   S    
C1    O3    A    
I3    N1    S    
C21   O8    A    
C8    C15   A    
C5    C7    A    
Cu2   O6    S    
C14   C16   A    
C3    C21   S    
C19   H8    S    
C12   O4    A    
Cu1   N2    S    
C20   O5    A    
Cu1   O5    S    
C4    C6    A    
C18   C19   D    
C13   C16   A    
C7    C9    A    
C2    C13   A    
C1    O1    A    
C11   C17   A    
C3    C22   A    
C6    C8    A    
C18   H7    S    
Cu2   O2    S    
C16   H5    S    
C10   C13   A    
C7    C14   A    
C6    I2    S    
C5    I1    S    
C3    C5    A    
C22   H1    S    
C4    C20   S    
