data_str_m3_o10_o15_f0_pcu.sym.126
_audit_creation_date              2013-03-05T15:40:34-0500
_audit_creation_method            fapswitch 2.2
_symmetry_space_group_name_H-M    P1
_symmetry_Int_Tables_number       1
_space_group_crystal_system       triclinic
_cell_length_a                    7.826195
_cell_length_b                    8.66958
_cell_length_c                    11.446736
_cell_angle_alpha                 93.568894
_cell_angle_beta                  84.21606
_cell_angle_gamma                 93.580267
_cell_volume                      769.971502352

loop_
_atom_site_label
_atom_site_type_symbol
_atom_site_description
_atom_site_fract_x
_atom_site_fract_y
_atom_site_fract_z
_atom_type_partial_charge
O1    O     O_R   0.389250 0.738570 0.508280 -0.607930
O2    O     O_R   0.610750 0.261430 0.491720 -0.607963
O3    O     O_R   0.678390 0.711630 0.486650 -0.570852
O4    O     O_R   0.321610 0.288370 0.513350 -0.570903
C1    C     C_R   0.544766 0.793638 0.495602 0.874343
C2    C     C_R   0.455232 0.206372 0.504459 0.874473
O5    O     O_R   0.355430 0.513480 0.694040 -0.607253
O6    O     O_R   0.644570 0.486520 0.305960 -0.607245
O7    O     O_R   0.644570 0.486540 0.672410 -0.565825
O8    O     O_R   0.355430 0.513460 0.327590 -0.565836
C3    C     C_R   0.503546 0.504839 0.740476 0.846948
C4    C     C_R   0.496455 0.495166 0.259524 0.846961
Zn1   Zn    Zn3+2 0.306940 0.517990 0.514440 1.130456
Zn2   Zn    Zn3+2 0.693060 0.482010 0.485560 1.130437
H1    H     H_    0.062654 0.364773 0.888456 0.206824
H2    H     H_    0.937352 0.635258 0.111547 0.206800
C5    C     C_R   0.226548 0.619174 0.901343 -0.114241
C6    C     C_R   0.773460 0.380852 0.098656 -0.114244
C7    C     C_R   0.056830 0.595286 0.950035 -0.191881
C8    C     C_R   0.943178 0.404746 0.049966 -0.191850
C9    C     C_R   0.026941 0.554727 0.064224 -0.176331
C10   C     C_R   0.973065 0.445306 0.935778 -0.176356
C11   C     C_R   0.168685 0.554479 0.127899 0.353010
C12   C     C_R   0.831322 0.445555 0.872103 0.353107
C13   C     C_R   0.340050 0.527951 0.071025 -0.038653
C14   C     C_R   0.659954 0.472074 0.928976 -0.038648
C15   C     C_R   0.361242 0.550368 0.947501 0.009220
C16   C     C_R   0.638763 0.449655 0.052499 0.009220
C17   C     C_R   0.487577 0.486951 0.126662 -0.153224
C18   C     C_R   0.512426 0.513066 0.873338 -0.153200
H3    H     H_    0.252641 0.698379 0.831311 0.195012
H4    H     H_    0.747368 0.301638 0.168682 0.194969
H5    H     H_    0.984774 0.692673 0.930482 0.205421
H6    H     H_    0.015236 0.307360 0.069517 0.205412
C19   C     C_2   0.568572 0.955915 0.501637 -0.023619
C20   C     C_2   0.431399 0.044105 0.498579 -0.023484
N1    N     N_2   0.950330 0.457950 0.466250 -0.052223
N2    N     N_2   0.049670 0.542050 0.533750 -0.052202
H7    H     H_    0.984681 0.344795 0.457483 0.274071
H8    H     H_    0.015319 0.655204 0.542516 0.274141
N3    N     N_R   0.107658 0.524616 0.242606 0.207399
O9    O     O_R   0.030518 0.634805 0.305714 -0.373532
O10   O     O_R   0.078721 0.379586 0.265836 -0.452956
N4    N     N_R   0.892348 0.475420 0.757396 0.207410
O11   O     O_R   0.921269 0.620451 0.734164 -0.452922
O12   O     O_R   0.969517 0.365238 0.694299 -0.373450
N5    N     N_R   0.738595 0.017900 0.521041 0.238628
O13   O     O_R   0.859113 0.018692 0.434063 -0.289755
O14   O     O_R   0.775584 0.060341 0.627026 -0.323229
N6    N     N_R   0.261351 0.982124 0.479249 0.238693
O15   O     O_R   0.141031 0.980893 0.566380 -0.290049
O16   O     O_R   0.224105 0.940181 0.373234 -0.323101

loop_
_geom_bond_atom_site_label_1
_geom_bond_atom_site_label_2
_geom_bond_distance
_ccdc_geom_bond_type
N1    H7    1.029542 S    
C12   N4    1.385519 S    
N6    O16   1.301135 A    
O7    Zn2   2.132587 S    
C14   C18   1.446583 A    
H2    C9    1.099989 S    
C4    C17   1.526447 S    
C13   C15   1.430883 A    
N3    O10   1.302628 A    
N3    O9    1.302731 A    
C14   C16   1.430880 A    
C19   C20   1.360778 D    
C11   N3    1.385520 S    
O6    C4    1.331108 A    
C8    H6    1.090587 S    
C9    C11   1.387552 A    
N6    O15   1.300892 A    
C19   N5    1.436700 S    
N5    O14   1.301117 A    
N4    O11   1.302626 A    
Zn2   N1    2.025671 S    
N2    H8    1.029537 S    
O7    C3    1.297492 A    
Zn1   N2    2.025671 S    
O2    C2    1.277035 A    
O3    Zn2   2.000356 S    
O8    C4    1.297491 A    
O1    C1    1.277019 A    
C1    C19   1.405894 S    
C16   C17   1.427015 A    
C7    C9    1.368270 A    
N1    N2    1.308883 D    
C2    C20   1.405819 S    
O5    C3    1.331107 A    
C6    C8    1.395914 A    
C11   C13   1.455775 A    
C13   C17   1.446590 A    
O2    Zn2   1.982608 S    
C10   C12   1.387552 A    
C6    H4    1.083453 S    
C8    C10   1.368261 A    
C5    C15   1.405787 A    
O1    Zn1   1.982608 S    
O5    Zn1   2.130988 S    
C7    C10   1.426800 A    
C6    C16   1.405788 A    
C8    C9    1.426804 A    
C3    C18   1.526450 S    
O4    C2    1.292944 A    
C7    H5    1.090586 S    
O4    Zn1   2.000356 S    
C15   C18   1.427013 A    
O6    Zn2   2.130988 S    
N4    O12   1.302728 A    
C5    C7    1.395915 A    
H1    C10   1.099989 S    
C5    H3    1.083454 S    
N5    O13   1.300645 A    
C20   N6    1.436678 S    
C12   C14   1.455767 A    
O3    C1    1.292981 A    
O8    Zn1   2.132587 S    
