data_str_m3_o5_o29_f0_pcu.sym.30
_audit_creation_date              2013-03-05T16:48:42-0500
_audit_creation_method            fapswitch 2.2
_symmetry_space_group_name_H-M    P1
_symmetry_Int_Tables_number       1
_space_group_crystal_system       triclinic
_cell_length_a                    27.68116
_cell_length_b                    9.035664
_cell_length_c                    8.08629
_cell_angle_alpha                 89.829982
_cell_angle_beta                  89.756769
_cell_angle_gamma                 90.085199
_cell_volume                      2022.49453704

loop_
_atom_site_label
_atom_site_type_symbol
_atom_site_description
_atom_site_fract_x
_atom_site_fract_y
_atom_site_fract_z
_atom_type_partial_charge
O1    O     O_R   0.500000 0.285350 0.636850 -0.617584
O2    O     O_R   0.500000 0.714650 0.363150 -0.629583
O3    O     O_R   0.500000 0.714650 0.636850 -0.613976
O4    O     O_R   0.500000 0.285350 0.363150 -0.613008
C1    C     C_R   0.499915 0.217729 0.500157 0.928531
C2    C     C_R   0.500009 0.782276 0.499841 0.925296
O5    O     O_R   0.428760 0.500000 0.636860 -0.624409
O6    O     O_R   0.571240 0.500000 0.363140 -0.632628
O7    O     O_R   0.571240 0.500000 0.636860 -0.620749
O8    O     O_R   0.428760 0.500000 0.363140 -0.624446
C3    C     C_R   0.406013 0.499558 0.500245 0.958435
C4    C     C_R   0.594354 0.505571 0.499538 0.936495
Zn1   Zn    Zn3+2 0.500000 0.500000 0.682780 0.980219
Zn2   Zn    Zn3+2 0.500000 0.500000 0.317220 0.974348
C5    C     C_R   0.178327 0.383735 0.380209 0.736817
C6    C     C_R   0.823989 0.638002 0.403179 0.735462
C7    C     C_R   0.174616 0.611490 0.528694 0.737962
C8    C     C_R   0.822678 0.374336 0.426106 0.740492
O9    O     O_2   0.204729 0.280165 0.301142 -0.400092
O10   O     O_2   0.800319 0.768381 0.409358 -0.403726
O11   O     O_2   0.196425 0.713118 0.625054 -0.397199
O12   O     O_2   0.797013 0.247284 0.431746 -0.406056
N1    N     N_R   0.200854 0.497298 0.462197 -0.341237
N2    N     N_R   0.799184 0.507698 0.423291 -0.337527
C9    C     C_R   0.279066 0.626702 0.435671 0.630650
C10   C     C_R   0.727235 0.446692 0.589179 0.617406
C11   C     C_R   0.277381 0.371328 0.531038 0.639531
C12   C     C_R   0.718471 0.584873 0.334017 0.626276
C13   C     C_R   0.328955 0.631998 0.460560 -0.030312
C14   C     C_R   0.676926 0.441466 0.609806 -0.034029
C15   C     C_R   0.327895 0.367843 0.529444 -0.036655
C16   C     C_R   0.669264 0.603734 0.365796 -0.035582
C17   C     C_R   0.252742 0.498351 0.476641 -0.096075
C18   C     C_R   0.747763 0.511429 0.447780 -0.070862
C19   C     C_R   0.101232 0.499817 0.429095 -0.233780
C20   C     C_R   0.899044 0.502172 0.399402 -0.234894
C21   C     C_R   0.127754 0.375872 0.376467 -0.239614
C22   C     C_R   0.874176 0.636946 0.382190 -0.247630
C23   C     C_R   0.125009 0.622341 0.498319 -0.241391
C24   C     C_R   0.873289 0.369452 0.422840 -0.244577
C25   C     C_R   0.103020 0.250140 0.318582 0.631732
C26   C     C_R   0.900270 0.766380 0.345309 0.642136
C27   C     C_R   0.098424 0.749872 0.538524 0.634634
C28   C     C_R   0.898830 0.237535 0.450547 0.643512
C29   C     C_R   0.353526 0.500196 0.499625 -0.234176
C30   C     C_R   0.647313 0.518998 0.494746 -0.262842
C31   C     C_R   0.975123 0.365401 0.401900 -0.088114
C32   C     C_R   0.025070 0.634411 0.434626 -0.077811
C33   C     C_R   0.975435 0.636136 0.395897 -0.092179
C34   C     C_R   0.025870 0.367692 0.380441 -0.080235
C35   C     C_R   0.949907 0.500978 0.397386 -0.063666
C36   C     C_R   0.050689 0.500803 0.413926 -0.056920
C37   C     C_R   0.949113 0.235650 0.440430 0.650395
C38   C     C_R   0.049273 0.757252 0.503156 0.635333
C39   C     C_R   0.950509 0.765874 0.352260 0.656975
C40   C     C_R   0.052653 0.244719 0.324358 0.641931
C41   C     C_1   0.499959 0.064950 0.500231 -0.202766
C42   C     C_1   0.499991 0.935053 0.499771 -0.195650
N3    N     N_1   0.500000 0.500000 0.073640 -0.038339
N4    N     N_1   0.500000 0.500000 0.926360 -0.037582
C43   C     C_3   0.353891 0.221168 0.544299 -0.338014
C44   C     C_3   0.368279 0.165336 0.372437 -0.822508
H1    H     H_    0.335545 0.131856 0.302854 0.296735
H2    H     H_    0.387566 0.251638 0.300231 0.270396
H3    H     H_    0.392876 0.069292 0.382990 0.233970
H4    H     H_    0.386429 0.232185 0.623177 0.194269
H5    H     H_    0.330561 0.136794 0.604830 0.273217
C45   C     C_3   0.642460 0.719937 0.264207 -0.336600
C46   C     C_3   0.662434 0.875390 0.295312 -0.735332
H6    H     H_    0.700463 0.885482 0.252952 0.331998
H7    H     H_    0.640578 0.957885 0.226403 0.228525
H8    H     H_    0.660384 0.901862 0.429249 0.244956
H9    H     H_    0.645487 0.693019 0.130539 0.236903
H10   H     H_    0.603617 0.727136 0.294662 0.213040
C47   C     C_3   0.355238 0.779035 0.453742 -0.339935
C48   C     C_3   0.366727 0.832074 0.628915 -0.819905
H11   H     H_    0.332817 0.862708 0.694191 0.295296
H12   H     H_    0.385297 0.745290 0.701805 0.270958
H13   H     H_    0.390968 0.929632 0.624386 0.234614
H14   H     H_    0.389018 0.769628 0.380029 0.195085
H15   H     H_    0.332985 0.864623 0.391825 0.274339
C49   C     C_3   0.656606 0.348958 0.751628 -0.280780
C50   C     C_3   0.635822 0.202419 0.690049 -0.805531
H16   H     H_    0.621486 0.137775 0.796513 0.246141
H17   H     H_    0.606022 0.220573 0.601183 0.243164
H18   H     H_    0.664589 0.136656 0.628556 0.277004
H19   H     H_    0.685041 0.321775 0.843232 0.265076
H20   H     H_    0.629435 0.411629 0.823800 0.212798
F1    F     F_    0.252128 0.249742 0.580371 -0.583302
F2    F     F_    0.738347 0.641661 0.193411 -0.615108
F3    F     F_    0.255902 0.746990 0.373352 -0.588703
F4    F     F_    0.756694 0.384196 0.703879 -0.608799
F5    F     F_    0.127206 0.129799 0.261660 -0.511591
F6    F     F_    0.877492 0.891480 0.295397 -0.510863
F7    F     F_    0.119860 0.869671 0.608155 -0.509950
F8    F     F_    0.875655 0.112774 0.500791 -0.505044
F9    F     F_    0.972208 0.112801 0.493588 -0.492106
F10   F     F_    0.024774 0.878249 0.555160 -0.506758
F11   F     F_    0.974738 0.886736 0.297506 -0.491443
F12   F     F_    0.030477 0.124962 0.258404 -0.502884

loop_
_geom_bond_atom_site_label_1
_geom_bond_atom_site_label_2
_geom_bond_distance
_ccdc_geom_bond_type
C15   C43   1.513699 S    
C19   C23   1.405991 A    
C48   H13   1.107478 S    
O3    C2    1.263639 A    
Zn1   N4    1.969659 S    
C16   C45   1.526481 S    
C11   C17   1.406357 A    
C32   C38   1.411579 A    
Zn2   N3    1.969659 S    
C7    N1    1.372388 A    
O1    C1    1.264564 A    
C19   C21   1.406039 A    
C48   H12   1.107960 S    
C22   C26   1.404293 A    
C32   C36   1.411060 A    
C46   H6    1.109195 S    
C45   H10   1.104115 S    
C49   H19   1.110428 S    
O7    Zn1   2.005108 S    
C7    C23   1.399519 A    
C46   H7    1.110793 S    
C8    C24   1.401865 A    
C5    C21   1.402067 A    
C20   C24   1.406143 A    
C44   H2    1.107901 S    
C5    O9    1.349190 S    
C43   H4    1.110403 S    
C10   C18   1.400676 A    
C25   F5    1.358291 S    
C45   C46   1.530647 S    
C33   C35   1.410030 A    
C27   F7    1.358456 S    
C47   H14   1.110255 S    
O3    Zn1   1.973662 S    
C6    O10   1.349809 S    
C31   C37   1.408326 A    
C5    N1    1.373658 A    
C12   C18   1.395845 A    
N3    N4    1.190948 T    
C6    N2    1.371011 A    
C26   F6    1.356367 S    
O4    Zn2   1.973663 S    
O2    C2    1.264565 A    
C28   C37   1.394088 A    
C31   C34   1.414770 A    
C9    C13   1.397175 A    
C9    F3    1.359394 S    
C11   C15   1.398715 A    
C12   C16   1.395851 A    
C48   H11   1.110741 S    
C4    C30   1.471149 S    
O8    Zn2   2.005111 S    
C47   H15   1.109031 S    
C31   C35   1.411294 A    
N1    C17   1.441572 S    
C45   H9    1.111449 S    
C33   C39   1.405995 A    
N2    C18   1.436726 S    
C13   C29   1.408081 A    
C14   C49   1.522388 S    
C46   H8    1.111076 S    
O5    C3    1.273886 A    
C47   C48   1.531234 S    
C25   C40   1.395592 A    
C44   H1    1.110705 S    
C28   F8    1.356582 S    
C26   C39   1.392059 A    
C43   H5    1.109729 S    
C27   C38   1.393128 A    
C34   C36   1.411721 A    
C50   H16   1.110503 S    
O5    Zn1   2.008209 S    
O6    C4    1.278529 A    
C20   C35   1.408041 A    
C32   C33   1.410581 A    
C50   H17   1.108367 S    
C10   C14   1.402585 A    
C8    N2    1.370340 A    
C3    C29   1.452965 S    
O1    Zn1   1.975828 S    
C40   F12   1.355130 S    
O6    Zn2   2.008207 S    
C44   H3    1.107164 S    
C8    O12   1.349705 S    
C16   C30   1.425213 A    
C14   C30   1.425712 A    
O4    C1    1.263601 A    
C23   C27   1.406347 A    
C13   C47   1.514548 S    
C1    C41   1.380458 S    
C37   F9    1.351750 S    
C20   C22   1.406586 A    
C41   C42   1.173726 T    
C49   H20   1.107443 S    
C11   F1    1.359211 S    
C2    C42   1.380442 S    
C21   C25   1.407863 A    
C43   C44   1.531187 S    
O2    Zn2   1.975827 S    
O7    C4    1.280036 A    
C34   C40   1.411581 A    
C9    C17   1.406734 A    
O8    C3    1.272663 A    
C24   C28   1.404657 A    
C50   H18   1.110981 S    
C49   C50   1.528463 S    
C15   C29   1.409244 A    
C39   F11   1.353112 S    
C19   C36   1.405035 A    
C38   F10   1.354450 S    
C12   F2    1.359816 S    
C10   F4    1.359696 S    
C6    C22   1.398901 A    
C7    O11   1.349596 S    
