data_str_m2_o40_o40_f0_fof.sym.51
_audit_creation_date              2012-10-26T17:12:29-0400
_audit_creation_method            fapswitch 2.2
_symmetry_space_group_name_H-M    P1
_symmetry_Int_Tables_number       1
_space_group_crystal_system       triclinic
_cell_length_a                    16.863023
_cell_length_b                    16.729792
_cell_length_c                    16.791549
_cell_angle_alpha                 67.686471
_cell_angle_beta                  67.962325
_cell_angle_gamma                 67.884272
_cell_volume                      3908.0452229

loop_
_atom_site_label
_atom_site_type_symbol
_atom_type_description
_atom_site_fract_x
_atom_site_fract_y
_atom_site_fract_z
_atom_type_partial_charge
C1    C     C_R   0.028424 0.828073 0.564459 0.543535
C2    C     C_R   0.018660 0.568418 0.830057 0.551618
C3    C     C_3   0.876679 0.286401 0.287140 -0.231757
C4    C     C_3   0.788989 0.358693 0.276598 -0.314577
C5    C     C_3   0.721940 0.318596 0.275413 -0.467797
C6    C     C_3   0.714897 0.717753 0.110789 -0.203041
C7    C     C_3   0.777041 0.781037 0.059558 -0.234547
C8    C     C_3   0.847994 0.761180 0.105420 -0.465114
C9    C     C_3   0.287422 0.294860 0.876531 -0.231494
C10   C     C_3   0.360682 0.284526 0.789395 -0.314615
C11   C     C_3   0.323108 0.283265 0.720316 -0.467251
C12   C     C_R   0.171699 0.969885 0.435880 0.556684
C13   C     C_R   0.830927 0.016951 0.568970 0.552478
C14   C     C_R   0.461486 0.055693 0.701126 -0.119712
C15   C     C_R   0.546194 0.911397 0.301025 -0.113276
C16   C     C_R   0.056396 0.702613 0.458355 -0.115635
C17   C     C_R   0.910745 0.301374 0.547697 -0.113397
C18   C     C_R   0.709159 0.453964 0.055940 -0.120648
C19   C     C_R   0.274823 0.510366 0.028994 -0.112976
C20   C     C_R   0.291475 0.937649 0.546594 -0.111946
C21   C     C_R   0.968558 0.172249 0.436262 0.556805
C22   C     C_R   0.740607 0.942721 0.503316 -0.114865
C23   C     C_R   0.547307 0.294983 0.928626 -0.112335
C24   C     C_R   0.499508 0.732409 0.954912 -0.113663
C25   C     C_R   0.936697 0.547688 0.290674 -0.115847
C26   C     C_R   0.941747 0.504814 0.740408 -0.113913
C27   C     C_R   0.556664 0.979777 0.557374 -0.045306
C28   C     C_R   0.462415 0.956664 0.462266 -0.045437
C29   C     C_R   0.980106 0.558301 0.555065 -0.044399
C30   C     C_R   0.957005 0.463015 0.461791 -0.045283
C31   C     C_R   0.556026 0.546664 0.998932 -0.044040
C32   C     C_R   0.828546 0.563932 0.029645 0.545788
C33   C     C_R   0.459262 0.451674 0.981996 -0.045903
C34   C     C_R   0.604324 0.951258 0.477724 0.058950
C35   C     C_R   0.419148 0.971173 0.547684 0.067653
C36   C     C_R   0.950558 0.478958 0.603836 0.060102
C37   C     C_R   0.971629 0.548780 0.417458 0.069271
C38   C     C_R   0.470980 0.590767 0.984672 0.068421
C39   C     C_R   0.550943 0.413436 0.976244 0.068178
C40   C     C_R   0.556261 0.939092 0.429744 0.062791
C41   C     C_R   0.463250 0.995219 0.588796 0.065276
C42   C     C_R   0.417102 0.537823 0.995220 0.067750
C43   C     C_R   0.171012 0.432681 0.978366 0.553276
C44   C     C_R   0.593644 0.454848 0.002058 0.067691
C45   C     C_R   0.938622 0.430867 0.556046 0.064341
C46   C     C_R   0.995872 0.589961 0.461003 0.068678
C47   C     C_R   0.416040 0.042515 0.654596 0.126396
C48   C     C_R   0.596422 0.900497 0.356626 0.134620
C49   C     C_R   0.042883 0.656333 0.412926 0.128389
C50   C     C_R   0.899034 0.358406 0.596898 0.134598
C51   C     C_R   0.667064 0.407274 0.038044 0.123369
C52   C     C_R   0.323663 0.563071 0.027041 0.119881
C53   C     C_R   0.337522 0.949325 0.593402 0.130594
C54   C     C_R   0.564660 0.027926 0.828411 0.544150
C55   C     C_R   0.697130 0.941992 0.447693 0.124015
C56   C     C_R   0.595995 0.339060 0.940712 0.131077
C57   C     C_R   0.447225 0.685155 0.953495 0.120651
C58   C     C_R   0.948924 0.594878 0.335947 0.128761
C59   C     C_R   0.939915 0.449244 0.697468 0.125262
C60   C     C_R   0.554588 0.028259 0.680608 -0.022642
C61   C     C_R   0.453064 0.942765 0.325587 -0.022050
C62   C     C_R   0.029335 0.681104 0.551879 -0.020789
C63   C     C_R   0.942407 0.325732 0.454251 -0.017256
C64   C     C_R   0.682367 0.548622 0.035885 -0.022231
C65   C     C_R   0.435883 0.969242 0.172056 0.561480
C66   C     C_R   0.316111 0.436806 0.991717 -0.021653
C67   C     C_R   0.322280 0.950791 0.453123 -0.022401
C68   C     C_R   0.694665 0.982580 0.574094 -0.027068
C69   C     C_R   0.453652 0.321752 0.953101 -0.019914
C70   C     C_R   0.570094 0.688352 0.995979 -0.025586
C71   C     C_R   0.950537 0.453851 0.322091 -0.023163
C72   C     C_R   0.983757 0.574100 0.693288 -0.025921
C73   C     C_R   0.601331 0.037903 0.730522 -0.026148
C74   C     C_R   0.401242 0.948738 0.272158 -0.026310
C75   C     C_R   0.041024 0.729081 0.598700 -0.012992
C76   C     C_R   0.436181 0.171938 0.969561 0.554769
C77   C     C_R   0.946435 0.272902 0.402928 -0.024667
C78   C     C_R   0.730732 0.598219 0.043388 -0.026690
C79   C     C_R   0.268842 0.395469 0.970021 -0.017531
C80   C     C_R   0.270820 0.950391 0.402108 -0.023749
C81   C     C_R   0.737281 0.014398 0.611315 -0.014852
C82   C     C_R   0.403140 0.271756 0.951146 -0.013354
C83   C     C_R   0.608801 0.733857 0.022594 -0.013950
C84   C     C_R   0.949047 0.402890 0.271509 -0.011768
C85   C     C_R   0.019260 0.608759 0.734679 -0.015065
C86   C     C_R   0.688956 0.045206 0.689048 -0.036905
C87   C     C_R   0.568003 0.829812 0.019984 0.556406
C88   C     C_R   0.314013 0.937966 0.315093 -0.027900
C89   C     C_R   0.056665 0.681868 0.682804 -0.035748
C90   C     C_R   0.932255 0.317673 0.317192 -0.029470
C91   C     C_R   0.687254 0.686035 0.052300 -0.035166
C92   C     C_R   0.317646 0.318158 0.938258 -0.033637
C93   C     C_R   0.601979 0.997130 0.603860 0.009170
C94   C     C_R   0.411964 0.951802 0.412919 0.009270
C95   C     C_R   0.998031 0.604222 0.600012 0.008023
C96   C     C_R   0.951893 0.413392 0.412065 0.007403
C97   C     C_R   0.602619 0.594510 0.011033 0.008739
C98   C     C_R   0.969634 0.435886 0.171889 0.552247
C99   C     C_R   0.409665 0.403881 0.974577 0.008308
C100  C     C_3   0.722848 0.100579 0.718859 -0.198080
C101  C     C_3   0.785785 0.044377 0.781166 -0.234702
C102  C     C_3   0.853372 0.091474 0.768284 -0.450278
C103  C     C_3   0.283713 0.881123 0.284296 -0.210358
C104  C     C_3   0.222145 0.933416 0.221182 -0.242992
C105  C     C_3   0.242119 0.886294 0.150754 -0.449355
C106  C     C_3   0.124503 0.700594 0.708737 -0.232296
C107  C     C_3   0.209601 0.708988 0.631570 -0.316850
C108  C     C_3   0.284020 0.705280 0.664722 -0.457499
Cu1   Cu    Cu3+1 0.995180 0.995180 0.424630 0.856622
Cu2   Cu    Cu3+1 0.004820 0.004820 0.575370 0.869725
Cu3   Cu    Cu3+1 0.995180 0.424630 0.995180 0.871691
Cu4   Cu    Cu3+1 0.004820 0.575370 0.004820 0.854270
Cu5   Cu    Cu3+1 0.424630 0.995180 0.995180 0.857207
Cu6   Cu    Cu3+1 0.575370 0.004820 0.004820 0.857412
H1    H     H_    0.422789 0.094013 0.748992 0.136926
H2    H     H_    0.484687 0.803161 0.920831 0.157003
H3    H     H_    0.908235 0.587392 0.235525 0.129891
H4    H     H_    0.914988 0.487047 0.811902 0.162059
H5    H     H_    0.316513 0.157085 0.640616 0.219188
H6    H     H_    0.290721 0.074402 0.734299 0.229193
H7    H     H_    0.719011 0.850087 0.282750 0.229839
H8    H     H_    0.670359 0.772205 0.363471 0.210646
H9    H     H_    0.155661 0.649635 0.311438 0.213702
H10   H     H_    0.069229 0.737759 0.286791 0.230373
H11   H     H_    0.844360 0.289309 0.720769 0.229880
H12   H     H_    0.579970 0.881923 0.245677 0.125191
H13   H     H_    0.770334 0.367842 0.666061 0.209562
H14   H     H_    0.670599 0.292136 0.138391 0.219271
H15   H     H_    0.760276 0.286906 0.048063 0.226952
H16   H     H_    0.248267 0.608837 0.135102 0.225322
H17   H     H_    0.228309 0.679217 0.037248 0.233002
H18   H     H_    0.315379 0.856114 0.712750 0.212203
H19   H     H_    0.240251 0.957741 0.708752 0.234752
H20   H     H_    0.804182 0.892515 0.355246 0.243935
H21   H     H_    0.766845 0.005588 0.328392 0.219701
H22   H     H_    0.704947 0.326436 0.836838 0.221525
H23   H     H_    0.095227 0.750420 0.419537 0.126771
H24   H     H_    0.715504 0.246424 0.933186 0.233469
H25   H     H_    0.404795 0.763812 0.843709 0.227923
H26   H     H_    0.333646 0.783286 0.940801 0.234310
H27   H     H_    0.854935 0.712671 0.313698 0.222713
H28   H     H_    0.955677 0.711755 0.238954 0.228812
H29   H     H_    0.887712 0.358198 0.805596 0.246257
H30   H     H_    0.999798 0.328911 0.769945 0.219851
H31   H     H_    0.893706 0.107677 0.697872 0.191423
H32   H     H_    0.817819 0.153956 0.789399 0.116248
H33   H     H_    0.899024 0.047222 0.810843 0.121550
H34   H     H_    0.880657 0.246259 0.581552 0.116690
H35   H     H_    0.749227 0.034588 0.852620 0.175146
H36   H     H_    0.820350 0.976003 0.772321 0.187551
H37   H     H_    0.755129 0.146880 0.658210 0.133733
H38   H     H_    0.665785 0.147844 0.752951 0.116762
H39   H     H_    0.311362 0.880429 0.107805 0.201094
H40   H     H_    0.232293 0.817937 0.183844 0.138746
H41   H     H_    0.196232 0.925352 0.107529 0.118416
H42   H     H_    0.151874 0.936504 0.259299 0.173074
H43   H     H_    0.226292 0.003687 0.188265 0.197713
H44   H     H_    0.344102 0.834888 0.252087 0.137539
H45   H     H_    0.760349 0.413968 0.089779 0.142067
H46   H     H_    0.249780 0.835027 0.343754 0.114257
H47   H     H_    0.259833 0.755059 0.703035 0.147030
H48   H     H_    0.306862 0.637223 0.708662 0.160055
H49   H     H_    0.341164 0.720773 0.606888 0.148811
H50   H     H_    0.232844 0.653269 0.600439 0.159828
H51   H     H_    0.196215 0.773584 0.579408 0.163058
H52   H     H_    0.094163 0.762007 0.732154 0.170278
H53   H     H_    0.147298 0.644210 0.763876 0.171963
H54   H     H_    0.699065 0.273359 0.342389 0.157352
H55   H     H_    0.663336 0.373097 0.257665 0.149002
H56   H     H_    0.205197 0.527310 0.063351 0.157455
H57   H     H_    0.753305 0.279346 0.225752 0.143258
H58   H     H_    0.759173 0.389263 0.333296 0.159704
H59   H     H_    0.801598 0.412805 0.213683 0.165322
H60   H     H_    0.914763 0.265599 0.224940 0.172537
H61   H     H_    0.856616 0.227055 0.338372 0.168440
H62   H     H_    0.816292 0.760624 0.176546 0.119283
H63   H     H_    0.897671 0.696013 0.101373 0.194419
H64   H     H_    0.883630 0.814215 0.072140 0.118158
H65   H     H_    0.808855 0.778708 0.989047 0.188416
H66   H     H_    0.739100 0.851523 0.058408 0.175327
H67   H     H_    0.235355 0.911033 0.586875 0.143480
H68   H     H_    0.654482 0.750834 0.156046 0.118295
H69   H     H_    0.747081 0.657434 0.157752 0.128725
H70   H     H_    0.287000 0.230837 0.749610 0.145241
H71   H     H_    0.276530 0.349558 0.698303 0.158444
H72   H     H_    0.378174 0.268603 0.661051 0.144079
H73   H     H_    0.391048 0.341530 0.760572 0.159743
H74   H     H_    0.413775 0.221161 0.802826 0.164938
H75   H     H_    0.264282 0.233244 0.911808 0.172900
H76   H     H_    0.231465 0.349831 0.854441 0.171854
H77   H     H_    0.811685 0.915664 0.485193 0.162006
H78   H     H_    0.584279 0.242572 0.895302 0.125697
N1    N     N_3   0.323184 0.088101 0.665892 -0.608359
N2    N     N_3   0.376959 0.732645 0.910434 -0.616570
N3    N     N_3   0.923279 0.691156 0.306883 -0.618946
N4    N     N_3   0.941851 0.358078 0.748515 -0.607996
N5    N     N_3   0.680930 0.834496 0.349254 -0.609908
N6    N     N_3   0.087139 0.669117 0.319279 -0.618401
N7    N     N_3   0.830505 0.354784 0.679401 -0.609601
N8    N     N_3   0.691035 0.311116 0.068621 -0.612694
N9    N     N_3   0.278667 0.635427 0.067778 -0.619557
N10   N     N_3   0.307972 0.925207 0.689291 -0.619219
N11   N     N_3   0.746699 0.946492 0.356405 -0.604877
N12   N     N_3   0.690785 0.315311 0.905638 -0.608263
O1    O     O_R   0.124540 0.978640 0.385460 -0.512490
O2    O     O_R   0.124540 0.385460 0.978640 -0.506920
O3    O     O_R   0.021360 0.875460 0.614540 -0.511350
O4    O     O_R   0.978640 0.124540 0.385460 -0.507220
O5    O     O_R   0.013780 0.867370 0.487190 -0.525398
O6    O     O_R   0.986220 0.132630 0.512810 -0.506171
O7    O     O_R   0.867370 0.487190 0.013780 -0.527004
O8    O     O_R   0.132630 0.512810 0.986220 -0.517828
O9    O     O_R   0.487190 0.013780 0.867370 -0.520303
O10   O     O_R   0.512810 0.986220 0.132630 -0.502640
O11   O     O_R   0.512810 0.132630 0.986220 -0.507038
O12   O     O_R   0.875460 0.021360 0.614540 -0.516352
O13   O     O_R   0.487190 0.867370 0.013780 -0.530094
O14   O     O_R   0.986220 0.512810 0.132630 -0.530282
O15   O     O_R   0.013780 0.487190 0.867370 -0.522369
O16   O     O_R   0.132630 0.986220 0.512810 -0.511202
O17   O     O_R   0.867370 0.013780 0.487190 -0.527575
O18   O     O_R   0.978640 0.385460 0.124540 -0.506955
O19   O     O_R   0.021360 0.614540 0.875460 -0.510763
O20   O     O_R   0.385460 0.124540 0.978640 -0.505769
O21   O     O_R   0.614540 0.875460 0.021360 -0.524202
O22   O     O_R   0.614540 0.021360 0.875460 -0.523742
O23   O     O_R   0.385460 0.978640 0.124540 -0.504139
O24   O     O_R   0.875460 0.614540 0.021360 -0.511161

loop_
_geom_bond_atom_site_label_1
_geom_bond_atom_site_label_2
_ccdc_geom_bond_type
C54   O9    A    
C105  H39   S    
C107  H51   S    
C35   C41   A    
C101  C102  S    
Cu4   O24   S    
C13   C81   S    
C35   C53   A    
C11   H72   S    
C26   C72   A    
C23   C69   A    
C20   C67   A    
C83   C87   S    
C16   H23   S    
C19   H56   S    
Cu5   O9    S    
C104  H43   S    
C36   C59   A    
C72   C85   A    
C24   C70   A    
H20   N11   S    
C100  H38   S    
C66   C79   A    
C29   C36   A    
C33   C39   A    
Cu3   O15   S    
C6    H68   S    
C3    C90   S    
C34   C40   A    
C33   C42   A    
C106  H52   S    
C13   O12   A    
Cu5   Cu6   S    
C102  H31   S    
C14   C60   A    
C9    H75   S    
C103  H46   S    
Cu5   O23   S    
C106  C107  S    
C28   C40   A    
C43   C79   S    
C6    C91   S    
C38   C57   A    
H10   N6    S    
C58   N3    S    
C82   C92   A    
C21   O6    A    
C65   O23   A    
C19   C66   A    
C28   C94   A    
C52   N9    S    
H27   N3    S    
C5    H54   S    
Cu6   O10   S    
C54   O22   A    
C30   C96   A    
C69   C82   A    
C30   C45   A    
C22   C68   A    
C72   C95   A    
H24   N12   S    
C19   C52   A    
C74   C88   A    
Cu3   Cu4   S    
C28   C35   A    
C24   C57   A    
C87   O21   A    
C15   H12   S    
C89   C106  S    
C67   C94   A    
C10   H74   S    
C107  C108  S    
Cu2   O3    S    
C25   C71   A    
C53   N10   S    
Cu2   O16   S    
C9    C10   S    
C81   C86   A    
H25   N2    S    
C60   C93   A    
C87   O13   A    
C105  H40   S    
C34   C55   A    
C27   C34   A    
C29   C46   A    
C62   C95   A    
C43   O2    A    
Cu2   O6    S    
C84   C90   A    
C15   C48   A    
Cu1   O5    S    
C60   C73   A    
C8    H63   S    
C9    C92   S    
Cu5   O13   S    
C104  C105  S    
C41   C47   A    
C18   C51   A    
C6    C7    S    
C49   N6    S    
C100  H37   S    
C5    H57   S    
C108  H49   S    
C77   C90   A    
C31   C44   A    
C67   C80   A    
C18   H45   S    
C1    O5    A    
C1    C75   S    
C32   O24   A    
C23   C56   A    
C17   H34   S    
C16   C49   A    
C10   C11   S    
C76   C82   S    
C29   C95   A    
C32   O7    A    
C85   C89   A    
C61   C94   A    
C20   C53   A    
H21   N11   S    
C71   C96   A    
C108  H48   S    
C63   C96   A    
C76   O20   A    
C101  H36   S    
C30   C37   A    
H13   N7    S    
H5    N1    S    
Cu3   O18   S    
C66   C99   A    
Cu1   O4    S    
Cu2   O12   S    
H14   N8    S    
Cu5   O20   S    
C9    H76   S    
C43   O8    A    
C102  H33   S    
Cu6   O22   S    
C54   C73   S    
C27   C41   A    
C3    H60   S    
C39   C56   A    
C46   C49   A    
H28   N3    S    
C55   N11   S    
Cu6   O11   S    
C10   H73   S    
C15   C61   A    
H9    N6    S    
C7    H65   S    
C36   C45   A    
C104  H42   S    
C106  H53   S    
Cu1   O1    S    
C70   C83   A    
Cu3   O2    S    
H7    N5    S    
C79   C92   A    
C14   C47   A    
H16   N9    S    
C56   N12   S    
C69   C99   A    
C44   C51   A    
C3    H61   S    
C64   C97   A    
C105  H41   S    
C70   C97   A    
C24   H2    S    
C6    H69   S    
C4    H59   S    
C98   O14   A    
C2    O15   A    
C59   N4    S    
Cu4   O19   S    
C62   C75   A    
C27   C93   A    
C25   C58   A    
C68   C81   A    
C39   C44   A    
C3    C4    S    
Cu4   O8    S    
H22   N12   S    
C88   C103  S    
Cu1   O17   S    
C21   O4    A    
C71   C84   A    
C63   C77   A    
C23   H78   S    
H19   N10   S    
C40   C48   A    
C5    H55   S    
C4    H58   S    
C11   H71   S    
C64   C78   A    
C1    O3    A    
C47   N1    S    
C11   H70   S    
C26   H4    S    
C13   O17   A    
C4    C5    S    
C25   H3    S    
C17   C50   A    
C50   N7    S    
C8    H62   S    
C103  H44   S    
C38   C42   A    
C22   C55   A    
H30   N4    S    
C78   C91   A    
C83   C91   A    
C108  H47   S    
C48   N5    S    
H18   N10   S    
H6    N1    S    
C31   C38   A    
C57   N2    S    
C84   C98   S    
C12   O1    A    
C37   C58   A    
C22   H77   S    
C12   C80   S    
C65   O10   A    
C80   C88   A    
Cu1   Cu2   S    
C17   C63   A    
Cu6   O21   S    
C86   C100  S    
C76   O11   A    
C18   C64   A    
C45   C50   A    
H29   N4    S    
C98   O18   A    
C101  H35   S    
C2    O19   A    
C7    H66   S    
C31   C97   A    
H8    N5    S    
H17   N9    S    
C68   C93   A    
Cu3   O7    S    
C73   C86   A    
H15   N8    S    
C7    C8    S    
C51   N8    S    
C65   C74   S    
C32   C78   S    
C8    H64   S    
C2    C85   S    
C107  H50   S    
H11   N7    S    
C16   C62   A    
C75   C89   A    
C21   C77   S    
C103  C104  S    
Cu4   O14   S    
C26   C59   A    
C100  C101  S    
C33   C99   A    
C37   C46   A    
H26   N2    S    
C12   O16   A    
C102  H32   S    
C14   H1    S    
C61   C74   A    
C42   C52   A    
C20   H67   S    
