data_str_m9_o10_o29_f0_sra.sym.208
_audit_creation_date              2013-03-05T15:41:00-0500
_audit_creation_method            fapswitch 2.2
_symmetry_space_group_name_H-M    P1
_symmetry_Int_Tables_number       1
_space_group_crystal_system       triclinic
_cell_length_a                    28.064135
_cell_length_b                    7.199397
_cell_length_c                    17.382144
_cell_angle_alpha                 89.96454
_cell_angle_beta                  101.012831
_cell_angle_gamma                 89.929987
_cell_volume                      3447.29380828

loop_
_atom_site_label
_atom_site_type_symbol
_atom_site_description
_atom_site_fract_x
_atom_site_fract_y
_atom_site_fract_z
_atom_type_partial_charge
O1    O     O_R   0.000700 0.436510 0.857920 -0.544767
O2    O     O_R   0.999300 0.563490 0.142080 -0.548827
O3    O     O_R   0.999300 0.936510 0.642080 -0.544381
O4    O     O_R   0.000700 0.063490 0.357920 -0.548894
O5    O     O_R   0.930080 0.766380 0.721890 -0.498358
O6    O     O_R   0.069920 0.233620 0.278110 -0.499322
O7    O     O_R   0.069920 0.266380 0.778110 -0.503296
O8    O     O_R   0.930080 0.733620 0.221890 -0.498895
C1    C     C_R   0.910444 0.597483 0.709896 0.959981
C2    C     C_R   0.089466 0.401973 0.292157 0.958839
C3    C     C_R   0.089527 0.097565 0.789475 0.964921
C4    C     C_R   0.910481 0.902554 0.208165 0.958905
O9    O     O_R   0.996180 0.766230 0.862310 -0.512672
O10   O     O_R   0.003820 0.233770 0.137690 -0.506828
O11   O     O_R   0.003820 0.266230 0.637690 -0.510225
O12   O     O_R   0.996180 0.733770 0.362310 -0.507335
O13   O     O_R   0.065870 0.936460 0.783500 -0.510786
O14   O     O_R   0.934130 0.063540 0.216500 -0.508653
O15   O     O_R   0.934130 0.436460 0.716500 -0.509191
O16   O     O_R   0.065870 0.563540 0.283500 -0.507923
C5    C     C_R   0.998446 0.596032 0.894224 0.812683
C6    C     C_R   0.001528 0.403961 0.105769 0.821579
C7    C     C_R   0.001554 0.096080 0.605765 0.820586
C8    C     C_R   0.998490 0.903909 0.394247 0.820918
O17   O     O_3   0.022790 0.603020 0.723980 -0.239537
O18   O     O_3   0.977210 0.396980 0.276020 -0.243303
O19   O     O_3   0.977210 0.103020 0.776020 -0.242711
O20   O     O_3   0.022790 0.896980 0.223980 -0.242517
V1    V     V_3+5 0.995770 0.877900 0.754830 1.407427
V2    V     V_3+5 0.004230 0.122100 0.245170 1.406197
V3    V     V_3+5 0.004230 0.377900 0.745170 1.405309
V4    V     V_3+5 0.995770 0.622100 0.254830 1.406294
C9    C     C_2   0.002408 0.082914 0.520463 0.100058
C10   C     C_2   0.997717 0.917044 0.479577 0.099308
C11   C     C_2   0.997566 0.582894 0.979499 0.099533
C12   C     C_2   0.002368 0.417088 0.020481 0.100238
C13   C     C_R   0.685528 0.001061 0.019643 0.757745
C14   C     C_R   0.315773 0.038446 0.953991 0.738085
C15   C     C_R   0.314332 0.493690 0.484930 0.761026
C16   C     C_R   0.683423 0.520618 0.543106 0.745305
O21   O     O_2   0.717027 0.014392 0.970232 -0.419937
O22   O     O_2   0.284016 0.014617 0.002418 -0.440551
O23   O     O_2   0.282932 0.523415 0.533471 -0.416886
O24   O     O_2   0.714020 0.526582 0.492013 -0.428639
N1    N     N_R   0.702654 0.951855 0.096149 -0.414813
N2    N     N_R   0.298235 0.059211 0.875516 -0.410235
N3    N     N_R   0.296846 0.432875 0.410100 -0.415695
N4    N     N_R   0.701712 0.547016 0.621101 -0.414336
C17   C     C_R   0.671287 0.919489 0.146106 0.771305
C18   C     C_R   0.328878 0.069367 0.823194 0.782762
C19   C     C_R   0.328071 0.381221 0.362247 0.768359
C20   C     C_R   0.671692 0.558156 0.674390 0.784507
C21   C     C_R   0.776054 0.770018 0.154532 0.613455
C22   C     C_R   0.219792 0.919434 0.814003 0.618428
C23   C     C_R   0.222534 0.257213 0.352258 0.615689
C24   C     C_R   0.775736 0.725863 0.676464 0.609057
C25   C     C_R   0.826324 0.757934 0.182355 0.515744
C26   C     C_R   0.168972 0.926912 0.794693 0.500503
C27   C     C_R   0.172594 0.250267 0.321983 0.515022
C28   C     C_R   0.826441 0.739422 0.697010 0.514915
C29   C     C_R   0.834563 0.082368 0.149459 0.517784
C30   C     C_R   0.170865 0.242946 0.843922 0.529388
C31   C     C_R   0.165886 0.577264 0.351675 0.518228
C32   C     C_R   0.833624 0.418303 0.658034 0.518935
C33   C     C_R   0.784344 0.094011 0.122935 0.613385
C34   C     C_R   0.221595 0.234371 0.863031 0.601955
C35   C     C_R   0.216008 0.584153 0.380102 0.612964
C36   C     C_R   0.783082 0.405463 0.638483 0.617817
C37   C     C_R   0.754593 0.938231 0.124760 -0.118603
C38   C     C_R   0.246361 0.072580 0.848644 -0.101895
C39   C     C_R   0.244860 0.424360 0.381047 -0.125568
C40   C     C_R   0.753744 0.558997 0.646905 -0.112486
C41   C     C_R   0.602419 0.988896 0.041489 -0.200934
C42   C     C_R   0.398622 0.042574 0.930527 -0.200451
C43   C     C_R   0.397300 0.458314 0.464504 -0.195970
C44   C     C_R   0.601365 0.512024 0.569720 -0.204001
C45   C     C_R   0.635291 0.032783 0.991943 -0.161303
C46   C     C_R   0.366383 0.038151 0.983873 -0.170924
C47   C     C_R   0.364850 0.520443 0.511905 -0.160872
C48   C     C_R   0.633078 0.493100 0.515929 -0.162905
C49   C     C_R   0.616907 0.108749 0.916997 0.295757
C50   C     C_R   0.385747 0.036177 0.065135 0.262783
C51   C     C_R   0.383959 0.607851 0.584095 0.287553
C52   C     C_R   0.613370 0.455626 0.436300 0.286490
C53   C     C_R   0.620600 0.930464 0.119116 -0.213836
C54   C     C_R   0.379719 0.058016 0.849394 -0.207948
C55   C     C_R   0.378652 0.383225 0.389942 -0.215321
C56   C     C_R   0.620840 0.544101 0.649740 -0.208037
C57   C     C_R   0.856584 0.914060 0.180098 -0.452556
C58   C     C_R   0.143651 0.088646 0.809917 -0.447657
C59   C     C_R   0.143217 0.410197 0.321521 -0.455187
C60   C     C_R   0.856326 0.585782 0.687735 -0.453429
C61   C     C_R   0.482099 0.046096 0.904933 -0.085579
C62   C     C_R   0.518756 0.967654 0.065001 -0.089840
C63   C     C_R   0.518386 0.528256 0.596997 -0.084998
C64   C     C_R   0.480498 0.414210 0.441870 -0.088164
C65   C     C_R   0.468278 0.004462 0.039256 -0.025879
C66   C     C_R   0.533183 0.055127 0.934762 -0.003919
C67   C     C_R   0.531052 0.451775 0.464614 -0.017868
C68   C     C_R   0.467241 0.537454 0.567765 -0.002734
C69   C     C_R   0.449765 0.030941 0.958267 -0.082941
C70   C     C_R   0.551354 0.003836 0.013650 -0.075695
C71   C     C_R   0.550186 0.497278 0.543726 -0.080529
C72   C     C_R   0.448440 0.470347 0.491473 -0.070095
C73   C     C_R   0.462004 0.045769 0.823707 0.690951
C74   C     C_R   0.537860 0.890802 0.139491 0.659265
C75   C     C_R   0.539046 0.542374 0.677725 0.697059
C76   C     C_R   0.460793 0.315609 0.372818 0.655756
C77   C     C_R   0.411988 0.057614 0.796698 0.654313
C78   C     C_R   0.587717 0.880533 0.167157 0.652352
C79   C     C_R   0.589160 0.554557 0.703271 0.659879
C80   C     C_R   0.410907 0.307062 0.345953 0.648543
O25   O     O_2   0.310121 0.090487 0.746270 -0.383239
O26   O     O_2   0.689172 0.877681 0.221790 -0.376317
O27   O     O_2   0.691105 0.582127 0.750904 -0.374736
O28   O     O_2   0.310192 0.329951 0.287696 -0.371754
C81   C     C_R   0.566665 0.122702 0.890076 0.657375
C82   C     C_R   0.435918 0.024573 0.091892 0.664569
C83   C     C_R   0.434334 0.619122 0.610252 0.651320
C84   C     C_R   0.563032 0.448393 0.410795 0.664609
N5    N     N_R   0.008506 0.254545 0.481855 0.102912
O29   O     O_R   0.051747 0.310476 0.476090 -0.313246
O30   O     O_R   0.970622 0.350291 0.449514 -0.260496
N6    N     N_R   0.991732 0.745359 0.518223 0.103631
O31   O     O_R   0.948532 0.689099 0.524065 -0.307166
O32   O     O_R   0.029681 0.649966 0.550571 -0.254765
N7    N     N_R   0.991308 0.754500 0.017975 0.103055
O33   O     O_R   0.948003 0.810553 0.023499 -0.309291
O34   O     O_R   0.029106 0.850125 0.050420 -0.264307
N8    N     N_R   0.008568 0.245456 0.981984 0.103809
O35   O     O_R   0.051845 0.189402 0.976294 -0.299950
O36   O     O_R   0.970734 0.150003 0.949553 -0.260722
F1    F     F_    0.861418 0.236621 0.143590 -0.559916
F2    F     F_    0.148528 0.400885 0.861013 -0.563126
F3    F     F_    0.139736 0.734690 0.355138 -0.554919
F4    F     F_    0.860053 0.266515 0.646143 -0.563457
F5    F     F_    0.764490 0.258532 0.095140 -0.533045
F6    F     F_    0.246840 0.383009 0.897248 -0.557797
F7    F     F_    0.236609 0.747886 0.406849 -0.526906
F8    F     F_    0.762441 0.242881 0.610059 -0.540249
N9    N     N_R   0.648465 0.187834 0.869773 0.175790
O37   O     O_R   0.642939 0.145021 0.795875 -0.228789
O38   O     O_R   0.676916 0.324962 0.896959 -0.189486
N10   N     N_R   0.355315 0.056975 0.122002 0.191791
O39   O     O_R   0.355320 0.930028 0.175312 -0.170415
O40   O     O_R   0.331988 0.211907 0.126069 -0.179720
N11   N     N_R   0.353069 0.699743 0.629070 0.180712
O41   O     O_R   0.357748 0.665510 0.703655 -0.227644
O42   O     O_R   0.325938 0.837958 0.598594 -0.184276
N12   N     N_R   0.643815 0.409807 0.381369 0.163189
O43   O     O_R   0.638626 0.495873 0.314509 -0.142321
O44   O     O_R   0.670451 0.260494 0.392192 -0.222076
F9    F     F_    0.144781 0.776106 0.760363 -0.565012
F10   F     F_    0.844997 0.593215 0.212044 -0.545401
F11   F     F_    0.845948 0.902868 0.726527 -0.550826
F12   F     F_    0.153414 0.086312 0.292614 -0.542284
F13   F     F_    0.243230 0.761253 0.800507 -0.540660
F14   F     F_    0.748144 0.616830 0.156168 -0.534198
F15   F     F_    0.747936 0.876549 0.684200 -0.541133
F16   F     F_    0.249348 0.099944 0.353591 -0.526841
F17   F     F_    0.395484 0.064066 0.718040 -0.558727
F18   F     F_    0.603364 0.815509 0.240919 -0.535784
F19   F     F_    0.606318 0.573403 0.781396 -0.559508
F20   F     F_    0.394470 0.214475 0.278327 -0.524230
F21   F     F_    0.489813 0.014827 0.769176 -0.545458
F22   F     F_    0.508984 0.806593 0.183366 -0.545078
F23   F     F_    0.511680 0.525115 0.733777 -0.550246
F24   F     F_    0.488932 0.208288 0.335266 -0.536936
F25   F     F_    0.551392 0.227418 0.825141 -0.574244
F26   F     F_    0.452708 0.058465 0.169147 -0.521815
F27   F     F_    0.450395 0.733529 0.671625 -0.567082
F28   F     F_    0.545909 0.451252 0.332270 -0.545371

loop_
_geom_bond_atom_site_label_1
_geom_bond_atom_site_label_2
_geom_bond_distance
_ccdc_geom_bond_type
O17   V3    1.763052 S    
C67   C71   1.416181 A    
C32   F4    1.357895 S    
O1    C5    1.318013 A    
C23   C27   1.400767 A    
O19   V1    1.762301 S    
O13   V1    1.980928 S    
O3    C7    1.317853 A    
C11   C12   1.382896 D    
C75   F23   1.356642 S    
C68   C72   1.415794 A    
C48   C52   1.415216 A    
O4    V2    2.025359 S    
O15   V3    1.979773 S    
C78   F18   1.356281 S    
C29   F1    1.357564 S    
O7    C3    1.332462 A    
C21   F14   1.356910 S    
C25   C57   1.414615 A    
C76   F24   1.357476 S    
C32   C36   1.397203 A    
O9    V1    2.031422 S    
N11   O42   1.301501 A    
N4    C40   1.446030 S    
C14   O22   1.348756 S    
C24   F15   1.357144 S    
N9    O38   1.301468 A    
C22   C26   1.402337 A    
O4    C8    1.317860 A    
C82   F26   1.357846 S    
C64   C67   1.424451 A    
C49   C81   1.401677 A    
O1    V3    2.025814 S    
C52   C84   1.398529 A    
N5    O30   1.300352 A    
O2    V4    2.025814 S    
C51   C83   1.402379 A    
C65   C82   1.414223 A    
O3    V1    2.025359 S    
C61   C73   1.416761 A    
C67   C84   1.414904 A    
C56   C79   1.406364 A    
C1    O15   1.329567 A    
C62   C74   1.415349 A    
N11   O41   1.301247 A    
C63   C71   1.420942 A    
C24   C40   1.403399 A    
C34   F6    1.357368 S    
O2    C6    1.318012 A    
C16   C48   1.415769 A    
O14   V2    1.980928 S    
N1    C17   1.369487 A    
C35   F7    1.356307 S    
C44   C56   1.413142 A    
C36   C40   1.401845 A    
C33   F5    1.357071 S    
C44   C71   1.425076 A    
O11   C7    1.341677 A    
C17   O26   1.349103 S    
C64   C76   1.413785 A    
C21   C37   1.405530 A    
O12   C8    1.341655 A    
C9    N5    1.431718 S    
C31   C59   1.414701 A    
O10   V2    2.031423 S    
C1    C60   1.496320 S    
C29   C57   1.416132 A    
O5    V1    1.992977 S    
C28   C60   1.415091 A    
C80   F20   1.354028 S    
C31   C35   1.399965 A    
O7    V3    1.990878 S    
C30   C34   1.400042 A    
N1    C37   1.450607 S    
O8    V4    1.990875 S    
C17   C53   1.412285 A    
C4    C57   1.500157 S    
C20   C56   1.413264 A    
C54   C77   1.405722 A    
C79   F19   1.358288 S    
N10   O40   1.301430 A    
C53   C78   1.404643 A    
C2    O16   1.331909 A    
C21   C25   1.403817 A    
C63   C68   1.429645 A    
C84   F28   1.357846 S    
N3    C19   1.369708 A    
C55   C80   1.403006 A    
C14   C46   1.416061 A    
C62   C65   1.426210 A    
C7    C9    1.490576 S    
C66   C70   1.417189 A    
C15   N3    1.371757 A    
C13   C45   1.418241 A    
C8    C10   1.490569 S    
C76   C80   1.390103 A    
C15   C47   1.419075 A    
N8    O36   1.300374 A    
N7    O34   1.300363 A    
C61   C69   1.419974 A    
O5    C1    1.335576 A    
C26   F9    1.357785 S    
C12   N8    1.431723 S    
C46   C50   1.413285 A    
C22   C38   1.401960 A    
C45   C49   1.415636 A    
O8    C4    1.336608 A    
N3    C39   1.451249 S    
C49   N9    1.435543 S    
C9    C10   1.383519 D    
O9    C5    1.341144 A    
C68   C83   1.415555 A    
C27   C59   1.414426 A    
C42   C54   1.412971 A    
C11   N7    1.431737 S    
C26   C58   1.414565 A    
C41   C53   1.411988 A    
N5    O29   1.300936 A    
C63   C75   1.415989 A    
C42   C69   1.426458 A    
C51   N11   1.434737 S    
C50   N10   1.432237 S    
C41   C70   1.426237 A    
O6    V2    1.992977 S    
C83   F27   1.355702 S    
C2    C59   1.498543 S    
C19   C55   1.409241 A    
C43   C72   1.424894 A    
N12   O44   1.301449 A    
C36   F8    1.357477 S    
C50   C82   1.398320 A    
C13   N1    1.371057 A    
N7    O33   1.300941 A    
C74   F22   1.357439 S    
N2    C38   1.444493 S    
C66   C81   1.415090 A    
N6    O32   1.300377 A    
O16   V4    1.979773 S    
C20   O27   1.348748 S    
C43   C55   1.410070 A    
C16   N4    1.368306 A    
C73   C77   1.394946 A    
C3    O13   1.331366 A    
C10   N6    1.431715 S    
C75   C79   1.394487 A    
C44   C48   1.415156 A    
N10   O39   1.301092 A    
O6    C2    1.334312 A    
C15   O23   1.348366 S    
C27   F12   1.356816 S    
O11   V3    2.032347 S    
C5    C11   1.490133 S    
O12   V4    2.032348 S    
C6    C12   1.490119 S    
C25   F10   1.357079 S    
N2    C18   1.367817 A    
C19   O28   1.349022 S    
C23   F16   1.356468 S    
C18   O25   1.348594 S    
O10   C6    1.341128 A    
C64   C72   1.418498 A    
N8    O35   1.300945 A    
C28   F11   1.357415 S    
C77   F17   1.357921 S    
N9    O37   1.301348 A    
C22   F13   1.357217 S    
C47   C51   1.415229 A    
C3    C58   1.493677 S    
C30   F2    1.357927 S    
C34   C38   1.402560 A    
C33   C37   1.402965 A    
C30   C58   1.413201 A    
O20   V2    1.762302 S    
C73   F21   1.356325 S    
C35   C39   1.404263 A    
C29   C33   1.399008 A    
C13   O21   1.348520 S    
C65   C69   1.417064 A    
C14   N2    1.366873 A    
C18   C54   1.414650 A    
C81   F25   1.356225 S    
C16   O24   1.348820 S    
C24   C28   1.402937 A    
C62   C70   1.419064 A    
C74   C78   1.391804 A    
C42   C46   1.414199 A    
C4    O14   1.330459 A    
C41   C45   1.412964 A    
N12   O43   1.300003 A    
C32   C60   1.415361 A    
N4    C20   1.368317 A    
C43   C47   1.412246 A    
C61   C66   1.429899 A    
O18   V4    1.763053 S    
C23   C39   1.404934 A    
C31   F3    1.357065 S    
N6    O31   1.300925 A    
C52   N12   1.435932 S    
