data_str_m2_o1_o29_f0_pcu.sym.174
_audit_creation_date              2012-12-10T18:02:51-0500
_audit_creation_method            fapswitch 2.2
_symmetry_space_group_name_H-M    P1
_symmetry_Int_Tables_number       1
_space_group_crystal_system       triclinic
_cell_length_a                    10.843146
_cell_length_b                    9.605311
_cell_length_c                    27.756417
_cell_angle_alpha                 90.348348
_cell_angle_beta                  93.504368
_cell_angle_gamma                 90.038749
_cell_volume                      2885.42004453

loop_
_atom_site_label
_atom_site_type_symbol
_atom_type_description
_atom_site_fract_x
_atom_site_fract_y
_atom_site_fract_z
_atom_type_partial_charge
C1    C     C_R   0.262413 0.500483 0.500800 0.751630
C2    C     C_R   0.737565 0.500478 0.499030 0.757781
C3    C     C_R   0.515018 0.510602 0.101441 -0.188985
C4    C     C_R   0.490210 0.555740 0.897635 -0.190689
C5    C     C_R   0.404981 0.500980 0.125790 -0.115322
C6    C     C_R   0.598789 0.562435 0.872248 -0.092691
C7    C     C_R   0.292353 0.479633 0.098920 0.468262
C8    C     C_R   0.713734 0.574135 0.898305 0.462753
C9    C     C_R   0.629493 0.508881 0.128359 -0.213406
C10   C     C_R   0.374754 0.554005 0.871623 -0.221530
C11   C     C_R   0.512599 0.496302 0.355143 -0.399818
C12   C     C_R   0.483746 0.501074 0.644711 -0.385379
C13   C     C_R   0.386057 0.548997 0.973587 -0.109745
C14   C     C_R   0.621133 0.528654 0.025809 -0.086019
C15   C     C_R   0.613794 0.548232 0.974759 0.052046
C16   C     C_R   0.393429 0.523408 0.024076 0.027668
C17   C     C_R   0.496724 0.550619 0.948858 0.016915
C18   C     C_R   0.510045 0.522357 0.050298 0.012633
C19   C     C_R   0.272834 0.581147 0.946751 0.324234
C20   C     C_R   0.734784 0.507787 0.053429 0.316905
C21   C     C_R   0.267500 0.580628 0.896215 0.407971
C22   C     C_R   0.739258 0.516629 0.103943 0.355124
C23   C     C_R   0.503260 0.499294 0.407751 0.922837
C24   C     C_R   0.496221 0.500240 0.592239 0.940505
C25   C     C_R   0.288049 0.489276 0.048905 -0.262715
C26   C     C_R   0.719124 0.574401 0.948691 -0.263818
C27   C     C_R   0.063520 0.377644 0.503482 -0.219075
C28   C     C_R   0.935897 0.629380 0.498664 -0.192219
C29   C     C_R   0.936540 0.377290 0.497658 -0.215892
C30   C     C_R   0.063986 0.629355 0.499119 -0.193216
C31   C     C_R   0.871478 0.502527 0.498001 -0.018467
C32   C     C_R   0.128481 0.502665 0.501548 -0.020852
C33   C     C_R   0.428841 0.073779 0.466173 0.347608
C34   C     C_R   0.564355 0.925948 0.535873 0.356833
C35   C     C_R   0.570657 0.075009 0.534023 0.346583
C36   C     C_R   0.435780 0.924722 0.464080 0.356244
C37   C     C_R   0.411424 0.508156 0.176427 0.626275
C38   C     C_R   0.588415 0.559292 0.821346 0.634921
C39   C     C_R   0.630755 0.492864 0.178901 0.648858
C40   C     C_R   0.370516 0.529757 0.821529 0.638732
C41   C     C_R   0.594997 0.591656 0.282592 0.404235
C42   C     C_R   0.400321 0.608676 0.715380 0.401840
C43   C     C_R   0.595511 0.585602 0.333195 0.286997
C44   C     C_R   0.399403 0.592704 0.665060 0.280174
C45   C     C_R   0.440388 0.401796 0.326508 0.301974
C46   C     C_R   0.557562 0.413070 0.674752 0.295468
C47   C     C_R   0.455258 0.392585 0.276845 0.405139
C48   C     C_R   0.542351 0.412923 0.724821 0.391659
C49   C     C_R   0.525955 0.493407 0.254142 -0.013351
C50   C     C_R   0.471029 0.517465 0.745497 0.007821
Cu1   Cu    Cu3+1 0.500000 0.640660 0.500000 1.033539
Cu2   Cu    Cu3+1 0.500000 0.359340 0.500000 1.010405
H1    H     H_    0.201061 0.464045 0.030206 0.215093
H2    H     H_    0.807315 0.600577 0.966221 0.219308
H3    H     H_    0.110128 0.279666 0.509078 0.129557
H4    H     H_    0.887725 0.728165 0.498266 0.162718
H5    H     H_    0.890069 0.278642 0.493322 0.128385
H6    H     H_    0.112099 0.728078 0.498161 0.163604
N1    N     N_R   0.523032 0.499122 0.202088 -0.425756
N2    N     N_R   0.476349 0.535217 0.797240 -0.420982
N3    N     N_R   0.500000 0.852070 0.500000 -0.264542
N4    N     N_R   0.500000 0.147930 0.500000 -0.278673
O1    O     O_R   0.319640 0.618740 0.500000 -0.552227
O2    O     O_R   0.680360 0.381260 0.500000 -0.597872
O3    O     O_R   0.680360 0.618740 0.500000 -0.551983
O4    O     O_R   0.319640 0.381260 0.500000 -0.597094
O5    O     O_R   0.500020 0.618770 0.430260 -0.529581
O6    O     O_R   0.499980 0.381230 0.569740 -0.517808
O7    O     O_R   0.499980 0.618770 0.569740 -0.532536
O8    O     O_R   0.500020 0.381230 0.430260 -0.520689
O9    O     O_2   0.307120 0.526048 0.199898 -0.493429
O10   O     O_2   0.689122 0.579037 0.795935 -0.496664
O11   O     O_2   0.262233 0.497167 0.797556 -0.500384
O12   O     O_2   0.738059 0.467842 0.204572 -0.484288
O13   O     O_3   0.354295 0.317105 0.346530 -0.510561
C51   C     C_3   0.241528 0.390590 0.346870 -0.217187
H7    H     H_    0.216987 0.444227 0.312051 0.174517
H8    H     H_    0.244202 0.466426 0.377319 0.124935
H9    H     H_    0.166016 0.315846 0.352452 0.173560
O14   O     O_3   0.644116 0.327815 0.654702 -0.532439
C52   C     C_3   0.764494 0.369468 0.671420 -0.210546
H10   H     H_    0.794178 0.311693 0.704629 0.210992
H11   H     H_    0.773709 0.483690 0.678061 0.139645
H12   H     H_    0.829672 0.342768 0.643599 0.152187
O15   O     O_3   0.355928 0.144744 0.431862 -0.522912
C53   C     C_3   0.229588 0.136473 0.441860 0.180724
H13   H     H_    0.192856 0.243451 0.438561 0.168921
H14   H     H_    0.212615 0.096999 0.478635 0.086750
C54   C     C_3   0.154079 0.051046 0.404113 -0.847115
H15   H     H_    0.157962 0.938839 0.412981 0.269432
H16   H     H_    0.055535 0.082768 0.403876 0.192827
H17   H     H_    0.187183 0.068848 0.367617 0.275290
O16   O     O_3   0.633437 0.853927 0.571101 -0.544211
C55   C     C_3   0.586118 0.876719 0.616988 0.099281
H18   H     H_    0.488611 0.841991 0.616988 0.191084
H19   H     H_    0.588943 0.987496 0.628332 0.184114
C56   C     C_3   0.663880 0.795399 0.654782 -0.801457
H20   H     H_    0.756449 0.843460 0.661091 0.240632
H21   H     H_    0.618539 0.794682 0.689494 0.197942
H22   H     H_    0.676536 0.686883 0.642398 0.251491
O17   O     O_3   0.641186 0.147196 0.569110 -0.523890
C57   C     C_3   0.768276 0.140621 0.560226 0.187358
H23   H     H_    0.803168 0.248626 0.562938 0.170711
H24   H     H_    0.787988 0.097615 0.524027 0.085222
C58   C     C_3   0.842915 0.060419 0.599246 -0.849433
H25   H     H_    0.841541 0.947440 0.591073 0.270940
H26   H     H_    0.940978 0.094474 0.600240 0.193196
H27   H     H_    0.807074 0.080407 0.635241 0.270815
O18   O     O_3   0.368053 0.851509 0.428382 -0.545868
C59   C     C_3   0.414854 0.876603 0.382606 0.105480
H28   H     H_    0.512234 0.841996 0.382147 0.192294
H29   H     H_    0.412166 0.987814 0.372299 0.188790
C60   C     C_3   0.336743 0.797353 0.343988 -0.804021
H30   H     H_    0.242541 0.841948 0.339676 0.242318
H31   H     H_    0.379407 0.803643 0.308793 0.194847
H32   H     H_    0.328179 0.686845 0.354116 0.244280
O19   O     O_3   0.390653 0.292201 0.249784 -0.515950
C61   C     C_3   0.465080 0.172246 0.248196 -0.313448
H33   H     H_    0.485066 0.128616 0.284924 0.169539
H34   H     H_    0.552698 0.194057 0.230683 0.154957
H35   H     H_    0.414131 0.091588 0.226202 0.173712
O20   O     O_3   0.605112 0.317765 0.754330 -0.539193
C62   C     C_3   0.538239 0.191743 0.752387 -0.317609
H36   H     H_    0.534502 0.145107 0.715514 0.177110
H37   H     H_    0.443173 0.206531 0.764634 0.158377
H38   H     H_    0.586219 0.116460 0.777193 0.183086
O21   O     O_3   0.185084 0.447899 0.121017 -0.538747
C63   C     C_3   0.174370 0.301855 0.123509 -0.219495
H39   H     H_    0.254469 0.255248 0.144662 0.169520
H40   H     H_    0.164197 0.254178 0.086821 0.116528
H41   H     H_    0.089947 0.276444 0.142340 0.199928
O22   O     O_3   0.821148 0.591775 0.874598 -0.560923
C64   C     C_3   0.893571 0.470101 0.879642 -0.158424
H42   H     H_    0.837548 0.372696 0.876123 0.122048
H43   H     H_    0.949213 0.472334 0.914585 0.197460
H44   H     H_    0.958340 0.467394 0.850266 0.235234
O23   O     O_3   0.320905 0.673550 0.635800 -0.564180
C65   C     C_3   0.207430 0.602616 0.628407 -0.240769
H45   H     H_    0.162221 0.587991 0.662965 0.191376
H46   H     H_    0.219483 0.500382 0.610168 0.126060
H47   H     H_    0.144558 0.666421 0.604527 0.180048
O24   O     O_3   0.673627 0.671878 0.360991 -0.566258
C66   C     C_3   0.787460 0.602905 0.369656 -0.241986
H48   H     H_    0.833149 0.583090 0.335441 0.192032
H49   H     H_    0.775869 0.503619 0.389387 0.126323
H50   H     H_    0.849664 0.670814 0.392672 0.177136
O25   O     O_3   0.325471 0.707714 0.735070 -0.529154
C67   C     C_3   0.391213 0.834158 0.739645 -0.339077
H51   H     H_    0.408447 0.877597 0.703627 0.177093
H52   H     H_    0.479585 0.822066 0.761853 0.151612
H53   H     H_    0.334130 0.910781 0.758374 0.173672
O26   O     O_3   0.669300 0.687221 0.261097 -0.520159
C68   C     C_3   0.603507 0.812870 0.254867 -0.320291
H54   H     H_    0.589218 0.863194 0.290271 0.174256
H55   H     H_    0.513594 0.797062 0.233913 0.145511
H56   H     H_    0.659167 0.885361 0.234037 0.175574
O27   O     O_3   0.156545 0.614187 0.871658 -0.538932
C69   C     C_3   0.163000 0.751657 0.853669 0.092134
H57   H     H_    0.202867 0.750736 0.817802 0.207608
H58   H     H_    0.220012 0.822897 0.877852 0.082054
C70   C     C_3   0.033477 0.812035 0.847678 -0.692535
H59   H     H_    0.990684 0.813900 0.883030 0.261417
H60   H     H_    0.037762 0.920049 0.833836 0.177758
H61   H     H_    0.975728 0.748088 0.821569 0.287735
O28   O     O_3   0.853351 0.529996 0.128739 -0.517364
C71   C     C_3   0.873879 0.673347 0.138196 0.105651
H62   H     H_    0.802326 0.716443 0.161295 0.157366
H63   H     H_    0.872870 0.733680 0.103980 0.109178
C72   C     C_3   0.999234 0.693782 0.164941 -0.635181
H64   H     H_    0.073838 0.670378 0.140573 0.268139
H65   H     H_    0.009346 0.803721 0.177165 0.162579
H66   H     H_    0.008190 0.624785 0.196934 0.283795
O29   O     O_3   0.165015 0.614510 0.968505 -0.569900
C73   C     C_3   0.173719 0.751081 0.987644 0.083049
H67   H     H_    0.255086 0.763699 0.013743 0.138511
H68   H     H_    0.180135 0.828621 0.958386 0.134918
C74   C     C_3   0.058089 0.782147 0.014155 -0.770934
H69   H     H_    0.048439 0.705147 0.043389 0.273699
H70   H     H_    0.064359 0.888222 0.030260 0.177781
H71   H     H_    0.975265 0.776568 0.988632 0.248706
O30   O     O_3   0.841437 0.469573 0.031826 -0.575578
C75   C     C_3   0.861629 0.325258 0.038654 0.134588
H72   H     H_    0.774070 0.263546 0.035752 0.113415
H73   H     H_    0.909107 0.307374 0.074715 0.182406
C76   C     C_3   0.943521 0.270532 0.000244 -0.832416
H74   H     H_    0.028682 0.334217 0.999469 0.265931
H75   H     H_    0.969595 0.160867 0.008159 0.192663
H76   H     H_    0.892723 0.274287 0.964340 0.234750

loop_
_geom_bond_atom_site_label_1
_geom_bond_atom_site_label_2
_ccdc_geom_bond_type
C66   H50   S    
C71   H63   S    
Cu2   O8    S    
C44   O23   S    
C40   N2    A    
C5    C37   A    
C52   H12   S    
C27   C29   A    
C8    C26   A    
C72   H64   S    
C14   C18   A    
O25   C67   S    
Cu1   N3    S    
C34   O16   S    
C35   O17   S    
C2    O3    A    
C63   H39   S    
C56   H22   S    
C61   H34   S    
C56   H20   S    
C28   H4    S    
C62   H36   S    
C47   C49   A    
C41   O26   S    
O29   C73   S    
C58   H26   S    
O16   C55   S    
C3    C18   A    
C19   C21   A    
C51   H8    S    
C48   O20   S    
C27   H3    S    
C9    C22   A    
C76   H75   S    
C66   H48   S    
C26   H2    S    
C9    C39   A    
C33   C36   A    
C40   O11   S    
C57   C58   S    
C10   C40   A    
C34   C35   A    
Cu1   O3    S    
C39   O12   S    
C23   O5    A    
C33   O15   S    
C73   H67   S    
C69   C70   S    
C52   H11   S    
C61   H33   S    
C22   O28   S    
O27   C69   S    
O22   C64   S    
C74   H70   S    
C8    O22   S    
C64   H44   S    
C6    C38   A    
C11   C43   A    
C68   H55   S    
Cu2   O6    S    
C49   N1    S    
C60   H32   S    
C48   C50   A    
C68   H54   S    
C25   H1    S    
C69   H58   S    
C41   C43   A    
C23   O8    A    
C55   H18   S    
C42   C44   A    
C42   O25   S    
C1    O1    A    
C41   C49   A    
C70   H60   S    
C2    O2    A    
C24   O7    A    
C52   H10   S    
C46   C48   A    
C45   C47   A    
C10   C21   A    
C58   H27   S    
C38   O10   S    
C13   C19   A    
Cu1   Cu2   S    
C30   C32   A    
O17   C57   S    
C14   C20   A    
C67   H53   S    
Cu1   O1    S    
C67   H51   S    
C12   C46   A    
C56   H21   S    
C5    C7    A    
C53   H13   S    
C33   N4    A    
C76   H76   S    
C6    C8    A    
C55   C56   S    
C3    C5    A    
O15   C53   S    
C53   C54   S    
C34   N3    A    
C59   H28   S    
C2    C31   S    
C68   H56   S    
C61   H35   S    
O30   C75   S    
C55   H19   S    
O13   C51   S    
C19   O29   S    
C3    C9    A    
C64   H42   S    
C73   C74   S    
C74   H71   S    
C39   N1    A    
C1    O4    A    
Cu1   O5    S    
C51   H7    S    
C54   H17   S    
C57   H24   S    
C59   C60   S    
C37   N1    A    
C65   H46   S    
C42   C50   A    
C38   N2    A    
C4    C17   A    
C4    C6    A    
C29   H5    S    
C37   O9    S    
Cu2   O2    S    
C71   H62   S    
C72   H66   S    
C11   C45   A    
C54   H16   S    
C20   C22   A    
C4    C10   A    
O21   C63   S    
C63   H41   S    
C70   H61   S    
Cu2   O4    S    
C60   H30   S    
C58   H25   S    
C16   C25   A    
C66   H49   S    
C75   H73   S    
C27   C32   A    
O24   C66   S    
C21   O27   S    
C28   C31   A    
C67   H52   S    
O14   C52   S    
C15   C26   A    
C65   H47   S    
C63   H40   S    
C62   H38   S    
C15   C17   A    
C36   N3    A    
O23   C65   S    
C12   C24   S    
C7    C25   A    
C13   C17   A    
C45   O13   S    
C50   N2    S    
C28   C30   A    
O20   C62   S    
C29   C31   A    
Cu2   N4    S    
O19   C61   S    
C46   O14   S    
C76   H74   S    
C69   H57   S    
C70   H59   S    
C30   H6    S    
C11   C23   S    
C73   H68   S    
C35   N4    A    
C53   H14   S    
C1    C32   S    
C57   H23   S    
C59   H29   S    
C62   H37   S    
C65   H45   S    
C24   O6    A    
O28   C71   S    
C47   O19   S    
C51   H9    S    
O26   C68   S    
C71   C72   S    
C16   C18   A    
C74   H69   S    
C13   C16   A    
C36   O18   S    
C64   H43   S    
C14   C15   A    
C12   C44   A    
C43   O24   S    
Cu1   O7    S    
C7    O21   S    
C54   H15   S    
O18   C59   S    
C75   C76   S    
C75   H72   S    
C20   O30   S    
C60   H31   S    
C72   H65   S    
