data_str_m12_o4_o10_f0_bcu.sym.77
_audit_creation_date              2012-12-11T16:45:53-0500
_audit_creation_method            fapswitch 2.2
_symmetry_space_group_name_H-M    P1
_symmetry_Int_Tables_number       1
_space_group_crystal_system       triclinic
_cell_length_a                    19.813293
_cell_length_b                    17.051562
_cell_length_c                    15.294363
_cell_angle_alpha                 89.999972
_cell_angle_beta                  52.492775
_cell_angle_gamma                 90.0
_cell_volume                      4098.98992508

loop_
_atom_site_label
_atom_site_type_symbol
_atom_type_description
_atom_site_fract_x
_atom_site_fract_y
_atom_site_fract_z
_atom_type_partial_charge
C1    C     C_R   0.874148 0.694067 0.992990 -0.126152
C2    C     C_R   0.210985 0.347555 0.977159 0.153224
C3    C     C_R   0.289018 0.847554 0.022834 0.153223
C4    C     C_R   0.710982 0.847554 0.977164 0.153228
C5    C     C_R   0.807886 0.639311 0.325345 0.075844
C6    C     C_R   0.192112 0.639314 0.674654 0.075840
C7    C     C_R   0.307886 0.139311 0.325345 0.075844
C8    C     C_R   0.692114 0.139310 0.674655 0.075844
C9    C     C_R   0.697021 0.633513 0.529751 0.140370
C10   C     C_R   0.302990 0.633512 0.470250 0.140421
C11   C     C_R   0.197020 0.133513 0.529751 0.140374
C12   C     C_R   0.125850 0.694068 0.007012 -0.126153
C13   C     C_R   0.802976 0.133513 0.470249 0.140360
C14   C     C_R   0.727138 0.665054 0.427245 0.038103
C15   C     C_R   0.272862 0.665058 0.572757 0.038082
C16   C     C_R   0.227138 0.165054 0.427245 0.038102
C17   C     C_R   0.772863 0.165052 0.572754 0.038108
C18   C     C_R   0.184412 0.230984 0.427359 -0.199008
C19   C     C_R   0.815591 0.230980 0.572638 -0.199010
C20   C     C_R   0.684412 0.730984 0.427359 -0.199011
C21   C     C_R   0.315583 0.730991 0.572646 -0.199003
C22   C     C_R   0.132415 0.275604 0.523516 -0.185110
C23   C     C_R   0.374147 0.194067 0.992991 -0.126147
C24   C     C_R   0.867587 0.275601 0.476481 -0.185107
C25   C     C_R   0.632415 0.775604 0.523517 -0.185105
C26   C     C_R   0.367584 0.775610 0.476487 -0.185108
C27   C     C_R   0.122737 0.253692 0.619496 -0.012292
C28   C     C_R   0.877260 0.253692 0.380504 -0.012294
C29   C     C_R   0.622738 0.753692 0.619496 -0.012293
C30   C     C_R   0.377271 0.753692 0.380503 -0.012285
C31   C     C_R   0.643200 0.675989 0.625795 0.151392
C32   C     C_R   0.356820 0.675985 0.374204 0.151319
C33   C     C_R   0.143199 0.175989 0.625795 0.151390
C34   C     C_R   0.625853 0.194067 0.007009 -0.126148
C35   C     C_R   0.856795 0.175990 0.374205 0.151406
C36   C     C_3   0.680270 0.638758 0.677607 -0.001228
C37   C     C_3   0.319771 0.638738 0.322375 -0.001254
C38   C     C_3   0.180268 0.138758 0.677608 -0.001236
C39   C     C_3   0.819717 0.138765 0.322399 -0.001227
C40   C     C_R   0.900959 0.301244 0.206840 -0.156658
C41   C     C_R   0.099041 0.301244 0.793160 -0.156648
C42   C     C_R   0.400960 0.801244 0.206839 -0.156618
C43   C     C_R   0.599041 0.801244 0.793160 -0.156648
C44   C     C_3   0.740996 0.594885 0.570305 -0.598259
C45   C     C_R   0.891358 0.314063 0.302667 0.080247
C46   C     C_3   0.259029 0.594874 0.429682 -0.598163
C47   C     C_3   0.240994 0.094884 0.570306 -0.598256
C48   C     C_3   0.758995 0.094890 0.429700 -0.598278
C49   C     C_2   0.694083 0.236166 0.093827 -0.203226
C50   C     C_2   0.305917 0.236166 0.906173 -0.203226
C51   C     C_2   0.194072 0.736174 0.093836 -0.203236
C52   C     C_2   0.805920 0.736169 0.906172 -0.203237
C53   C     C_2   0.215212 0.807345 0.046825 -0.197661
C54   C     C_2   0.784790 0.807345 0.953168 -0.197672
C55   C     C_2   0.715202 0.307348 0.046848 -0.197670
C56   C     C_R   0.108640 0.314063 0.697333 0.080245
C57   C     C_2   0.284797 0.307348 0.953154 -0.197666
C58   C     C_R   0.830094 0.410752 0.951251 -0.154501
C59   C     C_R   0.169906 0.410752 0.048750 -0.154500
C60   C     C_R   0.330097 0.910752 0.951245 -0.154500
C61   C     C_R   0.669904 0.910751 0.048753 -0.154500
C62   C     C_R   0.858283 0.578659 0.315864 -0.141330
C63   C     C_R   0.141716 0.578662 0.684134 -0.141326
C64   C     C_R   0.358283 0.078659 0.315864 -0.141328
C65   C     C_R   0.641718 0.078658 0.684136 -0.141329
C66   C     C_R   0.840506 0.320239 0.048630 -0.113941
C67   C     C_R   0.391365 0.814061 0.302665 0.080251
C68   C     C_R   0.159494 0.320239 0.951370 -0.113942
C69   C     C_R   0.340507 0.820237 0.048626 -0.113944
C70   C     C_R   0.659494 0.820238 0.951372 -0.113941
C71   C     C_R   0.850522 0.672412 0.220981 -0.126692
C72   C     C_R   0.149477 0.672413 0.779019 -0.126687
C73   C     C_R   0.350522 0.172412 0.220981 -0.126693
C74   C     C_R   0.649479 0.172411 0.779018 -0.126693
C75   C     C_R   0.907711 0.393036 0.303698 -0.134401
C76   C     C_R   0.092289 0.393036 0.696302 -0.134400
C77   C     C_R   0.407715 0.893035 0.303696 -0.134407
C78   C     C_R   0.608641 0.814063 0.697333 0.080249
C79   C     C_R   0.592288 0.893036 0.696302 -0.134403
C80   C     C_R   0.864563 0.602277 0.897414 -0.162029
C81   C     C_R   0.135435 0.602278 0.102588 -0.162028
C82   C     C_R   0.364562 0.102276 0.897415 -0.162025
C83   C     C_R   0.635438 0.102276 0.102585 -0.162026
C84   C     C_R   0.845807 0.679541 0.932014 0.157347
C85   C     C_R   0.154190 0.679543 0.067989 0.157347
C86   C     C_R   0.345806 0.179541 0.932015 0.157339
C87   C     C_R   0.654194 0.179540 0.067985 0.157339
C88   C     C_3   0.619671 0.583807 0.777143 -0.309906
C89   C     C_R   0.789015 0.347556 0.022841 0.153225
C90   C     C_3   0.553458 0.540512 0.773815 -0.869704
C91   C     C_3   0.380395 0.583786 0.222851 -0.309869
C92   C     C_3   0.446530 0.540431 0.226285 -0.869568
C93   C     C_3   0.119668 0.083806 0.777144 -0.309905
C94   C     C_3   0.053458 0.040509 0.773811 -0.869690
C95   C     C_3   0.880307 0.083814 0.222859 -0.309917
C96   C     C_3   0.946537 0.040529 0.226160 -0.869730
H1    H     H_    0.881215 0.750177 0.019256 0.081610
H2    H     H_    0.284955 0.680651 0.307099 0.101582
H3    H     H_    0.215093 0.180680 0.692858 0.101597
H4    H     H_    0.784890 0.180692 0.307158 0.101601
H5    H     H_    0.807722 0.615227 0.526230 0.179321
H6    H     H_    0.192306 0.615219 0.473737 0.179294
H7    H     H_    0.307721 0.115226 0.526231 0.179320
H8    H     H_    0.692268 0.115233 0.473781 0.179327
H9    H     H_    0.733025 0.530107 0.576210 0.203793
H10   H     H_    0.266992 0.530096 0.423794 0.203783
H11   H     H_    0.233024 0.030107 0.576210 0.203793
H12   H     H_    0.118780 0.750178 0.980749 0.081610
H13   H     H_    0.766965 0.030112 0.423791 0.203794
H14   H     H_    0.718139 0.213946 0.136427 0.122370
H15   H     H_    0.281863 0.213948 0.863570 0.122369
H16   H     H_    0.218100 0.713969 0.136476 0.122376
H17   H     H_    0.781878 0.713958 0.863553 0.122376
H18   H     H_    0.189377 0.830373 0.006805 0.122010
H19   H     H_    0.810638 0.830378 0.993169 0.122016
H20   H     H_    0.689337 0.330390 0.006870 0.122012
H21   H     H_    0.310659 0.330389 0.993135 0.122012
H22   H     H_    0.909108 0.245721 0.168670 0.090463
H23   H     H_    0.381210 0.250177 0.019261 0.081608
H24   H     H_    0.090893 0.245721 0.831329 0.090449
H25   H     H_    0.409104 0.745721 0.168671 0.090400
H26   H     H_    0.590894 0.745721 0.831329 0.090448
H27   H     H_    0.808963 0.444213 0.911969 0.095572
H28   H     H_    0.191036 0.444213 0.088031 0.095574
H29   H     H_    0.308969 0.944211 0.911960 0.095571
H30   H     H_    0.691032 0.944211 0.088037 0.095571
H31   H     H_    0.844194 0.537150 0.377767 0.112320
H32   H     H_    0.155804 0.537155 0.622229 0.112310
H33   H     H_    0.344194 0.037149 0.377768 0.112320
H34   H     H_    0.618791 0.250177 0.980739 0.081608
H35   H     H_    0.655807 0.037148 0.622233 0.112322
H36   H     H_    0.831035 0.270781 0.098954 0.084010
H37   H     H_    0.168964 0.270780 0.901047 0.084013
H38   H     H_    0.331038 0.770775 0.098943 0.084019
H39   H     H_    0.668963 0.770778 0.901052 0.084011
H40   H     H_    0.829883 0.720914 0.197365 0.091125
H41   H     H_    0.170115 0.720915 0.802637 0.091122
H42   H     H_    0.329883 0.220914 0.197366 0.091126
H43   H     H_    0.670118 0.220914 0.802633 0.091125
H44   H     H_    0.919036 0.420911 0.357112 0.082568
H45   H     H_    0.110452 0.331748 0.517075 0.121988
H46   H     H_    0.080963 0.420912 0.642889 0.082567
H47   H     H_    0.419043 0.920912 0.357106 0.082569
H48   H     H_    0.580962 0.920911 0.642890 0.082568
H49   H     H_    0.860389 0.575051 0.836976 0.090131
H50   H     H_    0.139608 0.575052 0.163028 0.090131
H51   H     H_    0.360387 0.075049 0.836977 0.090131
H52   H     H_    0.639613 0.075049 0.163022 0.090130
H53   H     H_    0.199457 0.254338 0.351609 0.125113
H54   H     H_    0.800548 0.254333 0.648388 0.125113
H55   H     H_    0.699457 0.754337 0.351609 0.125111
H56   H     H_    0.889552 0.331744 0.482922 0.121987
H57   H     H_    0.300531 0.754350 0.648398 0.125109
H58   H     H_    0.509060 0.582907 0.777910 0.254009
H59   H     H_    0.584510 0.504660 0.697879 0.257767
H60   H     H_    0.515762 0.500783 0.846080 0.236372
H61   H     H_    0.658663 0.539820 0.782048 0.186133
H62   H     H_    0.585278 0.617795 0.854922 0.164326
H63   H     H_    0.490901 0.582789 0.222322 0.254003
H64   H     H_    0.415405 0.504534 0.302197 0.257715
H65   H     H_    0.484272 0.500733 0.153989 0.236350
H66   H     H_    0.341413 0.539835 0.217868 0.186102
H67   H     H_    0.610452 0.831747 0.517075 0.121986
H68   H     H_    0.414862 0.617786 0.145075 0.164337
H69   H     H_    0.009061 0.082902 0.777902 0.254007
H70   H     H_    0.084513 0.004655 0.697876 0.257764
H71   H     H_    0.015760 0.000781 0.846078 0.236374
H72   H     H_    0.158659 0.039821 0.782052 0.186132
H73   H     H_    0.085272 0.117795 0.854923 0.164338
H74   H     H_    0.990943 0.082929 0.222036 0.254010
H75   H     H_    0.915501 0.004685 0.302100 0.257778
H76   H     H_    0.984221 0.000793 0.153901 0.236381
H77   H     H_    0.841310 0.039821 0.217973 0.186141
H78   H     H_    0.389541 0.831756 0.482931 0.121985
H79   H     H_    0.914683 0.117800 0.145080 0.164335
H80   H     H_    0.715095 0.680681 0.692856 0.101595
N1    N     N_R   0.908660 0.628630 0.995840 -0.043552
N2    N     N_R   0.096530 0.421430 0.063580 -0.039593
N3    N     N_R   0.403470 0.921430 0.936420 -0.039592
N4    N     N_R   0.596530 0.921430 0.063580 -0.039593
N5    N     N_R   0.927500 0.575670 0.211370 -0.040636
N6    N     N_R   0.072500 0.575670 0.788630 -0.040636
N7    N     N_R   0.427500 0.075670 0.211370 -0.040636
N8    N     N_R   0.572500 0.075670 0.788630 -0.040637
N9    N     N_R   0.908660 0.365680 0.995820 -0.045024
N10   N     N_R   0.091340 0.365680 0.004180 -0.045024
N11   N     N_R   0.408660 0.865680 0.995820 -0.045024
N12   N     N_R   0.091340 0.628630 0.004160 -0.043551
N13   N     N_R   0.591340 0.865680 0.004180 -0.045025
N14   N     N_R   0.922310 0.631420 0.151980 -0.040781
N15   N     N_R   0.077690 0.631420 0.848020 -0.040782
N16   N     N_R   0.422310 0.131420 0.151980 -0.040781
N17   N     N_R   0.577690 0.131420 0.848020 -0.040781
N18   N     N_R   0.927500 0.426330 0.211360 -0.038838
N19   N     N_R   0.072500 0.426330 0.788640 -0.038838
N20   N     N_R   0.427500 0.926330 0.211360 -0.038840
N21   N     N_R   0.572500 0.926330 0.788640 -0.038839
N22   N     N_R   0.903470 0.570760 0.936440 -0.038059
N23   N     N_R   0.408660 0.128630 0.995840 -0.043551
N24   N     N_R   0.096530 0.570760 0.063560 -0.038059
N25   N     N_R   0.403470 0.070760 0.936440 -0.038058
N26   N     N_R   0.596530 0.070760 0.063560 -0.038058
N27   N     N_R   0.591340 0.128630 0.004160 -0.043551
N28   N     N_R   0.922310 0.368460 0.151950 -0.037665
N29   N     N_R   0.077690 0.368460 0.848050 -0.037665
N30   N     N_R   0.422310 0.868460 0.151950 -0.037666
N31   N     N_R   0.577690 0.868460 0.848050 -0.037665
N32   N     N_R   0.903470 0.421430 0.936420 -0.039593
Ni1   Ni    Ni4+2 1.000000 0.630300 0.000000 0.208594
Ni2   Ni    Ni4+2 0.500000 0.130300 0.000000 0.208594
Ni3   Ni    Ni4+2 0.000000 0.369700 0.000000 0.207301
Ni4   Ni    Ni4+2 0.500000 0.869700 0.000000 0.207297
Ni5   Ni    Ni4+2 0.988090 0.497570 0.863760 0.209170
Ni6   Ni    Ni4+2 0.011910 0.497570 0.136240 0.209170
Ni7   Ni    Ni4+2 0.488090 0.997570 0.863760 0.209170
Ni8   Ni    Ni4+2 0.511910 0.997570 0.136240 0.209169

loop_
_geom_bond_atom_site_label_1
_geom_bond_atom_site_label_2
_ccdc_geom_bond_type
C92   H65   S    
C83   C87   A    
C21   C26   A    
C69   H38   S    
C79   N21   A    
C49   C87   S    
C11   C47   S    
C95   C96   S    
C67   C77   A    
C38   C93   S    
C80   C84   A    
N7    N16   A    
C51   C85   S    
C81   N24   A    
C4    C70   A    
C82   H51   S    
N17   Ni2   S    
C2    C57   S    
C7    C73   A    
C44   H9    S    
C27   C33   A    
C43   C78   A    
C6    C72   A    
C46   H6    S    
C93   H73   S    
C58   H27   S    
N32   Ni5   S    
C12   C85   A    
C92   H63   S    
C56   C76   A    
C68   H37   S    
C3    C69   A    
C77   N20   A    
C40   H22   S    
C13   C35   A    
C2    C68   A    
N4    N13   A    
C23   H23   S    
C62   H31   S    
N20   Ni8   S    
N3    N11   A    
C55   H20   S    
N29   Ni3   S    
N8    N17   A    
C12   N12   A    
C23   N23   A    
N7    Ni8   S    
C19   H54   S    
N28   Ni3   S    
C90   H59   S    
N5    N14   A    
N1    Ni1   S    
C52   C84   S    
C95   H79   S    
N25   Ni7   S    
C24   H56   S    
C6    C15   S    
C64   N7    A    
C1    N1    A    
C29   C78   S    
C40   N28   A    
C93   H72   S    
C9    C31   A    
C96   H75   S    
C10   C46   S    
N6    Ni5   S    
N24   Ni6   S    
N9    Ni3   S    
C91   H66   S    
C61   H30   S    
C45   C75   A    
C88   H62   S    
C90   H58   S    
C18   H53   S    
C24   C28   A    
C69   N11   A    
C72   N15   A    
C63   H32   S    
N21   Ni7   S    
N12   N24   A    
C73   H42   S    
C3    C60   A    
C88   H61   S    
C48   H13   S    
C72   H41   S    
C74   N17   A    
C80   N22   A    
C8    C65   A    
C41   H24   S    
C63   N6    A    
C96   H74   S    
N10   Ni3   S    
N20   N30   A    
N9    N32   A    
C94   H70   S    
C83   N26   A    
C94   H69   S    
C37   H2    S    
C65   H35   S    
C52   C54   D    
C66   C89   A    
C66   H36   S    
C25   C29   A    
C40   C45   A    
C28   C45   S    
C47   H7    S    
N26   N27   A    
N2    Ni6   S    
C43   N31   A    
C14   C20   A    
N4    Ni8   S    
C28   C35   A    
C1    H1    S    
C71   H40   S    
C12   H12   S    
C37   C91   S    
C78   C79   A    
N8    Ni7   S    
N31   Ni4   S    
C82   C86   A    
C4    C61   A    
C23   C86   A    
C36   C88   S    
N12   Ni1   S    
C60   N3    A    
C6    C63   A    
C35   C39   S    
C9    C14   A    
C77   H47   S    
C41   C56   A    
C76   N19   A    
N30   Ni4   S    
C82   N25   A    
C11   C16   A    
C79   H48   S    
N19   N29   A    
C51   H16   S    
C11   C33   A    
C34   N27   A    
N18   N28   A    
C54   H19   S    
C8    C74   A    
C38   C47   S    
N27   Ni2   S    
C93   C94   S    
C32   C37   S    
C27   C56   S    
C43   H26   S    
N16   Ni2   S    
C5    C14   S    
N5    Ni6   S    
N15   Ni1   S    
C16   C18   A    
C80   H49   S    
C88   C90   S    
C36   H80   S    
C47   H11   S    
N1    N22   A    
C96   H76   S    
C42   C67   A    
C91   H68   S    
C36   C44   S    
C1    C84   A    
N6    N15   A    
C90   H60   S    
C91   C92   S    
C53   H18   S    
C57   H21   S    
C59   H28   S    
C60   H29   S    
C9    C44   S    
C21   H57   S    
C42   H25   S    
C4    C54   S    
C10   C15   A    
C2    C59   A    
C50   C57   D    
N14   Ni1   S    
C59   N2    A    
C7    C16   S    
C30   C67   S    
C38   H3    S    
N13   Ni4   S    
C94   H71   S    
N18   Ni6   S    
C13   C48   S    
C44   H5    S    
C26   C30   A    
C13   C17   A    
C64   H33   S    
C74   H43   S    
C22   C27   A    
C8    C17   S    
C20   H55   S    
C92   H64   S    
C75   H44   S    
N23   Ni2   S    
N26   Ni8   S    
C18   C22   A    
C19   C24   A    
C95   H77   S    
C58   N32   A    
C29   C31   A    
C49   C55   D    
C62   N5    A    
C30   C32   A    
C3    C53   S    
C39   H4    S    
C70   H39   S    
C25   H67   S    
C52   H17   S    
C46   H10   S    
C22   H45   S    
C50   H15   S    
C17   C19   A    
C5    C62   A    
C42   N30   A    
C39   C95   S    
C34   C87   A    
C71   N14   A    
C41   N29   A    
C55   C89   S    
C58   C89   A    
C7    C64   A    
N19   Ni5   S    
C73   N16   A    
N21   N31   A    
C50   C86   S    
C68   N10   A    
C83   H52   S    
N2    N10   A    
C75   N18   A    
C10   C32   A    
C15   C21   A    
N11   Ni4   S    
C34   H34   S    
C61   N4    A    
C5    C71   A    
C81   H50   S    
C20   C25   A    
C66   N9    A    
N3    Ni7   S    
N23   N25   A    
C26   H78   S    
C31   C36   S    
C49   H14   S    
C33   C38   S    
C51   C53   D    
C37   C46   S    
N22   Ni5   S    
C81   C85   A    
C70   N13   A    
C76   H46   S    
C39   C48   S    
C65   N8    A    
C48   H8    S    
