data_str_m2_o9_o16_f0_pcu.sym.104
_audit_creation_date              2012-12-10T19:44:24-0500
_audit_creation_method            fapswitch 2.2
_symmetry_space_group_name_H-M    P1
_symmetry_Int_Tables_number       1
_space_group_crystal_system       triclinic
_cell_length_a                    10.859163
_cell_length_b                    12.326881
_cell_length_c                    13.138571
_cell_angle_alpha                 116.356651
_cell_angle_beta                  76.995985
_cell_angle_gamma                 101.075394
_cell_volume                      1526.8994521

loop_
_atom_site_label
_atom_site_type_symbol
_atom_type_description
_atom_site_fract_x
_atom_site_fract_y
_atom_site_fract_z
_atom_type_partial_charge
C1    C     C_R   0.515786 0.855397 0.286291 0.750495
C2    C     C_R   0.675522 0.731058 0.728401 -0.147771
C3    C     C_R   0.041621 0.924135 0.533576 -0.246732
C4    C     C_R   0.131157 0.992536 0.485274 -0.089502
C5    C     C_R   0.091309 0.058127 0.435466 0.002740
C6    C     C_R   0.961574 0.060829 0.444630 -0.235010
C7    C     C_R   0.871635 0.997355 0.499403 -0.078865
C8    C     C_R   0.912700 0.927480 0.544219 -0.004550
C9    C     C_R   0.182069 0.244867 0.402087 -0.162609
C10   C     C_R   0.269257 0.303105 0.341344 -0.149509
C11   C     C_R   0.356365 0.236988 0.247806 -0.117810
C12   C     C_R   0.737399 0.000049 0.501293 0.774193
C13   C     C_R   0.354240 0.111869 0.212744 -0.086478
C14   C     C_R   0.266321 0.052956 0.272386 -0.078216
C15   C     C_R   0.181117 0.119540 0.369037 0.123405
C16   C     C_R   0.318067 0.292131 0.022939 -0.273840
C17   C     C_R   0.456638 0.229253 0.838267 -0.124270
C18   C     C_R   0.639552 0.809247 0.093269 -0.192478
C19   C     C_R   0.684253 0.725001 0.984438 -0.167281
C20   C     C_R   0.628961 0.604919 0.943974 -0.203276
C21   C     C_R   0.522806 0.567410 0.010593 0.091087
C22   C     C_R   0.473522 0.655882 0.119637 0.084452
C23   C     C_R   0.481243 0.145159 0.714614 0.808664
C24   C     C_R   0.466953 0.444398 0.975276 0.080976
C25   C     C_R   0.364960 0.413468 0.049553 0.141802
C26   C     C_R   0.311134 0.503638 0.150972 -0.234446
C27   C     C_R   0.362281 0.623645 0.183918 -0.209524
C28   C     C_R   0.508311 0.350965 0.868551 -0.268787
C29   C     C_R   0.368191 0.198630 0.921461 -0.027712
C30   C     C_R   0.537801 0.774516 0.163249 -0.097424
C31   C     C_R   0.699787 0.343245 0.322406 -0.319931
C32   C     C_R   0.323599 0.757012 0.644141 0.715292
C33   C     C_R   0.293293 0.660779 0.679053 -0.372537
C34   C     C_R   0.263709 0.996744 0.493681 0.789607
C35   C     C_R   0.360285 0.559892 0.624528 -0.277978
C36   C     C_R   0.460659 0.551408 0.534042 -0.001426
C37   C     C_R   0.493946 0.652731 0.503890 0.211742
C38   C     C_R   0.529964 0.446553 0.473629 -0.018882
C39   C     C_R   0.630257 0.444208 0.383031 0.156120
C40   C     C_R   0.661673 0.543212 0.354471 -0.288381
C41   C     C_R   0.596426 0.645716 0.414622 -0.130834
C42   C     C_R   0.504035 0.342828 0.498704 0.038571
C43   C     C_R   0.669949 0.244765 0.351612 0.066298
C44   C     C_R   0.676229 0.857186 0.772816 -0.108441
C45   C     C_R   0.751332 0.921619 0.712033 -0.078033
C46   C     C_R   0.827248 0.859668 0.606484 0.114665
C47   C     C_R   0.830713 0.733597 0.565395 -0.165618
C48   C     C_R   0.754806 0.669678 0.626154 -0.136982
Cu1   Cu    Cu3+1 0.529370 0.098270 0.475420 0.935973
Cu2   Cu    Cu3+1 0.470630 0.901730 0.524580 0.986276
H1    H     H_    0.614214 0.680917 0.773556 0.147312
H2    H     H_    0.425501 0.282762 0.202478 0.143138
H3    H     H_    0.421126 0.060626 0.139704 0.131034
H4    H     H_    0.266056 0.956006 0.244692 0.095397
H5    H     H_    0.229470 0.481181 0.205719 0.139964
H6    H     H_    0.244798 0.269961 0.084123 0.170725
H7    H     H_    0.578283 0.370910 0.805105 0.153198
H8    H     H_    0.689698 0.899898 0.125384 0.146839
H9    H     H_    0.672898 0.544034 0.860877 0.124020
H10   H     H_    0.765766 0.751830 0.932635 0.148687
H11   H     H_    0.619694 0.904976 0.855027 0.164771
H12   H     H_    0.314250 0.690705 0.261316 0.158313
H13   H     H_    0.722978 0.166378 0.304740 0.120844
H14   H     H_    0.739528 0.542617 0.286140 0.149890
H15   H     H_    0.776858 0.340593 0.252955 0.141889
H16   H     H_    0.428476 0.335725 0.564940 0.127043
H17   H     H_    0.330637 0.489793 0.655378 0.161511
H18   H     H_    0.217848 0.662244 0.748929 0.153906
H19   H     H_    0.631363 0.718254 0.389134 0.201358
H20   H     H_    0.751171 0.019452 0.747356 0.114388
H21   H     H_    0.891419 0.684783 0.485821 0.127932
H22   H     H_    0.756623 0.572392 0.593459 0.139029
H23   H     H_    0.072031 0.869706 0.566900 0.175831
H24   H     H_    0.930976 0.110309 0.405668 0.156635
H25   H     H_    0.116805 0.297667 0.475841 0.126759
H26   H     H_    0.270529 0.399871 0.367766 0.138443
N1    N     N_R   0.573890 0.246290 0.438210 -0.180229
N2    N     N_R   0.426890 0.754320 0.561170 -0.239007
O1    O     O_R   0.536940 0.972510 0.318130 -0.585307
O2    O     O_R   0.487330 0.806530 0.359650 -0.607764
O3    O     O_R   0.705160 0.082990 0.479250 -0.590225
O4    O     O_R   0.655550 0.917010 0.520760 -0.592094
O5    O     O_R   0.512670 0.193470 0.640350 -0.596079
O6    O     O_R   0.463060 0.027490 0.681870 -0.502112
O7    O     O_R   0.344450 0.082990 0.479240 -0.578335
O8    O     O_R   0.294840 0.917010 0.520750 -0.550789
C49   C     C_2   0.329431 0.072993 0.911010 0.905882
O9    O     O_2   0.220316 0.044561 0.948026 -0.625270
O10   O     O_R   0.420057 0.990816 0.870306 -0.766247
H27   H     H_    0.383716 0.910977 0.875574 0.321234
O11   O     O_3   0.256874 0.859133 0.695911 -0.541933
C50   C     C_3   0.127837 0.834182 0.738144 -0.339629
H28   H     H_    0.118066 0.826541 0.820709 0.190685
H29   H     H_    0.081164 0.751444 0.673814 0.134698
H30   H     H_    0.076529 0.912422 0.757524 0.206436

loop_
_geom_bond_atom_site_label_1
_geom_bond_atom_site_label_2
_ccdc_geom_bond_type
C49   O9    D    
C17   C29   A    
C35   C36   A    
C26   H5    S    
Cu2   O6    S    
C7    C8    A    
C28   H7    S    
C26   C27   A    
C17   C23   S    
C31   C43   A    
C36   C37   A    
C38   C42   A    
C38   C39   A    
C32   O11   S    
C18   C19   A    
C34   O8    A    
Cu1   O3    S    
C1    C30   S    
C11   H2    S    
C10   H26   S    
C18   H8    S    
C19   C20   A    
C2    C44   A    
C18   C30   A    
C9    C10   A    
C21   C22   A    
C48   H22   S    
Cu2   N2    S    
C25   C26   A    
C6    H24   S    
C13   H3    S    
C7    C12   S    
C4    C34   S    
C5    C15   S    
C23   O6    A    
C43   H13   S    
Cu1   O7    S    
C42   H16   S    
C24   C25   A    
C3    C8    A    
C10   C11   A    
O11   C50   S    
C2    C48   A    
C16   C29   A    
C45   C46   A    
C50   H30   S    
Cu1   O1    S    
C34   O7    A    
C16   H6    S    
C27   H12   S    
C47   C48   A    
C35   H17   S    
C50   H29   S    
C12   O4    A    
C20   H9    S    
C47   H21   S    
C23   O5    A    
C40   C41   A    
C14   H4    S    
C22   C27   A    
C49   O10   S    
C1    O1    A    
C3    C4    A    
C39   C40   A    
C44   C45   A    
Cu2   O4    S    
C41   H19   S    
C16   C25   A    
C31   H15   S    
C46   C47   A    
C22   C30   A    
C45   H20   S    
C17   C28   A    
C24   C28   A    
C4    C5    A    
Cu2   O2    S    
C6    C7    A    
C44   H11   S    
C43   N1    A    
C37   N2    A    
C40   H14   S    
C32   C33   A    
Cu1   O5    S    
C36   C38   A    
C9    C15   A    
C11   C13   A    
C5    C6    A    
C50   H28   S    
C33   C35   A    
Cu1   N1    S    
C12   O3    A    
C37   C41   A    
C3    H23   S    
C8    C46   S    
C29   C49   S    
C2    H1    S    
Cu2   O8    S    
C32   N2    A    
C20   C21   A    
C42   N1    A    
Cu1   Cu2   S    
C21   C24   A    
C31   C39   A    
C1    O2    A    
C14   C15   A    
C19   H10   S    
C9    H25   S    
O10   H27   S    
C13   C14   A    
C33   H18   S    
