data_str_m12_o9_o11_f0_bcu.sym.187
_audit_creation_date              2013-03-05T15:57:37-0500
_audit_creation_method            fapswitch 2.2
_symmetry_space_group_name_H-M    P1
_symmetry_Int_Tables_number       1
_space_group_crystal_system       triclinic
_cell_length_a                    15.067946
_cell_length_b                    15.066185
_cell_length_c                    14.952599
_cell_angle_alpha                 108.728203
_cell_angle_beta                  109.695544
_cell_angle_gamma                 110.192169
_cell_volume                      2606.20458813

loop_
_atom_site_label
_atom_site_type_symbol
_atom_site_description
_atom_site_fract_x
_atom_site_fract_y
_atom_site_fract_z
_atom_type_partial_charge
C1    C     C_R   0.908867 0.913049 0.713711 -0.149111
H1    H     H_    0.825305 0.855907 0.685905 0.103183
N1    N     N_R   0.941940 0.944580 0.650780 -0.038358
C2    C     C_R   0.093611 0.298554 0.496575 -0.157929
H2    H     H_    0.178116 0.351975 0.523354 0.102010
N2    N     N_R   0.056800 0.208900 0.502740 -0.042241
C3    C     C_R   0.247786 0.220732 0.812618 -0.149377
H3    H     H_    0.258327 0.200582 0.877044 0.122224
N3    N     N_R   0.204460 0.150250 0.707090 -0.043230
C4    C     C_R   0.740399 0.054858 0.464078 0.336391
N4    N     N_R   0.794270 0.003240 0.446420 -0.082947
C5    C     C_R   0.248203 0.312371 0.720603 -0.125229
H4    H     H_    0.257812 0.375350 0.698858 0.087772
N5    N     N_R   0.204920 0.207570 0.650770 -0.043523
C6    C     C_R   0.757047 0.976948 0.568796 -0.163400
H5    H     H_    0.755036 0.952290 0.628339 0.139346
N6    N     N_R   0.793810 0.945920 0.502740 -0.057258
C7    C     C_R   0.911749 0.210783 0.406556 -0.068214
H6    H     H_    0.829032 0.184504 0.349712 0.183552
N7    N     N_R   0.943620 0.152590 0.446420 -0.058304
C8    C     C_R   0.090542 0.001430 0.801309 -0.127374
H7    H     H_    0.173241 0.021100 0.850089 0.111709
N8    N     N_R   0.055110 0.000900 0.707100 -0.041119
C9    C     C_R   0.001243 0.951455 0.810917 0.055913
C10   C     C_R   0.004786 0.301785 0.437477 0.019305
C11   C     C_R   0.273425 0.322394 0.822576 0.116481
C12   C     C_R   0.717331 0.040710 0.543226 -0.111564
C13   C     C_R   0.703353 0.695137 0.286270 -0.130577
H8    H     H_    0.674131 0.638687 0.313592 0.128644
N9    N     N_R   0.795080 0.792430 0.349230 -0.048209
C14   C     C_R   0.304354 0.093794 0.504627 -0.130510
H9    H     H_    0.332574 0.148704 0.475560 0.117899
N10   N     N_R   0.206190 0.054080 0.497260 -0.043681
C15   C     C_R   0.092080 0.779689 0.528758 -0.103370
H10   H     H_    0.176965 0.801812 0.561267 0.108597
N11   N     N_R   0.056380 0.847410 0.553580 -0.042735
C16   C     C_R   0.910625 0.935172 0.187894 -0.124936
H11   H     H_    0.826345 0.886675 0.123440 0.116182
N12   N     N_R   0.944890 0.999100 0.292900 -0.042837
C17   C     C_R   0.093111 0.022607 0.282008 -0.119479
H12   H     H_    0.178014 0.051543 0.307339 0.102197
N13   N     N_R   0.058060 0.055420 0.349220 -0.045060
C18   C     C_R   0.908379 0.685133 0.443718 -0.142388
H13   H     H_    0.824510 0.619515 0.399978 0.118449
N14   N     N_R   0.943200 0.791100 0.497260 -0.042098
C19   C     C_R   0.702541 0.788242 0.196517 -0.089628
H14   H     H_    0.673892 0.816862 0.141398 0.110435
N15   N     N_R   0.795540 0.849750 0.292910 -0.047964
C20   C     C_R   0.302111 0.005605 0.598508 -0.155939
H15   H     H_    0.328617 0.983168 0.660275 0.099568
N16   N     N_R   0.205730 0.996760 0.553580 -0.038598
Ni1   Ni    Ni4+2 0.869690 0.869690 0.500000 0.219949
Ni2   Ni    Ni4+2 0.130310 0.130310 0.500000 0.208429
Ni3   Ni    Ni4+2 0.129250 0.998840 0.629170 0.214078
Ni4   Ni    Ni4+2 0.870750 0.001160 0.370830 0.264796
C21   C     C_R   0.644224 0.690699 0.190232 0.125084
C22   C     C_R   0.365743 0.064867 0.568757 0.069885
C23   C     C_R   0.001249 0.677070 0.463728 0.042754
C24   C     C_R   0.002634 0.945880 0.178937 0.046240
H16   H     H_    0.491788 0.573781 0.467952 0.137834
C25   C     C_R   0.482320 0.685874 0.409898 0.388139
C26   C     C_R   0.503136 0.791696 0.438635 -0.183177
H17   H     H_    0.482611 0.814217 0.375831 0.163666
C27   C     C_R   0.548167 0.867789 0.548072 0.072553
C28   C     C_R   0.571127 0.836668 0.628398 -0.185606
H18   H     H_    0.604217 0.894215 0.713025 0.116719
C29   C     C_R   0.552275 0.731262 0.599558 -0.188156
H19   H     H_    0.570995 0.707747 0.661641 0.122856
C30   C     C_R   0.507763 0.655785 0.490294 -0.165116
C31   C     C_R   0.484096 0.992239 0.592966 -0.245161
H20   H     H_    0.421280 0.924823 0.588205 0.136736
C32   C     C_R   0.473238 0.080734 0.594022 0.059214
C33   C     C_R   0.555822 0.168702 0.601378 0.014190
C34   C     C_R   0.642158 0.157862 0.594497 -0.167687
H21   H     H_    0.708348 0.224369 0.602132 0.158547
C35   C     C_R   0.640680 0.059380 0.572839 0.096091
C36   C     C_R   0.563118 0.977563 0.577121 0.042773
C37   C     C_R   0.571425 0.311022 0.544403 -0.128038
H22   H     H_    0.597044 0.276153 0.489912 0.195842
C38   C     C_R   0.554725 0.396721 0.544309 -0.103140
H23   H     H_    0.570080 0.428529 0.492304 0.138480
C39   C     C_R   0.514824 0.438914 0.608506 -0.102710
H24   H     H_    0.499093 0.503241 0.606330 0.098695
C40   C     C_R   0.493951 0.397131 0.674659 -0.090466
H25   H     H_    0.459705 0.427373 0.721578 0.101095
C41   C     C_R   0.515314 0.315013 0.678987 -0.141972
H26   H     H_    0.499157 0.284427 0.731534 0.115621
C42   C     C_R   0.550384 0.267992 0.610637 0.083738
H27   H     H_    0.712627 0.031024 0.943365 0.096301
C43   C     C_R   0.868508 0.139497 0.092345 -0.104860
H28   H     H_    0.905761 0.093573 0.067700 0.118404
C44   C     C_R   0.929395 0.234078 0.194279 -0.134941
H29   H     H_    0.013952 0.260584 0.246884 0.121876
C45   C     C_R   0.881553 0.294003 0.227750 0.080852
C46   C     C_R   0.772538 0.258618 0.155655 -0.096884
H30   H     H_    0.734066 0.303518 0.178824 0.160568
C47   C     C_R   0.711921 0.164018 0.053686 -0.070152
H31   H     H_    0.627705 0.136853 0.999133 0.120860
C48   C     C_R   0.759729 0.104307 0.022223 -0.108491
C49   C     C_R   0.942671 0.487707 0.349342 -0.216431
H32   H     H_    0.892170 0.489143 0.278863 0.125899
C50   C     C_R   0.006844 0.581656 0.452387 0.071200
C51   C     C_R   0.077236 0.584390 0.545068 0.012913
C52   C     C_R   0.079986 0.491927 0.533033 -0.225967
H33   H     H_    0.129775 0.492444 0.605562 0.135231
C53   C     C_R   0.012173 0.396616 0.432397 0.077025
C54   C     C_R   0.945444 0.393171 0.337582 0.040975
C55   C     C_R   0.258462 0.732125 0.710661 -0.203890
H34   H     H_    0.298834 0.706926 0.668597 0.121776
C56   C     C_R   0.321606 0.819023 0.817851 -0.106128
H35   H     H_    0.410065 0.860574 0.858114 0.115692
C57   C     C_R   0.270568 0.851622 0.873386 -0.077624
H36   H     H_    0.319619 0.918121 0.956715 0.125914
C58   C     C_R   0.156354 0.797601 0.821699 -0.130886
H37   H     H_    0.117140 0.821659 0.865482 0.129702
C59   C     C_R   0.092758 0.711674 0.713912 -0.109135
H38   H     H_    0.004322 0.670273 0.674750 0.118032
C60   C     C_R   0.143576 0.678543 0.657678 0.121580
C61   C     C_2   0.367760 0.519968 0.932430 -0.129495
C62   C     C_2   0.325160 0.421972 0.924759 -0.176452
H39   H     H_    0.344403 0.529004 0.860351 0.113905
H40   H     H_    0.343728 0.414729 0.997550 0.155392
C63   C     C_2   0.464759 0.614881 0.033737 -0.058015
C64   C     C_2   0.535490 0.602003 0.104278 -0.138880
H41   H     H_    0.486043 0.694576 0.041518 0.129605
H42   H     H_    0.517785 0.522784 0.096012 0.131442
H43   H     H_    0.440358 0.389902 0.165591 0.171100
C65   C     C_R   0.391801 0.225774 0.133260 0.390686
C66   C     C_R   0.303945 0.121686 0.088083 -0.258484
H44   H     H_    0.319715 0.058135 0.093244 0.155611
C67   C     C_R   0.195923 0.100557 0.039579 0.063481
C68   C     C_R   0.177147 0.185253 0.038411 -0.141901
H45   H     H_    0.094657 0.171408 0.004727 0.127521
C69   C     C_R   0.265017 0.289012 0.083547 -0.150674
H46   H     H_    0.249390 0.353686 0.082898 0.183589
C70   C     C_R   0.372321 0.309271 0.130371 -0.176923
C71   C     C_R   0.106146 0.970607 0.086005 -0.216727
H47   H     H_    0.182194 0.020090 0.162847 0.135105
C72   C     C_R   0.008303 0.907267 0.078444 0.047957
C73   C     C_R   0.913666 0.834256 0.974497 0.027458
C74   C     C_R   0.914134 0.845754 0.885373 -0.248919
H48   H     H_    0.841810 0.790541 0.805132 0.130069
C75   C     C_R   0.006061 0.931021 0.901215 0.042575
C76   C     C_R   0.103494 0.994616 0.004089 0.030379
C77   C     C_R   0.828710 0.680835 0.005544 -0.134069
H49   H     H_    0.909038 0.693492 0.052051 0.117193
C78   C     C_R   0.737592 0.599055 0.993018 -0.098068
H50   H     H_    0.747588 0.549000 0.029286 0.110537
C79   C     C_R   0.633599 0.582006 0.933895 -0.085142
H51   H     H_    0.563156 0.517870 0.923517 0.110188
C80   C     C_R   0.620323 0.646872 0.887437 -0.123499
H52   H     H_    0.539584 0.633933 0.842334 0.098318
C81   C     C_R   0.711036 0.727783 0.898379 -0.176776
H53   H     H_    0.699747 0.778069 0.862809 0.103314
C82   C     C_R   0.816160 0.745738 0.958087 0.120761
Br1   Br    Br    0.414595 0.581922 0.260193 -0.664702
N17   N     N_R   0.682207 0.077702 0.385276 0.223329
O1    O     O_R   0.645791 0.016607 0.282239 -0.419449
O2    O     O_R   0.676387 0.165509 0.415765 -0.433654
Br2   Br    Br    0.538274 0.255007 0.203817 -0.602546

loop_
_geom_bond_atom_site_label_1
_geom_bond_atom_site_label_2
_geom_bond_distance
_ccdc_geom_bond_type
C4    C12   1.398207 A    
N15   Ni4   1.861218 S    
N17   O1    1.301097 A    
C50   C51   1.410546 A    
C27   C36   1.479934 S    
N1    N8    1.382505 A    
C78   H50   1.082346 S    
C18   H13   1.080432 S    
C65   C66   1.397100 A    
C52   C53   1.390515 A    
C2    C10   1.360139 A    
C13   C21   1.376675 A    
C3    H3    1.078591 S    
C55   H34   1.083415 S    
C71   C72   1.394314 A    
C26   H17   1.083478 S    
C3    C11   1.386962 A    
C34   C35   1.403793 A    
H27   C48   1.082605 S    
C21   C64   1.445071 S    
N9    N15   1.386306 A    
C13   H8    1.081652 S    
C78   C79   1.394807 A    
C40   C41   1.396717 A    
C1    H1    1.080905 S    
C79   C80   1.398183 A    
N13   Ni2   1.845360 S    
C38   H23   1.082542 S    
C41   C42   1.408240 A    
C63   H41   1.085068 S    
C53   C54   1.406950 A    
C9    C75   1.462644 S    
C25   C30   1.398883 A    
C75   C76   1.414156 A    
C47   H31   1.082834 S    
C20   C22   1.365993 A    
C59   H38   1.083218 S    
C6    N6    1.323634 A    
C15   H10   1.079763 S    
C33   C34   1.398467 A    
C20   H15   1.082516 S    
C56   H35   1.082604 S    
C52   H33   1.086810 S    
C26   C27   1.400836 A    
C18   C23   1.385996 A    
C47   C48   1.397713 A    
C6    C12   1.380460 A    
N12   Ni4   1.866797 S    
C46   H30   1.081319 S    
C55   C56   1.397460 A    
C68   H45   1.083371 S    
C28   C29   1.398159 A    
C80   H52   1.082444 S    
C14   N10   1.339723 A    
C31   H20   1.084927 S    
C23   C50   1.427971 S    
C81   C82   1.405419 A    
C15   N11   1.318492 A    
C17   N13   1.323749 A    
N17   O2    1.298228 A    
C17   C24   1.386324 A    
C8    H7    1.079914 S    
C31   C36   1.364215 A    
C25   C26   1.396045 A    
C7    C10   1.374039 A    
N7    Ni4   1.861843 S    
N6    Ni1   1.880385 S    
C57   C58   1.397889 A    
C57   H36   1.081187 S    
C77   C78   1.396016 A    
C62   H40   1.080250 S    
C10   C53   1.423051 S    
C77   H49   1.083102 S    
N12   N13   1.382506 A    
C35   C36   1.412814 A    
C61   H39   1.084247 S    
N10   Ni2   1.880386 S    
C19   N15   1.335764 A    
C45   C54   1.490588 S    
C34   H21   1.082424 S    
C29   H19   1.081899 S    
C55   C60   1.405775 A    
C63   C64   1.342575 D    
H43   C70   1.081478 S    
C38   C39   1.395711 A    
C37   H22   1.079813 S    
C7    H6    1.077881 S    
C69   C70   1.398794 A    
N14   Ni1   1.880253 S    
C20   N16   1.315078 A    
C5    C11   1.383494 A    
C1    N1    1.341321 A    
C74   C75   1.407158 A    
N3    N5    1.386307 A    
C33   C42   1.490946 S    
C16   H11   1.075966 S    
C43   C44   1.398427 A    
C14   H9    1.080151 S    
C24   C72   1.470744 S    
C72   C73   1.408730 A    
C44   C45   1.409818 A    
C37   C38   1.398445 A    
N11   N14   1.382631 A    
C40   H25   1.080315 S    
C61   C62   1.338804 D    
C44   H29   1.083066 S    
C18   N14   1.335257 A    
C4    N17   1.431082 S    
C16   C24   1.396664 A    
C2    N2    1.318287 A    
C17   H12   1.073547 S    
C71   C76   1.376312 A    
C5    N5    1.334203 A    
C28   H18   1.083200 S    
C39   C40   1.395184 A    
C8    N8    1.323771 A    
C51   C60   1.483045 S    
N2    Ni2   1.880254 S    
C12   C35   1.448499 S    
C25   Br1   1.900183 S    
C43   C48   1.397055 A    
N4    Ni4   1.867256 S    
C65   Br2   1.907672 S    
N8    Ni3   1.866797 S    
C64   H42   1.083589 S    
C49   C50   1.401054 A    
C37   C42   1.408450 A    
C3    N3    1.339679 A    
N9    Ni1   1.845075 S    
C19   H14   1.080934 S    
N4    N6    1.386306 A    
C49   C54   1.395174 A    
C41   H26   1.083020 S    
C11   C62   1.452859 S    
C32   C33   1.411645 A    
C58   C59   1.398043 A    
N1    Ni1   1.845359 S    
C46   C47   1.399105 A    
C58   H37   1.079489 S    
C69   H46   1.080683 S    
C61   C63   1.466121 S    
N10   N16   1.386306 A    
N2    N7    1.382629 A    
C71   H47   1.077850 S    
N16   Ni3   1.867256 S    
C27   C28   1.405587 A    
C14   C22   1.383431 A    
C65   C70   1.397053 A    
C66   H44   1.082283 S    
C16   N12   1.341141 A    
C79   H51   1.081242 S    
C43   H28   1.083249 S    
H16   C30   1.082314 S    
C73   C74   1.399891 A    
C6    H5    1.074440 S    
C13   N9    1.335443 A    
C49   H32   1.084233 S    
C59   C60   1.403859 A    
C7    N7    1.337127 A    
C80   C81   1.397150 A    
C22   C32   1.444170 S    
C45   C46   1.406203 A    
C56   C57   1.396945 A    
N11   Ni3   1.861843 S    
C4    N4    1.334844 A    
C73   C82   1.480409 S    
C77   C82   1.406507 A    
C2    H2    1.082299 S    
N5    Ni2   1.845073 S    
C5    H4    1.077968 S    
C1    C9    1.387489 A    
C68   C69   1.394140 A    
C39   H24   1.081732 S    
C8    C9    1.377843 A    
C19   C21   1.380170 A    
C51   C52   1.363308 A    
C15   C23   1.373256 A    
C31   C32   1.394078 A    
N3    Ni3   1.861218 S    
C29   C30   1.397866 A    
C81   H53   1.082823 S    
C74   H48   1.082166 S    
C67   C76   1.480612 S    
C67   C68   1.403154 A    
C66   C67   1.405339 A    
