data_str_m9_o25_o25_f0_sra.sym.6
_audit_creation_date              2012-12-11T16:12:52-0500
_audit_creation_method            fapswitch 2.2
_symmetry_space_group_name_H-M    P1
_symmetry_Int_Tables_number       1
_space_group_crystal_system       triclinic
_cell_length_a                    7.030428
_cell_length_b                    21.126099
_cell_length_c                    23.685748
_cell_angle_alpha                 89.997527
_cell_angle_beta                  90.002458
_cell_angle_gamma                 89.975144
_cell_volume                      3517.93765195

loop_
_atom_site_label
_atom_site_type_symbol
_atom_type_description
_atom_site_fract_x
_atom_site_fract_y
_atom_site_fract_z
_atom_type_partial_charge
O1    O     O_R   0.615270 0.806540 0.192260 -0.532564
O2    O     O_R   0.384730 0.193460 0.807740 -0.532170
O3    O     O_R   0.384730 0.193460 0.692260 -0.532404
O4    O     O_R   0.615270 0.806540 0.307740 -0.532623
O5    O     O_R   0.115270 0.693460 0.307740 -0.532656
O6    O     O_R   0.884730 0.306540 0.692260 -0.532644
O7    O     O_R   0.884730 0.306540 0.807740 -0.530959
O8    O     O_R   0.115270 0.693460 0.192260 -0.532601
O9    O     O_R   0.285500 0.813970 0.307340 -0.537491
O10   O     O_R   0.714500 0.186030 0.692660 -0.537442
O11   O     O_R   0.714500 0.186030 0.807340 -0.537265
O12   O     O_R   0.285500 0.813970 0.192660 -0.537440
O13   O     O_R   0.785500 0.686030 0.192660 -0.537315
O14   O     O_R   0.214500 0.313970 0.807340 -0.539627
O15   O     O_R   0.214500 0.313970 0.692660 -0.537901
O16   O     O_R   0.785500 0.686030 0.307340 -0.537528
C1    C     C_R   0.453302 0.829021 0.326604 0.719729
C2    C     C_R   0.546697 0.170979 0.673396 0.720110
C3    C     C_R   0.546717 0.171008 0.826625 0.721235
C4    C     C_R   0.453302 0.829028 0.173401 0.720188
C5    C     C_R   0.953337 0.670983 0.173400 0.719665
C6    C     C_R   0.046674 0.329014 0.826600 0.724643
C7    C     C_R   0.046657 0.329023 0.673402 0.717319
C8    C     C_R   0.953343 0.670976 0.326597 0.719630
O17   O     O_3   0.448760 0.710460 0.250000 -0.368668
O18   O     O_3   0.551240 0.289540 0.750000 -0.368853
O19   O     O_3   0.948760 0.789540 0.250000 -0.368608
O20   O     O_3   0.051240 0.210460 0.750000 -0.368273
V1    V     V_3+5 0.173900 0.757330 0.250000 1.463866
V2    V     V_3+5 0.826100 0.242670 0.750000 1.464782
V3    V     V_3+5 0.673900 0.742670 0.250000 1.463912
V4    V     V_3+5 0.326100 0.257330 0.750000 1.460514
C9    C     C_3   0.115428 0.526525 0.538506 -0.028714
C10   C     C_3   0.884569 0.473467 0.461487 -0.028158
C11   C     C_3   0.886017 0.474274 0.037088 -0.031298
C12   C     C_3   0.119317 0.528462 0.960973 -0.118087
C13   C     C_3   0.615836 0.973677 0.961627 -0.027985
C14   C     C_3   0.384655 0.026652 0.038632 -0.028084
C15   C     C_3   0.384482 0.026530 0.461493 -0.028079
C16   C     C_3   0.615520 0.973473 0.538504 -0.028115
C17   C     C_3   0.920991 0.553609 0.519938 -0.009869
C18   C     C_3   0.079006 0.446383 0.480056 -0.010318
C19   C     C_3   0.080686 0.447452 0.018625 0.007593
C20   C     C_3   0.924097 0.555161 0.979640 0.000468
C21   C     C_3   0.421394 0.946592 0.980113 -0.010182
C22   C     C_3   0.579103 0.053745 0.020144 -0.010608
C23   C     C_3   0.578914 0.053595 0.480026 -0.010389
C24   C     C_3   0.421088 0.946408 0.519971 -0.010181
C25   C     C_1   0.957472 0.625036 0.372063 -0.146326
C26   C     C_1   0.042528 0.374962 0.627934 -0.146249
C27   C     C_1   0.042725 0.375260 0.871806 -0.160649
C28   C     C_1   0.957497 0.625165 0.127842 -0.144701
C29   C     C_1   0.457398 0.874989 0.127949 -0.146053
C30   C     C_1   0.542732 0.125157 0.872163 -0.145550
C31   C     C_1   0.542630 0.125049 0.627919 -0.146241
C32   C     C_1   0.457371 0.874952 0.372080 -0.146253
C33   C     C_3   0.168100 0.513540 0.475979 -0.030960
C34   C     C_3   0.831897 0.486452 0.524014 -0.030867
C35   C     C_3   0.835035 0.488059 0.974616 -0.014932
C36   C     C_3   0.169723 0.514531 0.023657 -0.011992
C37   C     C_3   0.668292 0.986571 0.024184 -0.031123
C38   C     C_3   0.332199 0.013758 0.976077 -0.031098
C39   C     C_3   0.331922 0.013581 0.524034 -0.031009
C40   C     C_3   0.668080 0.986421 0.475964 -0.031035
C41   C     C_3   0.973563 0.540487 0.457396 -0.025661
C42   C     C_3   0.026433 0.459505 0.542597 -0.025862
C43   C     C_3   0.029959 0.461297 0.956017 -0.030059
C44   C     C_3   0.974875 0.541180 0.042098 -0.020000
C45   C     C_3   0.473743 0.959616 0.042683 -0.025786
C46   C     C_3   0.526740 0.040709 0.957572 -0.025805
C47   C     C_3   0.526453 0.040509 0.542582 -0.025798
C48   C     C_3   0.473549 0.959493 0.457416 -0.025811
C49   C     C_1   0.959549 0.586822 0.410354 0.075975
C50   C     C_1   0.040450 0.413172 0.589641 0.076031
C51   C     C_1   0.041690 0.413996 0.909681 -0.002732
C52   C     C_1   0.959924 0.587136 0.089410 0.077301
C53   C     C_1   0.459580 0.913231 0.089680 0.076267
C54   C     C_1   0.540735 0.087014 0.910510 0.076223
C55   C     C_1   0.540520 0.086845 0.589621 0.076081
C56   C     C_1   0.459481 0.913157 0.410377 0.076059
C57   C     C_3   0.841877 0.618016 0.538733 -0.330609
C58   C     C_3   0.785251 0.619207 0.601165 -0.267997
C59   C     C_3   0.728473 0.685800 0.619547 -0.714700
H1    H     H_    0.851357 0.718495 0.615690 0.230429
H2    H     H_    0.609550 0.703557 0.593051 0.249335
H3    H     H_    0.681500 0.684987 0.664299 0.220059
H4    H     H_    0.662343 0.587450 0.608042 0.246847
H5    H     H_    0.904800 0.602767 0.628031 0.210535
H6    H     H_    0.952970 0.654372 0.530843 0.187458
H7    H     H_    0.716988 0.630486 0.512443 0.231399
C60   C     C_3   0.158120 0.381975 0.461262 -0.328402
C61   C     C_3   0.214760 0.380783 0.398831 -0.269855
C62   C     C_3   0.271560 0.314190 0.380454 -0.719265
H8    H     H_    0.390476 0.296438 0.406954 0.250294
H9    H     H_    0.148682 0.281493 0.384307 0.231077
H10   H     H_    0.318553 0.315003 0.335704 0.216860
H11   H     H_    0.095212 0.397218 0.371963 0.209267
H12   H     H_    0.337662 0.412543 0.391955 0.246515
H13   H     H_    0.283003 0.369505 0.487555 0.231302
H14   H     H_    0.047024 0.345620 0.469150 0.187282
C63   C     C_3   0.160078 0.382865 0.036912 -0.326471
C64   C     C_3   0.215136 0.380725 0.099451 -0.278137
C65   C     C_3   0.271073 0.313829 0.117184 -0.717797
H15   H     H_    0.148155 0.281271 0.112639 0.231510
H16   H     H_    0.390646 0.296397 0.090775 0.250240
H17   H     H_    0.316807 0.313945 0.162057 0.216755
H18   H     H_    0.338218 0.412221 0.106950 0.245395
H19   H     H_    0.095071 0.396880 0.126247 0.210265
H20   H     H_    0.049644 0.346492 0.028305 0.189878
H21   H     H_    0.285907 0.370990 0.010788 0.233014
C66   C     C_3   0.843205 0.619638 0.961642 -0.342348
C67   C     C_3   0.788803 0.622034 0.899051 -0.266209
C68   C     C_3   0.733281 0.689008 0.881455 -0.692638
H22   H     H_    0.614141 0.706517 0.907988 0.247825
H23   H     H_    0.856495 0.721421 0.885950 0.225902
H24   H     H_    0.687190 0.689028 0.836615 0.222634
H25   H     H_    0.909064 0.605911 0.872320 0.205637
H26   H     H_    0.665583 0.590658 0.891330 0.264974
H27   H     H_    0.716701 0.630928 0.987693 0.234184
H28   H     H_    0.952538 0.656277 0.970579 0.188593
C69   C     C_3   0.342480 0.882265 0.961133 -0.328274
C70   C     C_3   0.286045 0.881336 0.898681 -0.273504
C71   C     C_3   0.230492 0.814764 0.880006 -0.712495
H29   H     H_    0.354263 0.782350 0.883408 0.232337
H30   H     H_    0.112765 0.796548 0.906680 0.248900
H31   H     H_    0.182363 0.815795 0.835364 0.217517
H32   H     H_    0.162565 0.912919 0.891934 0.246535
H33   H     H_    0.405302 0.898130 0.871896 0.209813
H34   H     H_    0.453621 0.845874 0.968955 0.187673
H35   H     H_    0.217511 0.869726 0.987350 0.231332
C72   C     C_3   0.658044 0.118093 0.039087 -0.327925
C73   C     C_3   0.714345 0.119107 0.101552 -0.270172
C74   C     C_3   0.770103 0.185690 0.120173 -0.719263
H36   H     H_    0.888703 0.203725 0.093728 0.250187
H37   H     H_    0.646702 0.218225 0.116446 0.230891
H38   H     H_    0.817147 0.184738 0.164918 0.216766
H39   H     H_    0.594924 0.102412 0.128321 0.209401
H40   H     H_    0.837659 0.087471 0.108378 0.246303
H41   H     H_    0.783069 0.130599 0.012883 0.231543
H42   H     H_    0.546939 0.154481 0.031210 0.187596
C75   C     C_3   0.657924 0.117974 0.461171 -0.328411
C76   C     C_3   0.714537 0.119086 0.398736 -0.269941
C77   C     C_3   0.771172 0.185651 0.380277 -0.719315
H43   H     H_    0.648215 0.218355 0.384093 0.231027
H44   H     H_    0.890056 0.203442 0.406750 0.250390
H45   H     H_    0.818148 0.184773 0.335526 0.216736
H46   H     H_    0.837516 0.087316 0.391892 0.246403
H47   H     H_    0.595020 0.102616 0.371890 0.209266
H48   H     H_    0.546780 0.154352 0.469029 0.187269
H49   H     H_    0.782802 0.130456 0.487446 0.231331
C78   C     C_3   0.342078 0.882028 0.538826 -0.328583
C79   C     C_3   0.285468 0.880915 0.601261 -0.271062
C80   C     C_3   0.228832 0.814349 0.619719 -0.716435
H50   H     H_    0.109945 0.796560 0.593246 0.249979
H51   H     H_    0.351787 0.781645 0.615901 0.231233
H52   H     H_    0.181859 0.815227 0.664470 0.217580
H53   H     H_    0.404988 0.897384 0.628107 0.209469
H54   H     H_    0.162491 0.912685 0.608106 0.246437
H55   H     H_    0.217199 0.869546 0.512551 0.231327
H56   H     H_    0.453222 0.845650 0.530967 0.187236
C81   C     C_2   0.237556 0.557867 0.582202 0.790316
O21   O     O_2   0.306370 0.609842 0.572522 -0.564868
O22   O     O_R   0.264034 0.529134 0.634686 -0.668733
H57   H     H_    0.345189 0.555632 0.661004 0.299056
C82   C     C_2   0.762446 0.442125 0.417789 0.789739
O23   O     O_2   0.693633 0.390149 0.427469 -0.565333
O24   O     O_R   0.735972 0.470858 0.365305 -0.669518
H58   H     H_    0.654825 0.444359 0.338984 0.293520
C83   C     C_2   0.763092 0.442325 0.080232 0.790040
O25   O     O_2   0.694476 0.390481 0.069887 -0.564723
O26   O     O_R   0.735565 0.470369 0.132961 -0.669404
H59   H     H_    0.654240 0.443467 0.158904 0.292556
C84   C     C_2   0.244887 0.564214 0.920254 0.831369
O27   O     O_2   0.316752 0.613892 0.935526 -0.540032
O28   O     O_R   0.273727 0.544205 0.864728 -0.651975
H60   H     H_    0.195836 0.505923 0.854073 0.262969
C85   C     C_2   0.738169 0.942360 0.917945 0.789702
O29   O     O_2   0.807048 0.890369 0.927609 -0.565452
O30   O     O_R   0.764745 0.971135 0.865487 -0.669546
H61   H     H_    0.845964 0.944643 0.839164 0.293500
C86   C     C_2   0.262316 0.057950 0.082322 0.789821
O31   O     O_2   0.193395 0.109937 0.072668 -0.565208
O32   O     O_R   0.235771 0.029161 0.134775 -0.669550
H62   H     H_    0.154529 0.055639 0.161103 0.293404
C87   C     C_2   0.262239 0.057871 0.417802 0.789745
O33   O     O_2   0.193393 0.109864 0.427468 -0.565404
O34   O     O_R   0.235674 0.029113 0.365338 -0.669491
H63   H     H_    0.154466 0.055615 0.339016 0.293425
C88   C     C_2   0.737764 0.942131 0.582195 0.789856
O35   O     O_2   0.806610 0.890138 0.572529 -0.565389
O36   O     O_R   0.764329 0.970889 0.634660 -0.669464
H64   H     H_    0.845538 0.944387 0.660981 0.293554
C89   C     C_2   0.656447 0.465661 0.555055 0.793446
O37   O     O_2   0.524901 0.441536 0.529418 -0.566080
O38   O     O_R   0.651438 0.469296 0.613922 -0.674864
H65   H     H_    0.535402 0.447794 0.630519 0.313400
C90   C     C_2   0.343549 0.534330 0.444937 0.793605
O39   O     O_2   0.475097 0.558455 0.470573 -0.566051
O40   O     O_R   0.348556 0.530694 0.386070 -0.675576
H66   H     H_    0.464594 0.552195 0.369473 0.313018
C91   C     C_2   0.343969 0.534027 0.056090 0.793571
O41   O     O_2   0.479567 0.557160 0.031614 -0.563071
O42   O     O_R   0.343685 0.530028 0.114968 -0.677374
H67   H     H_    0.459771 0.550468 0.132570 0.313132
C92   C     C_2   0.658967 0.468260 0.943285 0.796059
O43   O     O_2   0.527161 0.443806 0.968567 -0.567891
O44   O     O_R   0.653079 0.473505 0.884521 -0.669719
H68   H     H_    0.534130 0.454024 0.867739 0.306550
C93   C     C_2   0.156702 0.034585 0.945040 0.793869
O45   O     O_2   0.024962 0.058599 0.970699 -0.565801
O46   O     O_R   0.151820 0.031093 0.886165 -0.675579
H69   H     H_    0.035681 0.052589 0.869588 0.313135
C94   C     C_2   0.843745 0.965741 0.055237 0.793734
O47   O     O_2   0.975485 0.941701 0.029596 -0.565859
O48   O     O_R   0.848576 0.969260 0.114111 -0.675598
H70   H     H_    0.964679 0.947759 0.130706 0.313078
C95   C     C_2   0.843559 0.965606 0.444923 0.793579
O49   O     O_2   0.975251 0.941547 0.470573 -0.565985
O50   O     O_R   0.848474 0.969163 0.386051 -0.675566
H71   H     H_    0.964616 0.947681 0.369466 0.313071
C96   C     C_2   0.156443 0.034396 0.555074 0.793637
O51   O     O_2   0.024752 0.058456 0.529425 -0.565980
O52   O     O_R   0.151526 0.030838 0.613946 -0.675532
H72   H     H_    0.035385 0.052321 0.630531 0.313086

loop_
_geom_bond_atom_site_label_1
_geom_bond_atom_site_label_2
_ccdc_geom_bond_type
O17   V3    S    
C77   H45   S    
O42   H67   S    
O18   V4    S    
C62   H8    S    
C16   C47   S    
O12   V1    S    
O19   V1    S    
C91   O42   S    
C83   O25   D    
C39   C96   S    
C45   C53   S    
C66   C67   S    
C10   C18   S    
C69   H35   S    
O48   H70   S    
C47   C55   S    
C81   O21   D    
C12   C43   S    
C75   H48   S    
C71   H29   S    
C94   O47   D    
O16   V3    S    
C9    C81   S    
O11   C3    A    
C82   O23   D    
C14   C86   S    
C40   C95   S    
O8    V1    S    
C66   H27   S    
C27   C51   T    
C17   C34   S    
C26   C50   T    
C67   H25   S    
C87   O34   S    
C46   C54   S    
O6    C7    A    
C20   C35   S    
C73   H40   S    
C77   H43   S    
C42   C50   S    
C21   C38   S    
O1    V3    S    
C48   C56   S    
C41   C49   S    
C38   C46   S    
O3    C2    A    
O2    V4    S    
C18   C60   S    
C91   O41   D    
C70   H32   S    
C88   O36   S    
C16   C24   S    
C72   H42   S    
C71   H30   S    
C35   C43   S    
C34   C42   S    
C16   C88   S    
O22   H57   S    
O11   V2    S    
C73   C74   S    
C89   O38   S    
C61   H11   S    
C74   H38   S    
C15   C48   S    
C64   H19   S    
C60   H14   S    
C80   H51   S    
C10   C82   S    
C11   C19   S    
C22   C72   S    
C60   C61   S    
C12   C20   S    
O9    V1    S    
C68   H24   S    
C57   H6    S    
C19   C43   S    
C35   C92   S    
O15   C7    A    
C14   C45   S    
O40   H66   S    
O16   C8    A    
O7    V2    S    
C84   O27   D    
C13   C46   S    
C74   H37   S    
C83   O26   S    
C82   O24   S    
O3    V4    S    
C37   C94   S    
C24   C48   S    
C18   C33   S    
C67   C68   S    
C81   O22   S    
C75   H49   S    
C57   C58   S    
O5    V1    S    
C70   C71   S    
C84   O28   S    
O17   V1    S    
C11   C35   S    
C79   H54   S    
C14   C22   S    
C22   C37   S    
O19   V3    S    
C64   C65   S    
C63   C64   S    
C76   H47   S    
O20   V4    S    
C18   C42   S    
O52   H72   S    
C86   O32   S    
C33   C41   S    
O50   H71   S    
C24   C39   S    
C17   C41   S    
O38   H65   S    
C21   C69   S    
C95   O49   D    
C86   O31   D    
C21   C45   S    
C88   O35   D    
O44   H68   S    
C14   C38   S    
C66   H28   S    
C78   H55   S    
C29   C53   T    
O32   H62   S    
C19   C63   S    
O46   H69   S    
C96   O51   D    
O8    C5    A    
C31   C55   T    
O10   V2    S    
C13   C37   S    
C59   H1    S    
C78   C79   S    
C17   C57   S    
C9    C42   S    
O12   C4    A    
C93   O45   D    
O13   C5    A    
C64   H18   S    
C65   H16   S    
C44   C52   S    
C80   H52   S    
C1    C32   S    
C23   C47   S    
C69   C70   S    
C19   C36   S    
C85   O29   D    
C57   H7    S    
C2    C31   S    
C3    C30   S    
O9    C1    A    
C59   H2    S    
C39   C47   S    
C58   C59   S    
C62   H10   S    
C10   C41   S    
C74   H36   S    
C11   C83   S    
C25   C49   T    
C20   C44   S    
C43   C51   S    
O4    C1    A    
C13   C21   S    
C72   C73   S    
O24   H58   S    
C15   C39   S    
C15   C23   S    
C68   H22   S    
C37   C45   S    
O36   H64   S    
C77   H44   S    
C92   O43   D    
C79   H53   S    
O1    C4    A    
C9    C33   S    
O6    V2    S    
O2    C3    A    
C76   H46   S    
O13   V3    S    
C69   H34   S    
C4    C29   S    
C7    C26   S    
O15   V4    S    
C71   H31   S    
C23   C40   S    
O18   V2    S    
C95   O50   S    
O7    C6    A    
C13   C85   S    
C23   C75   S    
C34   C89   S    
C32   C56   T    
C28   C52   T    
C9    C17   S    
C78   H56   S    
O14   C6    A    
C90   O40   S    
C30   C54   T    
C63   H21   S    
C94   O48   S    
O34   H63   S    
C96   O52   S    
O28   H60   S    
C75   C76   S    
C67   H26   S    
C87   O33   D    
O5    C8    A    
C11   C44   S    
O10   C2    A    
C58   H5    S    
C16   C40   S    
C8    C25   S    
O20   V2    S    
C61   C62   S    
C93   O46   S    
C38   C93   S    
C85   O30   S    
C65   H17   S    
C40   C48   S    
C70   H33   S    
C90   O39   D    
O26   H59   S    
C22   C46   S    
O4    V3    S    
C72   H41   S    
C61   H12   S    
C33   C90   S    
O30   H61   S    
C15   C87   S    
C20   C66   S    
C36   C91   S    
C12   C84   S    
C59   H3    S    
O14   V4    S    
C79   C80   S    
C36   C44   S    
C62   H9    S    
C89   O37   D    
C24   C78   S    
C65   H15   S    
C10   C34   S    
C12   C36   S    
C76   C77   S    
C73   H39   S    
C60   H13   S    
C80   H50   S    
C92   O44   S    
C63   H20   S    
C5    C28   S    
C58   H4    S    
C6    C27   S    
C68   H23   S    
