data_str_m3_o10_o18_f0_pcu.sym.85
_audit_creation_date              2012-12-10T16:52:41-0500
_audit_creation_method            fapswitch 2.2
_symmetry_space_group_name_H-M    P1
_symmetry_Int_Tables_number       1
_space_group_crystal_system       triclinic
_cell_length_a                    7.874632
_cell_length_b                    8.559653
_cell_length_c                    13.565983
_cell_angle_alpha                 94.030604
_cell_angle_beta                  92.050533
_cell_angle_gamma                 94.410731
_cell_volume                      908.659907985

loop_
_atom_site_label
_atom_site_type_symbol
_atom_type_description
_atom_site_fract_x
_atom_site_fract_y
_atom_site_fract_z
_atom_type_partial_charge
C1    C     C_R   0.045264 0.794665 0.497880 0.940725
C2    C     C_R   0.937779 0.485707 0.316646 0.888101
C3    C     C_R   0.100172 0.557709 0.788852 -0.166135
C4    C     C_R   0.909894 0.473426 0.208604 -0.162453
C5    C     C_R   0.097043 0.734559 0.936504 -0.291676
C6    C     C_R   0.945103 0.348540 0.045581 -0.293527
C7    C     C_R   0.028710 0.682790 0.841798 0.562398
C8    C     C_R   0.002097 0.376780 0.144868 0.551427
C9    C     C_R   0.241229 0.493117 0.829297 -0.368581
C10   C     C_R   0.775295 0.550918 0.170513 -0.371002
C11   C     C_R   0.329764 0.565313 0.913650 0.084002
C12   C     C_R   0.954850 0.205393 0.502625 0.946022
C13   C     C_R   0.718545 0.524354 0.071309 0.094142
C14   C     C_R   0.251302 0.682492 0.970305 0.096763
C15   C     C_R   0.803881 0.418736 0.009351 0.099562
C16   C     C_R   0.494375 0.524714 0.942331 0.078534
C17   C     C_R   0.568732 0.586815 0.035039 0.083163
C18   C     C_3   0.281178 0.321371 0.136278 -0.360578
C19   C     C_3   0.955689 0.911815 0.782240 -0.385999
C20   C     C_3   0.435793 0.267512 0.355699 -0.150508
C21   C     C_3   0.583621 0.716094 0.654716 -0.074635
C22   C     C_R   0.488087 0.705440 0.089335 -0.249012
C23   C     C_R   0.588720 0.427056 0.880262 -0.210165
C24   C     C_R   0.331693 0.751963 0.057301 -0.210318
C25   C     C_R   0.742347 0.377167 0.913025 -0.188840
C26   C     C_2   0.068686 0.958611 0.496762 -0.382614
C27   C     C_2   0.931624 0.041556 0.504626 -0.392947
C28   C     C_R   0.063241 0.518175 0.683008 0.870337
H1    H     H_    0.274244 0.843958 0.100409 0.157597
H2    H     H_    0.802676 0.989814 0.512371 0.196599
H3    H     H_    0.339780 0.438544 0.164731 0.191776
H4    H     H_    0.269286 0.314629 0.054330 0.170991
H5    H     H_    0.369308 0.231646 0.154305 0.176203
H6    H     H_    0.065668 0.912537 0.732832 0.167889
H7    H     H_    0.989920 0.985327 0.851966 0.168715
H8    H     H_    0.852166 0.968556 0.744485 0.179996
H9    H     H_    0.492929 0.352923 0.305836 0.139059
H10   H     H_    0.294991 0.256159 0.347202 0.222309
H11   H     H_    0.481743 0.151064 0.334398 0.138065
H12   H     H_    0.809501 0.299907 0.863995 0.135890
H13   H     H_    0.579491 0.613658 0.700982 0.157879
H14   H     H_    0.517122 0.809848 0.694306 0.130223
H15   H     H_    0.715724 0.762460 0.645440 0.209898
H16   H     H_    0.707856 0.622242 0.222113 0.176955
H17   H     H_    0.285911 0.391798 0.789350 0.167721
H18   H     H_    0.037136 0.824595 0.979894 0.157867
H19   H     H_    0.003572 0.262669 0.998051 0.142370
H20   H     H_    0.544864 0.767283 0.155870 0.151999
H21   H     H_    0.548444 0.388739 0.805118 0.144788
H22   H     H_    0.197669 0.010378 0.489166 0.202731
N1    N     N_2   0.440860 0.456490 0.474790 0.193913
N2    N     N_2   0.559140 0.543510 0.525210 0.188017
O1    O     O_R   0.891570 0.738930 0.506190 -0.623615
O2    O     O_3   0.896307 0.756600 0.800409 -0.625636
O3    O     O_3   0.489434 0.311271 0.453570 -0.529383
O4    O     O_3   0.501604 0.678533 0.562063 -0.547634
O5    O     O_R   0.108430 0.261070 0.493810 -0.611686
O6    O     O_R   0.174650 0.711050 0.490030 -0.576954
O7    O     O_R   0.825350 0.288950 0.509970 -0.578904
O8    O     O_R   0.909850 0.521900 0.644940 -0.612938
O9    O     O_R   0.090150 0.478100 0.355060 -0.606387
O10   O     O_R   0.192930 0.494020 0.628780 -0.593506
O11   O     O_R   0.807070 0.505980 0.371220 -0.614732
O12   O     O_3   0.125997 0.288767 0.182771 -0.631466
Zn1   Zn    Zn3+2 0.810990 0.518620 0.510790 1.016403
Zn2   Zn    Zn3+2 0.189010 0.481380 0.489210 1.030800

loop_
_geom_bond_atom_site_label_1
_geom_bond_atom_site_label_2
_ccdc_geom_bond_type
C20   H10   S    
C21   O4    S    
C2    C4    S    
O11   Zn1   S    
C9    H17   S    
C3    C9    A    
O1    Zn1   S    
C5    H18   S    
C3    C7    A    
C17   C22   A    
C2    O9    A    
C13   C17   A    
O5    Zn2   S    
C4    C8    A    
C13   C15   A    
C19   H6    S    
C5    C14   A    
C10   C13   A    
C19   H7    S    
C1    O6    A    
O7    Zn1   S    
C27   H2    S    
C20   H9    S    
C9    C11   A    
C18   O12   S    
C26   C27   D    
C28   O8    A    
C8    O12   S    
C20   O3    S    
C21   H13   S    
C12   O5    A    
C19   O2    S    
C3    C28   S    
C18   H5    S    
O8    Zn1   S    
C16   C23   A    
N1    O3    S    
C19   H8    S    
C26   H22   S    
C25   H12   S    
C1    C26   S    
C11   C14   A    
C22   C24   A    
C23   H21   S    
C15   C25   A    
C6    H19   S    
O10   Zn2   S    
C12   C27   S    
C10   H16   S    
C21   H14   S    
N2    O4    S    
C22   H20   S    
C23   C25   A    
C18   H4    S    
C2    O11   A    
C11   C16   A    
C14   C24   A    
C5    C7    A    
C20   H11   S    
C1    O1    A    
C24   H1    S    
C6    C8    A    
C18   H3    S    
C7    O2    S    
C6    C15   A    
C21   H15   S    
C12   O7    A    
C4    C10   A    
O9    Zn2   S    
O6    Zn2   S    
N2    Zn1   S    
N1    N2    D    
C16   C17   A    
N1    Zn2   S    
C28   O10   A    
