data_str_m12_o9_o24_f0_bcu.sym.146
_audit_creation_date              2012-12-11T17:47:22-0500
_audit_creation_method            fapswitch 2.2
_symmetry_space_group_name_H-M    P1
_symmetry_Int_Tables_number       1
_space_group_crystal_system       triclinic
_cell_length_a                    14.876569
_cell_length_b                    14.871491
_cell_length_c                    15.101811
_cell_angle_alpha                 110.217682
_cell_angle_beta                  109.379039
_cell_angle_gamma                 108.632888
_cell_volume                      2577.41625065

loop_
_atom_site_label
_atom_site_type_symbol
_atom_type_description
_atom_site_fract_x
_atom_site_fract_y
_atom_site_fract_z
_atom_type_partial_charge
C1    C     C_R   0.905355 0.192984 0.990093 -0.152732
C2    C     C_R   0.024730 0.750660 0.937012 -0.122074
C3    C     C_R   0.294769 0.871709 0.296648 0.060306
C4    C     C_R   0.675188 0.210071 0.672018 0.054400
C5    C     C_R   0.327667 0.501369 0.052301 -0.168093
C6    C     C_R   0.697103 0.498073 0.065936 -0.073833
C7    C     C_R   0.044182 0.496013 0.321178 0.044028
C8    C     C_R   0.060470 0.499891 0.697435 0.097169
C9    C     C_R   0.933064 0.857976 0.834377 -0.229258
C10   C     C_R   0.825012 0.955956 0.910038 -0.222979
C11   C     C_R   0.066407 0.053798 0.681052 -0.084306
C12   C     C_R   0.808164 0.927844 0.180312 -0.099455
C13   C     C_R   0.989399 0.000777 0.704780 -0.212448
C14   C     C_R   0.854152 0.929687 0.113785 -0.175802
C15   C     C_R   0.684593 0.269652 0.190403 0.545618
C16   C     C_R   0.370825 0.785538 0.914658 0.532718
C17   C     C_R   0.786831 0.349002 0.283699 0.494753
C18   C     C_R   0.313468 0.687314 0.813803 0.449927
C19   C     C_R   0.869923 0.320132 0.315055 -0.144041
C20   C     C_R   0.248903 0.684308 0.717727 -0.138177
C21   C     C_R   0.847403 0.212085 0.253793 -0.239890
C22   C     C_R   0.256250 0.783309 0.723884 -0.190482
C23   C     C_R   0.294353 0.806090 0.204999 -0.147281
C24   C     C_R   0.684368 0.239916 0.774650 -0.127037
C25   C     C_R   0.746571 0.134974 0.159865 -0.133086
C26   C     C_R   0.319959 0.881600 0.823019 -0.151620
C27   C     C_R   0.665796 0.163384 0.127924 -0.415347
C28   C     C_R   0.374378 0.882434 0.918296 -0.389289
C29   C     C_R   0.993229 0.402994 0.506624 -0.256824
C30   C     C_R   0.154938 0.571839 0.516598 -0.250353
C31   C     C_R   0.077825 0.494122 0.607184 0.044205
C32   C     C_R   0.062433 0.486819 0.416953 0.059020
C33   C     C_R   0.162455 0.579680 0.613909 0.071171
C34   C     C_R   0.980374 0.401039 0.412036 0.069438
C35   C     C_R   0.024441 0.000989 0.803199 0.117373
C36   C     C_R   0.790022 0.856441 0.001102 0.110975
C37   C     C_R   0.212706 0.089921 0.843837 -0.134022
C38   C     C_R   0.633575 0.782981 0.022601 -0.120458
C39   C     C_R   0.082541 0.974962 0.385030 -0.097516
C40   C     C_R   0.750578 0.958179 0.470661 -0.131750
C41   C     C_R   0.186584 0.023290 0.397504 -0.166849
C42   C     C_R   0.672819 0.986359 0.482881 -0.128681
C43   C     C_R   0.274533 0.027293 0.475071 0.125600
C44   C     C_R   0.661228 0.068319 0.462330 0.106372
C45   C     C_R   0.225953 0.409520 0.976720 0.520276
C46   C     C_R   0.789239 0.590189 0.096796 0.489776
C47   C     C_R   0.258445 0.988377 0.544238 -0.208191
C48   C     C_R   0.726675 0.120062 0.427112 -0.179834
C49   C     C_R   0.153439 0.937150 0.528985 -0.154630
C50   C     C_R   0.808424 0.095660 0.420926 -0.123989
C51   C     C_R   0.065424 0.929775 0.448954 -0.069049
C52   C     C_R   0.819983 0.014471 0.442104 -0.112167
C53   C     C_R   0.475829 0.133799 0.563985 -0.243611
C54   C     C_R   0.474299 0.025015 0.372395 -0.221199
C55   C     C_R   0.574432 0.146298 0.566581 0.069435
C56   C     C_R   0.377513 0.988442 0.376207 0.052029
C57   C     C_R   0.572890 0.090691 0.468119 0.019109
C58   C     C_R   0.376306 0.052008 0.470077 0.032779
C59   C     C_R   0.178002 0.098305 0.750480 -0.013729
C60   C     C_R   0.697651 0.855280 0.134880 -0.068634
C61   C     C_R   0.832959 0.873988 0.930689 0.024275
C62   C     C_R   0.944910 0.954524 0.834561 0.014744
C63   C     C_R   0.136406 0.042951 0.871195 -0.105629
C64   C     C_R   0.679418 0.782912 0.955649 -0.188583
C65   C     C_R   0.896408 0.829891 0.900226 0.067374
C66   C     C_R   0.896211 0.009816 0.881635 0.062981
C67   C     C_R   0.060055 0.590407 0.314331 -0.101120
C68   C     C_R   0.005522 0.408868 0.702047 -0.155805
C69   C     C_3   0.494217 0.392891 0.025932 -0.131009
C70   C     C_3   0.540262 0.603479 0.125864 -0.172319
C71   C     C_3   0.438667 0.445457 0.972397 -0.130476
C72   C     C_3   0.596953 0.551049 0.180210 -0.116117
C73   C     C_3   0.430093 0.501164 0.073494 0.166644
C74   C     C_3   0.604184 0.495586 0.078373 0.199700
C75   C     C_3   0.484213 0.448146 0.127422 -0.105170
C76   C     C_3   0.548671 0.547343 0.024475 -0.160691
C77   C     C_R   0.315797 0.592805 0.067175 -0.068290
C78   C     C_R   0.698348 0.407603 0.002523 -0.196595
C79   C     C_R   0.979133 0.406996 0.217828 -0.123118
C80   C     C_R   0.087419 0.591441 0.788445 -0.084569
C81   C     C_R   0.206232 0.804444 0.298090 -0.133865
C82   C     C_R   0.779764 0.248316 0.686758 -0.127477
C83   C     C_R   0.993611 0.194692 0.897941 -0.022681
C84   C     C_R   0.928708 0.745703 0.023715 -0.129988
C85   C     C_R   0.932631 0.128148 0.923420 0.012453
C86   C     C_R   0.944475 0.774441 0.949484 0.032088
H1    H     H_    0.846303 0.165263 0.014457 0.110526
H2    H     H_    0.060358 0.764432 0.888422 0.095673
H3    H     H_    0.039762 0.061355 0.609475 0.109465
H4    H     H_    0.857584 0.985460 0.266410 0.097426
H5    H     H_    0.298969 0.123570 0.897138 0.085138
H6    H     H_    0.548173 0.726510 0.986797 0.201666
H7    H     H_    0.588581 0.102608 0.054219 0.147981
H8    H     H_    0.417663 0.958205 0.995275 0.140925
H9    H     H_    0.909909 0.189038 0.276578 0.143219
H10   H     H_    0.208285 0.783812 0.652358 0.137445
H11   H     H_    0.731041 0.053165 0.110671 0.167437
H12   H     H_    0.323347 0.956550 0.826493 0.138249
H13   H     H_    0.926205 0.339666 0.500830 0.134912
H14   H     H_    0.216865 0.636966 0.518730 0.134307
H15   H     H_    0.903422 0.966914 0.651302 0.119714
H16   H     H_    0.938756 0.989968 0.149360 0.112567
H17   H     H_    0.455179 0.407763 0.169518 0.131921
H18   H     H_    0.575965 0.581087 0.977646 0.129060
H19   H     H_    0.340588 0.832405 0.168329 0.110280
H20   H     H_    0.619261 0.223678 0.793881 0.092213
H21   H     H_    0.164478 0.040620 0.945948 0.107367
H22   H     H_    0.628090 0.728678 0.868436 0.127689
H23   H     H_    0.983964 0.888749 0.436338 0.114832
H24   H     H_    0.881738 0.994137 0.434972 0.093434
H25   H     H_    0.014627 0.968722 0.322903 0.121975
H26   H     H_    0.756599 0.892379 0.482844 0.106453
H27   H     H_    0.197376 0.051795 0.342839 0.116491
H28   H     H_    0.619952 0.942832 0.506042 0.113164
H29   H     H_    0.324912 0.989197 0.603327 0.119985
H30   H     H_    0.716776 0.181434 0.408270 0.126364
H31   H     H_    0.139938 0.901347 0.577892 0.125955
H32   H     H_    0.862536 0.139006 0.399132 0.117527
H33   H     H_    0.475525 0.180242 0.637041 0.124706
H34   H     H_    0.476882 0.983891 0.299482 0.121801
H35   H     H_    0.969605 0.816582 0.797198 0.128132
H36   H     H_    0.777102 0.989322 0.934920 0.126461
H37   H     H_    0.372803 0.402652 0.886546 0.147921
H38   H     H_    0.664420 0.593512 0.265141 0.141317
H39   H     H_    0.475776 0.306390 0.983277 0.106444
H40   H     H_    0.557391 0.689446 0.167948 0.121713
H41   H     H_    0.105923 0.674687 0.380329 0.098789
H42   H     H_    0.985064 0.325117 0.651700 0.109154
H43   H     H_    0.379101 0.677973 0.117617 0.147244
H44   H     H_    0.644131 0.322728 0.973663 0.128703
H45   H     H_    0.956877 0.322532 0.192762 0.126507
H46   H     H_    0.135209 0.676538 0.814574 0.089922
H47   H     H_    0.173637 0.825655 0.350426 0.141538
H48   H     H_    0.805638 0.248944 0.628705 0.121047
H49   H     H_    0.008073 0.169920 0.831298 0.161942
H50   H     H_    0.870585 0.747642 0.050005 0.171704
H51   H     H_    0.237546 0.139152 0.731897 0.101090
H52   H     H_    0.661624 0.856627 0.186496 0.119193
N1    N     N_R   0.947560 0.293820 0.002910 -0.051107
N2    N     N_R   0.052440 0.706180 0.997090 -0.045100
N3    N     N_R   0.208960 0.706170 0.152110 -0.048043
N4    N     N_R   0.791040 0.293830 0.847890 -0.040458
N5    N     N_R   0.154330 0.443160 0.946140 -0.072783
N6    N     N_R   0.845670 0.556840 0.053860 -0.074235
N7    N     N_R   0.002190 0.556820 0.208880 -0.037526
N8    N     N_R   0.997810 0.443180 0.791120 -0.047910
N9    N     N_R   0.210550 0.556810 0.002910 -0.059080
N10   N     N_R   0.789450 0.443190 0.997090 -0.069099
N11   N     N_R   0.945970 0.443180 0.152110 -0.044126
N12   N     N_R   0.054030 0.556820 0.847890 -0.045788
N13   N     N_R   0.151530 0.706170 0.208880 -0.047275
N14   N     N_R   0.848470 0.293830 0.791120 -0.049251
N15   N     N_R   0.004980 0.293810 0.946140 -0.052739
N16   N     N_R   0.995020 0.706190 0.053860 -0.037170
Ni1   Ni    Ni4+2 0.869690 0.369690 0.000000 0.205086
Ni2   Ni    Ni4+2 0.130310 0.630310 0.000000 0.231334
Ni3   Ni    Ni4+2 0.001390 0.369680 0.869810 0.230453
Ni4   Ni    Ni4+2 0.998610 0.630320 0.130190 0.258501
O1    O     O_3   0.604283 0.298265 0.162398 -0.742472
H53   H     H_    0.536327 0.232571 0.097829 0.286621
O2    O     O_3   0.418464 0.783430 0.008804 -0.782704
H54   H     H_    0.455993 0.858513 0.072265 0.294281
O3    O     O_3   0.801349 0.452674 0.340959 -0.732286
H55   H     H_    0.874478 0.500084 0.406766 0.313878
O4    O     O_3   0.316348 0.595367 0.813737 -0.748115
H56   H     H_    0.286042 0.537562 0.738061 0.308313
O5    O     O_3   0.202399 0.302014 0.930159 -0.792996
H57   H     H_    0.265151 0.298594 0.975900 0.309629
O6    O     O_3   0.831968 0.696553 0.177058 -0.788354
H58   H     H_    0.778315 0.699718 0.201203 0.309308

loop_
_geom_bond_atom_site_label_1
_geom_bond_atom_site_label_2
_ccdc_geom_bond_type
C16   C28   A    
C39   C51   A    
C1    H1    S    
O4    H56   S    
C80   H46   S    
C54   H34   S    
C41   C43   A    
O6    H58   S    
C3    C23   A    
O3    H55   S    
N6    N10   A    
C66   C85   S    
O2    H54   S    
C65   C86   S    
C47   C49   A    
N8    Ni3   S    
N5    N9    A    
C10   C66   A    
C74   C76   S    
C71   H37   S    
C19   C21   A    
C84   C86   A    
N16   Ni4   S    
C14   C36   A    
C71   C76   S    
C4    C24   A    
C29   H13   S    
C14   H16   S    
C59   H51   S    
C23   H19   S    
C30   H14   S    
C11   C13   A    
C28   H8    S    
C2    C86   A    
N4    N14   A    
C69   C71   S    
N7    N11   A    
C21   C25   A    
C17   O3    S    
C43   C58   S    
N8    N12   A    
C84   N16   A    
C42   H28   S    
C49   H31   S    
C24   N4    A    
C49   C51   A    
C67   N7    A    
C9    H35   S    
C31   C33   A    
C2    H2    S    
C8    C80   A    
N10   Ni1   S    
C52   H24   S    
N4    Ni1   S    
C77   N9    A    
C83   H49   S    
C1    N1    A    
C78   N10   A    
C79   N11   A    
C70   H40   S    
C48   C50   A    
C69   H39   S    
C51   H23   S    
N12   Ni2   S    
C72   H38   S    
C75   H17   S    
C73   C75   S    
C42   C44   A    
C72   C75   S    
C11   C59   A    
C63   H21   S    
C37   C63   A    
C18   O4    S    
N5    Ni3   S    
C38   C64   A    
N11   Ni1   S    
C53   C55   A    
C1    C85   A    
C15   C27   A    
C54   C56   A    
C62   C66   A    
C9    C62   A    
N13   Ni4   S    
C72   C74   S    
O5    H57   S    
C71   C73   S    
C37   H5    S    
C46   N6    A    
C21   H9    S    
C40   C52   A    
C6    C74   S    
C5    C45   A    
C29   C34   A    
C13   H15   S    
C32   C34   A    
C82   H48   S    
C47   H29   S    
C76   H18   S    
C15   O1    S    
C67   H41   S    
C64   H22   S    
C3    C56   S    
C11   H3    S    
C50   C52   A    
O1    H53   S    
N1    Ni1   S    
C44   C57   S    
C79   H45   S    
C70   C73   S    
C69   C74   S    
C77   H43   S    
C81   H47   S    
N9    Ni2   S    
C45   O5    S    
C37   C59   A    
C26   H12   S    
C38   C60   A    
C20   C33   S    
C25   H11   S    
C83   C85   A    
C12   C14   A    
C8    C68   A    
C55   C57   A    
C4    C55   S    
C70   C76   S    
C27   H7    S    
C10   C61   A    
C24   H20   S    
C20   C22   A    
C69   C75   S    
N6    Ni4   S    
C36   C61   S    
C68   N8    A    
N3    N13   A    
C7    C79   A    
C12   H4    S    
C15   C17   A    
C68   H42   S    
N14   Ni3   S    
C84   H50   S    
C7    C32   S    
C6    C46   A    
C30   C33   A    
C50   H32   S    
C8    C31   S    
C22   H10   S    
C5    C73   S    
C3    C81   A    
C41   H27   S    
C40   C42   A    
C10   H36   S    
C19   C34   S    
C70   C72   S    
C53   C58   A    
C53   H33   S    
N3    Ni2   S    
C13   C35   A    
C83   N15   A    
C16   O2    S    
C25   C27   A    
C26   C28   A    
C46   O6    S    
C48   H30   S    
C2    N2    A    
C78   H44   S    
C29   C31   A    
C81   N13   A    
C30   C32   A    
N7    Ni4   S    
C40   H26   S    
C43   C47   A    
C39   H25   S    
C17   C19   A    
C56   C58   A    
C80   N12   A    
C35   C62   S    
C18   C20   A    
N2    Ni2   S    
N15   Ni3   S    
C9    C65   A    
C6    C78   A    
C7    C67   A    
C12   C60   A    
C61   C65   A    
C4    C82   A    
C39   C41   A    
C16   C18   A    
C22   C26   A    
C60   H52   S    
C45   N5    A    
N1    N15   A    
C23   N3    A    
C35   C63   A    
C36   C64   A    
C5    C77   A    
C82   N14   A    
C44   C48   A    
C38   H6    S    
N2    N16   A    
C54   C57   A    
