data_str_m9_o11_o16_f0_sra.sym.202
_audit_creation_date              2012-12-11T14:17:38-0500
_audit_creation_method            fapswitch 2.2
_symmetry_space_group_name_H-M    P1
_symmetry_Int_Tables_number       1
_space_group_crystal_system       triclinic
_cell_length_a                    6.94718
_cell_length_b                    13.659445
_cell_length_c                    20.491203
_cell_angle_alpha                 102.403077
_cell_angle_beta                  90.714209
_cell_angle_gamma                 90.697532
_cell_volume                      1898.75454949

loop_
_atom_site_label
_atom_site_type_symbol
_atom_type_description
_atom_site_fract_x
_atom_site_fract_y
_atom_site_fract_z
_atom_type_partial_charge
O1    O     O_R   0.506860 0.599390 0.449240 -0.543991
O2    O     O_R   0.180220 0.594600 0.586780 -0.551041
O3    O     O_R   0.004500 0.400610 0.550760 -0.545286
C1    C     C_R   0.349773 0.614486 0.613958 0.755180
O4    O     O_R   0.177490 0.611290 0.451970 -0.540237
O5    O     O_R   0.001750 0.417420 0.414990 -0.525995
C2    C     C_R   0.346464 0.637068 0.434651 0.736478
O6    O     O_R   0.509610 0.582580 0.585010 -0.534874
O7    O     O_3   0.337420 0.436370 0.488020 -0.355735
V1    V     V_3+5 0.064680 0.511800 0.502220 1.500044
O8    O     O_R   0.671710 0.405400 0.413220 -0.514316
C3    C     C_R   0.837261 0.386237 0.385702 0.768024
O9    O     O_R   0.674440 0.388710 0.548030 -0.526123
C4    C     C_R   0.843302 0.363222 0.565289 0.754336
V2    V     V_3+5 0.564010 0.488200 0.497780 1.552690
O10   O     O_3   0.841140 0.563630 0.511980 -0.388373
C5    C     C_R   0.930812 0.117369 0.610682 -0.140183
H1    H     H_    0.947290 0.173626 0.521225 0.120550
H2    H     H_    0.924686 0.987107 0.687565 0.153531
H3    H     H_    0.967597 0.042125 0.585049 0.122929
C6    C     C_R   0.854959 0.286835 0.604962 -0.065989
C7    C     C_R   0.869204 0.310300 0.925630 -0.168320
C8    C     C_R   0.890669 0.386494 0.890765 0.200922
C9    C     C_R   0.895179 0.362283 0.821170 -0.081218
C10   C     C_R   0.867405 0.262768 0.784824 0.028363
C11   C     C_R   0.865596 0.183522 0.820572 0.005982
C12   C     C_R   0.860957 0.239697 0.713488 0.043099
C13   C     C_R   0.900591 0.140347 0.679702 0.061037
C14   C     C_R   0.905019 0.063761 0.714541 -0.186329
C15   C     C_R   0.875477 0.082720 0.783025 0.207682
C16   C     C_R   0.815795 0.310379 0.673805 0.175579
C17   C     C_R   0.917001 0.191548 0.574189 -0.206573
C18   C     C_R   0.862422 0.209755 0.891913 -0.123887
H4    H     H_    0.867418 0.328969 0.979775 0.154972
H5    H     H_    0.931437 0.421789 0.796138 0.166521
C19   C     C_2   0.957250 0.326181 0.268887 0.213113
C20   C     C_2   0.827231 0.321790 0.317297 0.009595
C21   C     C_2   0.929126 0.271240 0.198028 0.328474
C22   C     C_2   0.877640 0.173475 0.182087 -0.306204
H6    H     H_    0.857704 0.131692 0.220991 0.126165
C23   C     C_2   0.205970 0.770957 0.788049 -0.111571
C24   C     C_2   0.362777 0.818948 0.818844 -0.273505
H7    H     H_    0.070030 0.778688 0.814013 0.176516
H8    H     H_    0.500259 0.810654 0.794135 0.166365
C25   C     C_2   0.204744 0.707382 0.718977 -0.111453
C26   C     C_2   0.362738 0.679099 0.681987 -0.273198
H9    H     H_    0.063778 0.681488 0.698368 0.153678
H10   H     H_    0.505933 0.700424 0.701866 0.146479
C27   C     C_R   0.397854 0.894193 0.398229 0.176377
H11   H     H_    0.381878 0.832992 0.486883 0.102000
H12   H     H_    0.391510 0.024011 0.317402 0.171288
C28   C     C_R   0.359606 0.717524 0.397925 -0.085781
C29   C     C_R   0.371487 0.694351 0.080481 -0.204412
C30   C     C_R   0.425267 0.621107 0.114780 0.195843
C31   C     C_R   0.466236 0.648662 0.183953 0.141297
C32   C     C_R   0.414479 0.746161 0.220438 0.017427
C33   C     C_R   0.381438 0.823511 0.184247 0.016322
C34   C     C_R   0.397146 0.769419 0.291666 0.043233
C35   C     C_R   0.399168 0.870741 0.327090 0.082815
C36   C     C_R   0.392964 0.946431 0.290985 -0.174644
C37   C     C_R   0.369051 0.924908 0.221467 0.085065
C38   C     C_R   0.363388 0.694522 0.328258 -0.208655
C39   C     C_R   0.381476 0.816494 0.432702 -0.170040
C40   C     C_R   0.364428 0.795161 0.112783 -0.106006
H13   H     H_    0.336207 0.617766 0.303105 0.181517
H14   H     H_    0.352007 0.674003 0.026606 0.115776
O11   O     O_R   0.203230 0.917310 0.915020 -0.524195
O12   O     O_R   0.535500 0.888690 0.048040 -0.550056
O13   O     O_R   0.711080 0.082610 0.085000 -0.540351
C41   C     C_R   0.367932 0.866905 0.068550 0.692029
O14   O     O_R   0.532630 0.905370 0.913230 -0.526152
O15   O     O_R   0.708190 0.099410 0.949230 -0.527234
C42   C     C_R   0.363571 0.883962 0.886641 0.783340
O16   O     O_R   0.206120 0.900510 0.050790 -0.551541
O17   O     O_3   0.375360 0.063570 0.011990 -0.367434
V3    V     V_3+5 0.648170 0.988200 0.997780 1.505444
O18   O     O_R   0.038240 0.111390 0.951940 -0.528014
C43   C     C_R   0.869644 0.135996 0.933883 0.814278
O19   O     O_R   0.041120 0.094710 0.086750 -0.536211
C44   C     C_R   0.874915 0.114832 0.113240 0.779440
V4    V     V_3+5 0.148810 0.011930 0.002180 1.514244
O20   O     O_3   0.871750 0.936430 0.988010 -0.368782
Br1   Br    Br    0.587026 0.246973 0.296666 -0.569467
Br2   Br    Br    0.977623 0.343394 0.128524 -0.579933
C45   C     C_3   0.411403 0.000675 0.438417 -0.788145
H15   H     H_    0.284352 0.043382 0.427510 0.211120
H16   H     H_    0.415087 0.003838 0.493055 0.211538
H17   H     H_    0.545329 0.037362 0.425837 0.219344
C46   C     C_3   0.593616 0.579905 0.214245 -0.716179
H18   H     H_    0.656670 0.617352 0.263345 0.208330
H19   H     H_    0.512508 0.511282 0.218818 0.261132
H20   H     H_    0.719712 0.557474 0.182001 0.237651
C47   C     C_3   0.449633 0.514861 0.075912 -0.700709
H21   H     H_    0.394686 0.504765 0.023697 0.200528
H22   H     H_    0.604039 0.494738 0.073814 0.218257
H23   H     H_    0.367953 0.462349 0.100110 0.261248
C48   C     C_3   0.318577 0.012839 0.191273 -0.673085
H24   H     H_    0.302005 0.083392 0.229339 0.231029
H25   H     H_    0.432558 0.027750 0.157288 0.217552
H26   H     H_    0.176752 0.997674 0.165926 0.195017
Br3   Br    Br    0.661544 0.427757 0.706600 -0.606383
C49   C     C_3   0.914376 0.493825 0.927350 -0.765052
H27   H     H_    0.908663 0.501413 0.982378 0.219387
H28   H     H_    0.055433 0.523947 0.915094 0.207342
H29   H     H_    0.797401 0.539196 0.911995 0.219625
Br4   Br    Br    0.853279 0.962458 0.816639 -0.608537
Br5   Br    Br    0.178195 0.414922 0.285880 -0.513739

loop_
_geom_bond_atom_site_label_1
_geom_bond_atom_site_label_2
_ccdc_geom_bond_type
C34   C38   A    
C31   C32   A    
C47   H21   S    
C27   C39   A    
C23   C24   D    
O15   V3    S    
V4    O20   S    
C1    C26   S    
O18   C43   A    
C6    C16   A    
O13   V3    S    
C16   Br3   S    
C4    C6    S    
C19   C20   D    
C2    C28   S    
O5    C3    A    
C21   C22   D    
C29   C40   A    
C18   C43   S    
C8    C49   S    
V2    O10   S    
C5    H3    S    
C32   C33   A    
C49   H29   S    
C3    C20   S    
C30   C47   S    
O15   C43   A    
O8    V2    S    
C33   C37   A    
C41   O16   A    
C8    C9    A    
O1    V2    S    
C40   C41   S    
C46   H19   S    
O7    V1    S    
C1    O6    A    
C45   H16   S    
C35   C36   A    
C47   H22   S    
O9    C4    A    
C15   Br4   S    
C19   Br5   S    
H11   C39   S    
C23   H7    S    
C24   H8    S    
C48   H25   S    
C48   H24   S    
O4    C2    A    
C25   H9    S    
C7    H4    S    
C6    C17   A    
C26   H10   S    
C9    H5    S    
C12   C16   A    
C27   C45   S    
C9    C10   A    
V3    O20   S    
C22   H6    S    
O14   C42   A    
O17   V4    S    
C34   C35   A    
C45   H15   S    
C36   C37   A    
O2    C1    A    
O17   V3    S    
C14   C15   A    
C11   C18   A    
O18   V4    S    
O12   V3    S    
C46   H20   S    
C49   H28   S    
C29   H14   S    
O3    C4    A    
O11   C42   A    
O11   V4    S    
C47   H23   S    
O9    V2    S    
C10   C12   A    
O16   V4    S    
O2    V1    S    
C48   H26   S    
C33   C40   A    
O19   V4    S    
C45   H17   S    
C7    C18   A    
C30   C31   A    
C13   C14   A    
C24   C42   S    
C38   H13   S    
C21   Br2   S    
O1    C2    A    
C5    C13   A    
C37   C48   S    
C28   C39   A    
O5    V1    S    
O8    C3    A    
C29   C30   A    
O6    V2    S    
C27   C35   A    
C22   C44   S    
C19   C21   S    
C10   C11   A    
O4    V1    S    
C31   C46   S    
O3    V1    S    
V1    O10   S    
O14   V3    S    
C32   C34   A    
O7    V2    S    
C49   H27   S    
O19   C44   A    
C25   C26   D    
H1    C17   S    
O12   C41   A    
C12   C13   A    
C5    C17   A    
C23   C25   S    
C7    C8    A    
C20   Br1   S    
O13   C44   A    
C28   C38   A    
H12   C36   S    
C46   H18   S    
C11   C15   A    
H2    C14   S    
