data_str_m2_o18_o18_f0_pcu.sym.220
_audit_creation_date              2012-12-10T17:46:26-0500
_audit_creation_method            fapswitch 2.2
_symmetry_space_group_name_H-M    P1
_symmetry_Int_Tables_number       1
_space_group_crystal_system       triclinic
_cell_length_a                    20.723217
_cell_length_b                    21.228951
_cell_length_c                    14.7541
_cell_angle_alpha                 90.026053
_cell_angle_beta                  128.779635
_cell_angle_gamma                 89.97452
_cell_volume                      5059.97391239

loop_
_atom_site_label
_atom_site_type_symbol
_atom_type_description
_atom_site_fract_x
_atom_site_fract_y
_atom_site_fract_z
_atom_type_partial_charge
C1    C     C_R   0.603366 0.913668 0.632165 0.809345
C2    C     C_R   0.643267 0.241863 0.039038 -0.111698
C3    C     C_R   0.749012 0.793389 0.996019 -0.000470
C4    C     C_R   0.194829 0.746492 0.930047 0.018887
C5    C     C_R   0.749078 0.296273 0.000443 0.029425
C6    C     C_R   0.803531 0.744229 0.067873 0.067116
C7    C     C_R   0.253251 0.298831 0.003760 -0.002882
C8    C     C_R   0.287369 0.830061 0.965002 -0.019359
C9    C     C_R   0.629783 0.230712 0.934456 -0.109607
C10   C     C_R   0.712994 0.829565 0.035706 -0.023038
C11   C     C_R   0.374091 0.235435 0.072341 -0.100587
C12   C     C_R   0.794841 0.327413 0.971159 -0.056713
C13   C     C_R   0.710569 0.805182 0.122972 -0.075523
C14   C     C_R   0.130554 0.731197 0.935645 -0.037236
C15   C     C_R   0.211751 0.332089 0.037956 -0.015563
C16   C     C_R   0.860894 0.722201 0.052174 -0.110576
C17   C     C_2   0.316539 0.846151 0.824770 0.299540
C18   C     C_2   0.615346 0.192969 0.080425 0.272098
C19   C     C_2   0.686797 0.846821 0.178940 0.304506
C20   C     C_2   0.391605 0.196790 0.930573 0.275051
C21   C     C_2   0.869534 0.319696 0.889726 0.315909
C22   C     C_2   0.073547 0.729530 0.042776 0.216513
C23   C     C_2   0.182065 0.346258 0.178331 0.308816
C24   C     C_R   0.361149 0.245905 0.968043 -0.115946
C25   C     C_2   0.860261 0.677625 0.896943 0.343396
C26   C     C_3   0.344034 0.722338 0.762652 -0.437576
C27   C     C_3   0.390312 0.661628 0.779091 -0.780461
C28   C     C_3   0.619100 0.320109 0.190277 -0.371003
C29   C     C_3   0.582202 0.386151 0.165887 -0.817923
C30   C     C_3   0.657260 0.722956 0.239793 -0.429741
C31   C     C_3   0.609034 0.662461 0.217741 -0.780814
C32   C     C_3   0.380578 0.320750 0.808593 -0.361896
C33   C     C_3   0.412575 0.387454 0.819207 -0.817454
C34   C     C_3   0.745640 0.277544 0.640786 -0.400001
C35   C     C_R   0.798087 0.302257 0.885627 -0.108949
C36   C     C_3   0.669126 0.287445 0.513868 -0.758783
C37   C     C_3   0.204319 0.741530 0.293448 -0.399521
C38   C     C_3   0.272980 0.721727 0.419680 -0.810036
C39   C     C_3   0.153233 0.219830 0.232504 -0.429750
C40   C     C_3   0.105871 0.158293 0.206657 -0.752467
C41   C     C_3   0.863952 0.800771 0.782248 -0.376526
C42   C     C_3   0.910706 0.862745 0.811159 -0.786581
C43   C     C_2   0.306509 0.897748 0.995940 0.350189
C44   C     C_2   0.544762 0.211266 0.831100 0.326833
C45   C     C_2   0.692269 0.896985 0.003032 0.360880
C46   C     C_R   0.141677 0.743797 0.038988 -0.043255
C47   C     C_2   0.459937 0.220111 0.178244 0.309560
C48   C     C_2   0.829114 0.391361 0.015630 0.300972
C49   C     C_2   0.046013 0.715015 0.827103 0.336441
C50   C     C_2   0.185536 0.398426 0.001023 0.360500
C51   C     C_2   0.946716 0.702486 0.152087 0.315383
C52   C     C_2   0.715126 0.992439 0.525491 0.329604
C53   C     C_2   0.286044 0.987114 0.475489 0.339705
C54   C     C_2   0.215630 0.504086 0.527275 0.295453
C55   C     C_2   0.784556 0.494529 0.473197 0.301416
C56   C     C_R   0.208768 0.306394 0.124027 -0.066029
C57   C     C_R   0.843322 0.731131 0.944615 -0.137867
C58   C     C_R   0.320943 0.004339 0.666049 -0.253147
C59   C     C_R   0.678747 0.007030 0.333461 -0.240880
C60   C     C_R   0.820937 0.500415 0.666277 -0.240165
C61   C     C_R   0.396380 0.086155 0.367360 0.826509
C62   C     C_R   0.178347 0.513588 0.333735 -0.268522
C63   C     C_R   0.349630 0.997006 0.602573 0.187917
C64   C     C_R   0.650577 0.999406 0.397572 0.191399
C65   C     C_R   0.849271 0.497859 0.601873 0.207996
C66   C     C_R   0.150639 0.505115 0.398283 0.208067
C67   C     C_R   0.488722 0.007792 0.776107 -0.017608
C68   C     C_R   0.510998 0.006959 0.223585 -0.018669
C69   C     C_R   0.988672 0.505859 0.776376 -0.024808
C70   C     C_R   0.010929 0.503293 0.223392 -0.027878
C71   C     C_R   0.461801 0.014486 0.844521 -0.003878
C72   C     C_R   0.397686 0.912827 0.368981 0.807896
C73   C     C_R   0.537676 0.014552 0.154948 -0.004925
C74   C     C_R   0.961567 0.510200 0.844747 -0.021978
C75   C     C_R   0.037308 0.511984 0.154720 0.003735
C76   C     C_R   0.375864 0.013692 0.785403 0.155273
C77   C     C_R   0.623564 0.014939 0.213950 0.150164
C78   C     C_R   0.875791 0.506751 0.785893 0.113529
C79   C     C_R   0.122910 0.517319 0.213703 0.133234
C80   C     C_R   0.516187 0.020027 0.968809 0.095218
C81   C     C_R   0.483212 0.019943 0.030575 0.097217
C82   C     C_R   0.015634 0.516612 0.968661 0.125834
C83   C     C_R   0.602690 0.086847 0.631288 0.828943
C84   C     C_R   0.982756 0.514300 0.030401 0.084979
C85   C     C_R   0.397146 0.025223 0.965726 -0.237176
C86   C     C_R   0.602233 0.025430 0.033564 -0.243889
C87   C     C_R   0.896566 0.515178 0.965755 -0.294331
C88   C     C_R   0.101018 0.526339 0.032817 -0.153879
C89   C     C_R   0.344540 0.021779 0.845385 -0.081782
C90   C     C_R   0.654783 0.022912 0.153851 -0.078649
C91   C     C_R   0.844171 0.510825 0.845883 -0.150943
C92   C     C_R   0.153565 0.526582 0.153138 -0.116219
C93   C     C_R   0.654662 0.142231 0.696061 -0.107150
C94   C     C_R   0.104215 0.414132 0.633276 0.806729
C95   C     C_R   0.337899 0.862884 0.293135 -0.110464
C96   C     C_R   0.339553 0.138260 0.295372 -0.105428
C97   C     C_R   0.666959 0.866836 0.711835 -0.098389
C98   C     C_R   0.161908 0.636973 0.706589 -0.102084
C99   C     C_R   0.830078 0.368525 0.285278 -0.102339
C100  C     C_R   0.837411 0.636369 0.293307 -0.105669
C101  C     C_R   0.170918 0.369751 0.717109 -0.101909
C102  C     C_R   0.728564 0.235048 0.707090 0.202106
C103  C     C_R   0.234139 0.785259 0.244242 0.136912
C104  C     C_R   0.229419 0.210886 0.239818 0.141872
C105  C     C_R   0.895732 0.585523 0.366699 0.827873
C106  C     C_R   0.791897 0.807958 0.784600 0.205030
C107  C     C_R   0.270222 0.710980 0.760050 0.142065
C108  C     C_R   0.696240 0.319642 0.198712 0.216303
C109  C     C_R   0.730954 0.711541 0.242173 0.141674
C110  C     C_R   0.304465 0.320653 0.802731 0.208585
C111  C     C_R   0.689245 0.177223 0.655795 -0.179553
C112  C     C_R   0.289231 0.833859 0.316247 -0.155794
C113  C     C_R   0.283569 0.161524 0.309798 -0.161754
C114  C     C_R   0.728025 0.849212 0.703399 -0.212524
C115  C     C_R   0.215818 0.661859 0.689464 -0.157064
C116  C     C_R   0.896081 0.413839 0.367282 0.809572
C117  C     C_R   0.763506 0.357148 0.285224 -0.214834
C118  C     C_R   0.785106 0.662319 0.312553 -0.160636
C119  C     C_R   0.235935 0.356605 0.714624 -0.212140
C120  C     C_R   0.659593 0.165115 0.788561 -0.143721
C121  C     C_R   0.331159 0.843005 0.197665 -0.168151
C122  C     C_R   0.341482 0.164854 0.210854 -0.136858
C123  C     C_R   0.671104 0.844356 0.804001 -0.177601
C124  C     C_R   0.162970 0.661147 0.795196 -0.150036
C125  C     C_R   0.828501 0.342615 0.197281 -0.158697
C126  C     C_R   0.834280 0.659148 0.202423 -0.141401
C127  C     C_R   0.104006 0.585785 0.633131 0.826618
C128  C     C_R   0.174856 0.346870 0.809022 -0.168388
C129  C     C_R   0.695302 0.223937 0.839021 0.072260
C130  C     C_R   0.264314 0.805882 0.109886 0.082399
C131  C     C_R   0.300921 0.221911 0.156323 0.091533
C132  C     C_R   0.738238 0.807962 0.892902 0.064449
C133  C     C_R   0.203379 0.717954 0.850736 0.093889
C134  C     C_R   0.758140 0.311062 0.102290 0.058451
C135  C     C_R   0.795730 0.716672 0.148501 0.087522
C136  C     C_R   0.244728 0.314277 0.902605 0.062195
C137  C     C_R   0.741661 0.254239 0.810563 0.078473
C138  C     C_R   0.290900 0.805126 0.878959 -0.074555
C139  C     C_R   0.213272 0.776829 0.131896 0.005258
C140  C     C_R   0.244714 0.246506 0.172347 -0.003954
C141  C     C_R   0.791506 0.781543 0.873261 0.115821
C142  C     C_R   0.256914 0.744662 0.831436 0.001495
C143  C     C_R   0.698625 0.290164 0.113845 0.105733
C144  C     C_R   0.743996 0.744647 0.170090 -0.004493
C145  C     C_R   0.303886 0.292775 0.890387 0.109003
C146  C     C_R   0.690675 0.250002 0.923632 0.048965
C147  C     C_R   0.250782 0.794134 0.003912 0.005946
C148  C     C_R   0.310958 0.252178 0.079697 0.061420
Cu1   Cu    Cu3+1 0.526640 1.000000 0.436960 0.942519
Cu2   Cu    Cu3+1 0.473360 0.000000 0.563040 0.947064
Cu3   Cu    Cu3+1 0.026640 0.500000 0.436960 0.947262
Cu4   Cu    Cu3+1 0.973360 0.500000 0.563040 0.945183
H1    H     H_    0.368662 0.031491 0.006142 0.142326
H2    H     H_    0.130319 0.635724 0.818824 0.147826
H3    H     H_    0.122152 0.354372 0.806446 0.148248
H4    H     H_    0.864025 0.631885 0.176154 0.152332
H5    H     H_    0.298136 0.846379 0.394502 0.179931
H6    H     H_    0.681794 0.161031 0.580132 0.171923
H7    H     H_    0.727427 0.868842 0.635130 0.174754
H8    H     H_    0.278595 0.138654 0.370775 0.159483
H9    H     H_    0.762311 0.379213 0.350297 0.171296
H10   H     H_    0.218575 0.640753 0.625151 0.168023
H11   H     H_    0.235180 0.376683 0.646519 0.160776
H12   H     H_    0.630854 0.031428 0.993330 0.142423
H13   H     H_    0.782966 0.641813 0.377820 0.166262
H14   H     H_    0.278334 0.023639 0.798889 0.150443
H15   H     H_    0.720953 0.025388 0.200282 0.151445
H16   H     H_    0.777942 0.510497 0.799585 0.170438
H17   H     H_    0.219343 0.532739 0.199373 0.143899
H18   H     H_    0.446306 0.006410 0.184280 0.134397
H19   H     H_    0.553350 0.008424 0.815200 0.133620
H20   H     H_    0.946494 0.499421 0.184354 0.149140
H21   H     H_    0.053347 0.506791 0.815676 0.136720
H22   H     H_    0.254961 0.003283 0.621765 0.178645
H23   H     H_    0.867822 0.520692 0.005791 0.178261
H24   H     H_    0.744652 0.007465 0.377238 0.185892
H25   H     H_    0.755110 0.498642 0.622756 0.190955
H26   H     H_    0.244001 0.517818 0.377284 0.188166
H27   H     H_    0.279113 0.847808 0.730804 0.102821
H28   H     H_    0.566944 0.159952 0.020655 0.066869
H29   H     H_    0.724910 0.848061 0.273026 0.100881
H30   H     H_    0.441069 0.165109 0.993108 0.064369
H31   H     H_    0.890293 0.368120 0.902926 0.091396
H32   H     H_    0.050285 0.765738 0.067586 0.102285
H33   H     H_    0.218080 0.346109 0.272115 0.094951
H34   H     H_    0.129015 0.533979 0.992055 0.139277
H35   H     H_    0.905054 0.641993 0.954146 0.127170
H36   H     H_    0.405073 0.634442 0.854356 0.259410
H37   H     H_    0.353430 0.631922 0.699776 0.271079
H38   H     H_    0.449226 0.673583 0.796127 0.246226
H39   H     H_    0.322753 0.745734 0.680769 0.206022
H40   H     H_    0.391184 0.752296 0.837304 0.243296
H41   H     H_    0.624744 0.418160 0.239932 0.291085
H42   H     H_    0.569566 0.405723 0.086347 0.253792
H43   H     H_    0.523040 0.383869 0.152083 0.262759
H44   H     H_    0.568702 0.290660 0.118163 0.204458
H45   H     H_    0.378448 0.857598 0.192155 0.147725
H46   H     H_    0.634700 0.301888 0.272446 0.231166
H47   H     H_    0.592272 0.638089 0.138909 0.256866
H48   H     H_    0.645482 0.630085 0.293293 0.261319
H49   H     H_    0.551137 0.674358 0.203657 0.247780
H50   H     H_    0.679024 0.744212 0.323503 0.211430
H51   H     H_    0.611156 0.754657 0.167821 0.241773
H52   H     H_    0.368750 0.414436 0.737778 0.280515
H53   H     H_    0.421894 0.412741 0.892546 0.255615
H54   H     H_    0.472809 0.385007 0.836034 0.262021
H55   H     H_    0.433336 0.295193 0.885542 0.207209
H56   H     H_    0.635140 0.136384 0.821334 0.148004
H57   H     H_    0.365273 0.297847 0.729500 0.242990
H58   H     H_    0.653999 0.244160 0.461803 0.266502
H59   H     H_    0.615123 0.301393 0.508468 0.285230
H60   H     H_    0.681539 0.325599 0.475098 0.247490
H61   H     H_    0.763988 0.325533 0.678043 0.210493
H62   H     H_    0.796154 0.256938 0.643587 0.237959
H63   H     H_    0.327922 0.704491 0.430096 0.260093
H64   H     H_    0.291246 0.761361 0.480490 0.244433
H65   H     H_    0.250179 0.683041 0.443778 0.253481
H66   H     H_    0.153707 0.764699 0.287523 0.227838
H67   H     H_    0.620759 0.855157 0.805344 0.146234
H68   H     H_    0.181508 0.696522 0.244847 0.239318
H69   H     H_    0.092812 0.134619 0.129527 0.267150
H70   H     H_    0.141148 0.125869 0.282259 0.244104
H71   H     H_    0.046019 0.168724 0.187915 0.251180
H72   H     H_    0.172122 0.240056 0.315434 0.205461
H73   H     H_    0.107432 0.251518 0.160214 0.250753
H74   H     H_    0.870329 0.899254 0.745238 0.292337
H75   H     H_    0.934014 0.879796 0.898143 0.253219
H76   H     H_    0.964428 0.855217 0.812673 0.268008
H77   H     H_    0.910711 0.766658 0.846846 0.221698
H78   H     H_    0.376216 0.140847 0.189293 0.154754
H79   H     H_    0.840531 0.784160 0.694961 0.236321
H80   H     H_    0.363965 0.917113 0.021591 0.121540
H81   H     H_    0.504490 0.185097 0.840558 0.088386
H82   H     H_    0.633728 0.915466 0.975041 0.120556
H83   H     H_    0.504500 0.199303 0.171508 0.089276
H84   H     H_    0.891407 0.402481 0.048656 0.067758
H85   H     H_    0.004391 0.685592 0.829401 0.140856
H86   H     H_    0.124793 0.413638 0.969275 0.114134
H87   H     H_    0.984351 0.675508 0.138491 0.099026
H88   H     H_    0.703374 0.000671 0.585541 0.136812
H89   H     H_    0.883139 0.347539 0.203793 0.148279
H90   H     H_    0.294660 0.002270 0.414352 0.126484
H91   H     H_    0.202327 0.497614 0.585796 0.140620
H92   H     H_    0.797426 0.500886 0.414093 0.137122
N1    N     N_R   0.433280 0.000000 0.657760 -0.213192
N2    N     N_R   0.566720 0.000000 0.342240 -0.215639
N3    N     N_R   0.933280 0.500000 0.657760 -0.214290
N4    N     N_R   0.066720 0.500000 0.342240 -0.214731
O1    O     O_R   0.600040 0.935040 0.546740 -0.612900
O2    O     O_R   0.444990 0.064930 0.346780 -0.572905
O3    O     O_R   0.444990 0.935070 0.346780 -0.574681
O4    O     O_R   0.555010 0.064930 0.653220 -0.568370
O5    O     O_R   0.055010 0.435070 0.653220 -0.572928
O6    O     O_R   0.944990 0.564930 0.346780 -0.564931
O7    O     O_R   0.944990 0.435070 0.346780 -0.570881
O8    O     O_R   0.055010 0.564930 0.653220 -0.570894
O9    O     O_2   0.381656 0.875241 0.884282 -0.546347
O10   O     O_2   0.650414 0.186057 0.183936 -0.550826
O11   O     O_2   0.622374 0.876827 0.120832 -0.546733
O12   O     O_R   0.399960 0.064960 0.453260 -0.605943
O13   O     O_2   0.357334 0.187786 0.827789 -0.548866
O14   O     O_2   0.907322 0.279256 0.881064 -0.525249
O15   O     O_2   0.046419 0.676066 0.024449 -0.608172
O16   O     O_2   0.117772 0.376390 0.119240 -0.569625
O17   O     O_2   0.820174 0.670298 0.792272 -0.541367
O18   O     O_2   0.258436 0.931849 0.994590 -0.541625
O19   O     O_2   0.516593 0.227798 0.733280 -0.510604
O20   O     O_2   0.740425 0.931909 0.006112 -0.541841
O21   O     O_2   0.483585 0.234284 0.274980 -0.533040
O22   O     O_2   0.787542 0.431899 0.016244 -0.544798
O23   O     O_R   0.399960 0.935040 0.453260 -0.609718
O24   O     O_2   0.021174 0.736156 0.733225 -0.524104
O25   O     O_2   0.231630 0.436136 0.004732 -0.554227
O26   O     O_2   0.978071 0.719206 0.251066 -0.510239
O27   O     O_2   0.785855 0.977752 0.567422 -0.581760
O28   O     O_2   0.220183 0.961927 0.436025 -0.564036
O29   O     O_2   0.288633 0.511080 0.572317 -0.595969
O30   O     O_2   0.712159 0.485130 0.429239 -0.598132
O31   O     O_R   0.600040 0.064960 0.546740 -0.611872
O32   O     O_R   0.100040 0.435040 0.546740 -0.615858
O33   O     O_R   0.899960 0.564960 0.453260 -0.609142
O34   O     O_R   0.899960 0.435040 0.453260 -0.613362
O35   O     O_R   0.100040 0.564960 0.546740 -0.605898
O36   O     O_R   0.555010 0.935070 0.653220 -0.576273

loop_
_geom_bond_atom_site_label_1
_geom_bond_atom_site_label_2
_ccdc_geom_bond_type
C125  C134  A    
Cu1   O3    S    
Cu2   N1    S    
C29   H41   S    
Cu1   N2    S    
C87   C91   A    
C83   O4    A    
C2    C18   S    
C67   N1    A    
C41   C42   S    
C9    C146  A    
C116  O34   A    
C84   C87   A    
Cu1   Cu2   S    
C38   H63   S    
C12   C48   S    
C3    C6    A    
C59   C77   A    
C31   H47   S    
C61   C96   S    
C58   C76   A    
C23   C56   S    
C99   C125  A    
C66   N4    A    
C42   H75   S    
C98   C124  A    
C30   H51   S    
C33   H53   S    
C26   C27   S    
C34   C102  S    
C32   C110  S    
C124  C133  A    
C106  C114  A    
C100  C126  A    
C37   H66   S    
C20   H30   S    
C28   C29   S    
C111  H6    S    
C85   C89   A    
C94   O32   A    
C83   O31   A    
C95   C112  A    
C128  C136  A    
C126  C135  A    
C19   O11   D    
Cu4   O5    S    
C123  C132  A    
C1    O1    A    
C11   C148  A    
C15   C50   S    
C14   C49   S    
C129  C146  A    
C88   C92   A    
C29   H42   S    
C83   C93   S    
C11   C24   A    
C132  C141  A    
C101  C128  A    
C8    C138  A    
C13   C144  A    
C127  O35   A    
C33   H54   S    
C70   H20   S    
C31   H48   S    
Cu4   N3    S    
C80   C86   A    
C131  C140  A    
C25   H35   S    
C128  H3    S    
Cu2   O12   S    
C134  C143  A    
C72   C95   S    
C68   H18   S    
C69   N3    A    
C45   O20   D    
C133  C142  A    
C41   H79   S    
C94   C101  S    
C61   O2    A    
C9    C44   S    
C59   C64   A    
C72   O23   A    
C22   H32   S    
Cu3   Cu4   S    
C8    C43   S    
C125  H89   S    
C17   C138  S    
C93   C120  A    
C52   O27   D    
C110  C145  A    
C121  C130  A    
C67   C71   A    
C136  C145  A    
C76   C89   A    
C16   C57   A    
C25   O17   D    
C17   H27   S    
C88   H34   S    
C11   C47   S    
C65   N3    A    
C18   H28   S    
C113  H8    S    
C70   N4    A    
C2    C143  A    
C38   H65   S    
C19   H29   S    
C102  C111  A    
C58   H22   S    
C100  C118  A    
C25   C57   S    
C105  O6    A    
C74   C82   A    
C30   H50   S    
C130  C139  A    
C73   C81   A    
C71   C80   A    
C55   C65   S    
Cu4   O34   S    
C109  C118  A    
C44   O19   D    
C47   H83   S    
C53   O28   D    
C124  H2    S    
Cu1   O1    S    
C5    C134  A    
C63   N1    A    
C12   C35   A    
C77   C90   A    
C39   H73   S    
C41   C106  S    
C62   C66   A    
C40   H71   S    
C127  O8    A    
C101  C119  A    
C20   C24   S    
C62   C79   A    
C39   C104  S    
C2    C9    A    
C45   H82   S    
C43   O18   D    
C49   H85   S    
C59   H24   S    
C86   C90   A    
C94   O5    A    
C119  H11   S    
Cu3   N4    S    
C23   H33   S    
C26   H40   S    
C43   H80   S    
C42   H74   S    
C13   C19   S    
Cu2   O36   S    
C30   C109  S    
C90   H15   S    
C68   N2    A    
C60   H25   S    
C29   H43   S    
C4    C147  A    
C6    C16   A    
C55   H92   S    
C10   C13   A    
C69   H21   S    
C28   H46   S    
C120  C129  A    
C32   C33   S    
C40   H70   S    
C103  C112  A    
C14   C46   A    
C102  C137  A    
C120  H56   S    
C75   C84   A    
C26   C107  S    
Cu3   O32   S    
C117  H9    S    
C37   C38   S    
C122  H78   S    
Cu3   O35   S    
C20   O13   D    
C99   C117  A    
C47   O21   D    
C105  O33   A    
Cu2   O23   S    
C56   C140  A    
C50   H86   S    
C92   H17   S    
C26   H39   S    
C60   C78   A    
C10   C45   S    
C100  C105  S    
C31   H49   S    
C64   N2    A    
C131  C148  A    
C85   H1    S    
C53   H90   S    
C107  C142  A    
C121  H45   S    
C79   C92   A    
C48   H84   S    
C5    C12   A    
Cu3   O6    S    
C54   C66   S    
C98   C127  S    
C27   H38   S    
C36   H60   S    
C60   C65   A    
C54   O29   D    
C82   C84   A    
C138  C142  A    
C103  C139  A    
Cu1   O2    S    
C96   C113  A    
C4    C133  A    
C6    C135  A    
C86   H12   S    
C1    C97   S    
C122  C131  A    
C99   C116  S    
C80   C81   A    
Cu4   O33   S    
C34   H62   S    
C106  C141  A    
Cu3   O7    S    
C7    C148  A    
C58   C63   A    
C21   H31   S    
C123  H67   S    
C39   C40   S    
C135  C144  A    
C16   C51   S    
C32   H55   S    
C5    C146  A    
C33   H52   S    
C51   O26   D    
C22   C46   S    
C130  C147  A    
C108  C117  A    
C38   H64   S    
C91   H16   S    
C34   H61   S    
C110  C119  A    
C62   H26   S    
C1    O36   A    
C37   C103  S    
C3    C132  A    
Cu2   O4    S    
C21   C35   S    
C42   H76   S    
C78   C91   A    
C87   H23   S    
C118  H13   S    
C52   C64   S    
C57   C141  A    
C40   H69   S    
C24   C145  A    
C67   H19   S    
C54   H91   S    
C115  H10   S    
C68   C73   A    
C7    C136  A    
C93   C111  A    
C3    C10   A    
C41   H77   S    
C22   O15   D    
C35   C137  A    
C32   H57   S    
C53   C63   S    
C95   C121  A    
C98   C115  A    
C30   C31   S    
C75   C79   A    
C23   O16   D    
C28   C108  S    
C82   C88   A    
C50   O25   D    
C7    C15   A    
Cu4   O8    S    
C28   H44   S    
C107  C115  A    
C109  C144  A    
C34   C36   S    
C27   H36   S    
Cu1   O31   S    
C72   O3    A    
C4    C14   A    
C96   C122  A    
C39   H72   S    
C15   C56   A    
C114  H7    S    
C18   O10   D    
C52   H88   S    
C36   H59   S    
C48   O22   D    
C104  C113  A    
C8    C147  A    
C49   O24   D    
C71   C76   A    
C21   O14   D    
C129  C137  A    
C55   O30   D    
C97   C123  A    
C74   C78   A    
C36   H58   S    
C70   C75   A    
C73   C77   A    
C69   C74   A    
C112  H5    S    
C51   H87   S    
C27   H37   S    
C61   O12   A    
C97   C114  A    
C44   H81   S    
C89   H14   S    
C17   O9    D    
C108  C143  A    
C81   C85   A    
C37   H68   S    
C104  C140  A    
C46   C139  A    
C116  O7    A    
C126  H4    S    
