data_str_m4_o1_o14_f0_acs.sym.164
_audit_creation_date              2012-12-11T14:44:06-0500
_audit_creation_method            fapswitch 2.2
_symmetry_space_group_name_H-M    P1
_symmetry_Int_Tables_number       1
_space_group_crystal_system       triclinic
_cell_length_a                    18.966063
_cell_length_b                    11.066991
_cell_length_c                    18.852973
_cell_angle_alpha                 90.126086
_cell_angle_beta                  89.868262
_cell_angle_gamma                 89.995046
_cell_volume                      3957.16710091

loop_
_atom_site_label
_atom_site_type_symbol
_atom_type_description
_atom_site_fract_x
_atom_site_fract_y
_atom_site_fract_z
_atom_type_partial_charge
C1    C     C_R   0.731007 0.380443 0.146775 0.540868
C2    C     C_R   0.268977 0.380596 0.853201 0.543915
C3    C     C_R   0.231008 0.880445 0.146775 0.540852
C4    C     C_R   0.768978 0.880592 0.853202 0.543934
C5    C     C_R   0.508185 0.385842 0.927020 -0.106525
C6    C     C_R   0.491893 0.385980 0.073512 -0.106279
C7    C     C_R   0.008196 0.885837 0.927013 -0.106522
C8    C     C_R   0.991907 0.885986 0.073505 -0.106281
C9    C     C_R   0.002790 0.995130 0.963170 -0.020057
C10   C     C_R   0.997430 0.995218 0.037535 -0.019847
C11   C     C_R   0.502780 0.495133 0.963180 -0.020066
C12   C     C_R   0.497417 0.495214 0.037545 -0.019834
C13   C     C_R   0.675237 0.959949 0.024825 -0.124880
C14   C     C_R   0.324662 0.959486 0.975163 -0.124215
C15   C     C_R   0.175237 0.459943 0.024824 -0.124834
C16   C     C_R   0.824658 0.459483 0.975164 -0.124252
C17   C     C_R   0.682334 0.929312 0.952698 -0.110466
C18   C     C_R   0.317582 0.929021 0.047262 -0.110954
C19   C     C_R   0.182333 0.429309 0.952696 -0.110450
C20   C     C_R   0.817580 0.429024 0.047263 -0.110977
C21   C     C_R   0.747582 0.941978 0.919639 -0.002071
C22   C     C_R   0.252338 0.941605 0.080352 -0.002728
C23   C     C_R   0.247576 0.441995 0.919633 -0.002098
C24   C     C_R   0.752331 0.441591 0.080348 -0.002699
C25   C     C_R   0.798311 0.013328 0.952959 -0.109826
C26   C     C_R   0.201584 0.012888 0.047144 -0.109899
C27   C     C_R   0.298296 0.513372 0.952946 -0.109824
C28   C     C_R   0.701569 0.512849 0.047134 -0.109903
C29   C     C_R   0.789904 0.057018 0.021433 0.034959
C30   C     C_R   0.210059 0.056711 0.978801 0.034917
C31   C     C_R   0.289895 0.557043 0.021426 0.034966
C32   C     C_R   0.710049 0.556689 0.978798 0.034900
C33   C     C_R   0.731196 0.014193 0.062114 -0.018046
C34   C     C_R   0.268725 0.013863 0.937989 -0.018510
C35   C     C_R   0.231194 0.514198 0.062112 -0.018058
C36   C     C_R   0.768720 0.513852 0.937988 -0.018494
C37   C     C_R   0.478383 0.065380 0.456259 -0.120152
C38   C     C_R   0.471986 0.061186 0.528548 -0.118913
C39   C     C_R   0.978382 0.565380 0.456259 -0.120152
C40   C     C_R   0.971985 0.561186 0.528548 -0.118912
C41   C     C_R   0.482292 0.165177 0.569764 -0.006308
C42   C     C_R   0.501096 0.171123 0.423411 -0.007003
C43   C     C_R   0.982291 0.665177 0.569764 -0.006307
C44   C     C_R   0.001095 0.671123 0.423411 -0.007003
C45   C     C_R   0.531572 0.155141 0.146789 0.521356
C46   C     C_R   0.468412 0.155227 0.853235 0.526012
C47   C     C_R   0.031573 0.655141 0.146788 0.521358
C48   C     C_R   0.968413 0.655226 0.853234 0.526012
C49   C     C_R   0.496231 0.276880 0.536566 -0.051030
C50   C     C_R   0.507404 0.279723 0.463294 -0.050049
C51   C     C_R   0.996231 0.776880 0.536566 -0.051031
C52   C     C_R   0.007404 0.779723 0.463294 -0.050049
C53   C     C_R   0.808254 0.982351 0.468085 -0.060822
C54   C     C_R   0.202651 0.007879 0.526755 -0.057609
C55   C     C_R   0.308254 0.482351 0.468085 -0.060822
C56   C     C_R   0.702651 0.507878 0.526755 -0.057609
C57   C     C_R   0.808194 0.977469 0.540413 -0.116757
C58   C     C_R   0.207641 0.003721 0.454266 -0.136094
C59   C     C_R   0.308194 0.477470 0.540413 -0.116757
C60   C     C_R   0.707641 0.503721 0.454267 -0.136094
C61   C     C_R   0.753996 0.920492 0.577228 -0.008286
C62   C     C_R   0.251464 0.920975 0.421457 -0.021129
C63   C     C_R   0.253996 0.420492 0.577228 -0.008286
C64   C     C_R   0.751464 0.420975 0.421457 -0.021129
C65   C     C_R   0.695404 0.877372 0.541159 -0.142189
C66   C     C_R   0.299542 0.853956 0.461566 -0.147086
C67   C     C_R   0.195404 0.377372 0.541159 -0.142189
C68   C     C_R   0.799542 0.353956 0.461566 -0.147086
C69   C     C_R   0.693709 0.878131 0.467122 0.017894
C70   C     C_R   0.299019 0.860890 0.535530 0.015872
C71   C     C_R   0.193709 0.378132 0.467122 0.017894
C72   C     C_R   0.799019 0.360889 0.535530 0.015871
C73   C     C_R   0.750140 0.934649 0.429346 -0.018958
C74   C     C_R   0.250356 0.939893 0.569279 -0.012576
C75   C     C_R   0.250140 0.434649 0.429346 -0.018958
C76   C     C_R   0.750356 0.439893 0.569279 -0.012576
C77   C     C_R   0.727026 0.025303 0.140662 0.559826
C78   C     C_R   0.272925 0.025240 0.859443 0.560263
C79   C     C_R   0.227026 0.525306 0.140662 0.559821
C80   C     C_R   0.772924 0.525235 0.859443 0.560275
C81   C     C_R   0.730929 0.379953 0.351359 0.551677
C82   C     C_R   0.269818 0.380137 0.648471 0.557917
C83   C     C_R   0.230930 0.879953 0.351359 0.551676
C84   C     C_R   0.769818 0.880137 0.648471 0.557917
C85   C     C_R   0.531995 0.158060 0.353094 0.538902
C86   C     C_R   0.463864 0.156625 0.644496 0.542534
C87   C     C_R   0.031995 0.658060 0.353094 0.538902
C88   C     C_R   0.963864 0.656625 0.644496 0.542533
C89   C     C_R   0.741208 0.973070 0.355423 0.561332
C90   C     C_R   0.258854 0.974276 0.644093 0.570057
C91   C     C_R   0.241208 0.473070 0.355423 0.561332
C92   C     C_R   0.758854 0.474276 0.644093 0.570056
C93   C     C_R   0.497092 0.163161 0.925542 0.012509
C94   C     C_R   0.502839 0.163102 0.074525 0.012670
C95   C     C_R   0.997097 0.663160 0.925539 0.012511
C96   C     C_R   0.002845 0.663104 0.074522 0.012668
C97   C     C_R   0.501622 0.274533 0.962641 0.007954
C98   C     C_R   0.498358 0.274550 0.037676 0.008720
C99   C     C_R   0.001631 0.774532 0.962637 0.007949
C100  C     C_R   0.998369 0.774552 0.037672 0.008723
C101  C     C_R   0.499957 0.054713 0.036317 -0.175607
C102  C     C_R   0.499961 0.054737 0.963496 -0.175117
C103  C     C_R   0.999961 0.554714 0.036315 -0.175612
C104  C     C_R   0.999965 0.554736 0.963494 -0.175110
Cr1   Cr    Cr6+3 0.772000 0.169640 0.250110 1.091760
Cr2   Cr    Cr6+3 0.228000 0.169640 0.749890 1.098171
Cr3   Cr    Cr6+3 0.272000 0.669640 0.250110 1.091758
Cr4   Cr    Cr6+3 0.728000 0.669640 0.749890 1.098174
Cr5   Cr    Cr6+3 0.614960 0.323350 0.249260 1.059489
Cr6   Cr    Cr6+3 0.385040 0.323350 0.750740 1.059751
Cr7   Cr    Cr6+3 0.114960 0.823350 0.249260 1.059486
Cr8   Cr    Cr6+3 0.885040 0.823350 0.750740 1.059755
Cr9   Cr    Cr6+3 0.616670 0.010620 0.250840 1.096442
Cr10  Cr    Cr6+3 0.383330 0.010620 0.749160 1.090684
Cr11  Cr    Cr6+3 0.116670 0.510620 0.250840 1.096441
Cr12  Cr    Cr6+3 0.883330 0.510620 0.749160 1.090686
H1    H     H_    0.501471 0.967738 0.062539 0.148911
H2    H     H_    0.498463 0.967745 0.937071 0.149758
H3    H     H_    0.001473 0.467740 0.062537 0.148917
H4    H     H_    0.998464 0.467744 0.937070 0.149752
H5    H     H_    0.853654 0.013643 0.567975 0.191980
H6    H     H_    0.171424 0.056578 0.423031 0.207870
H7    H     H_    0.353654 0.513643 0.567975 0.191980
H8    H     H_    0.671424 0.556578 0.423031 0.207870
H9    H     H_    0.652846 0.837895 0.571107 0.189360
H10   H     H_    0.333598 0.789330 0.435552 0.180496
H11   H     H_    0.152846 0.337895 0.571107 0.189360
H12   H     H_    0.833598 0.289329 0.435552 0.180496
H13   H     H_    0.519211 0.389734 0.870794 0.156900
H14   H     H_    0.480874 0.390028 0.129746 0.155055
H15   H     H_    0.019221 0.889725 0.870787 0.156905
H16   H     H_    0.980889 0.890041 0.129739 0.155057
H17   H     H_    0.626904 0.938174 0.052239 0.165851
H18   H     H_    0.373001 0.937600 0.947719 0.166065
H19   H     H_    0.126908 0.438153 0.052241 0.165892
H20   H     H_    0.873000 0.437605 0.947722 0.166029
H21   H     H_    0.638552 0.891452 0.923835 0.167868
H22   H     H_    0.361382 0.891412 0.076114 0.166930
H23   H     H_    0.138554 0.391431 0.923835 0.167865
H24   H     H_    0.861383 0.391433 0.076117 0.166917
H25   H     H_    0.847039 0.033743 0.925574 0.195680
H26   H     H_    0.152842 0.033358 0.074546 0.195307
H27   H     H_    0.347016 0.533814 0.925552 0.195687
H28   H     H_    0.652820 0.533294 0.074528 0.195308
H29   H     H_    0.470064 0.982745 0.426520 0.179044
H30   H     H_    0.457066 0.975754 0.551849 0.207103
H31   H     H_    0.970063 0.482745 0.426519 0.179043
H32   H     H_    0.957064 0.475755 0.551849 0.207102
O1    O     O_R   0.787540 0.042690 0.170470 -0.453834
O2    O     O_R   0.212460 0.042690 0.829530 -0.450906
O3    O     O_R   0.287540 0.542690 0.170470 -0.453817
O4    O     O_R   0.712460 0.542690 0.829530 -0.450933
O5    O     O_R   0.556540 0.252920 0.323970 -0.493400
O6    O     O_R   0.443460 0.252920 0.676030 -0.489901
O7    O     O_R   0.056540 0.752920 0.323970 -0.493399
O8    O     O_R   0.943460 0.752920 0.676030 -0.489902
O9    O     O_R   0.545870 0.051100 0.330840 -0.502584
O10   O     O_R   0.454130 0.051100 0.669160 -0.511501
O11   O     O_R   0.045870 0.551100 0.330840 -0.502583
O12   O     O_R   0.954130 0.551100 0.669160 -0.511501
O13   O     O_R   0.681340 0.959300 0.325510 -0.452152
O14   O     O_R   0.318660 0.959300 0.674490 -0.464284
O15   O     O_R   0.181340 0.459300 0.325510 -0.452153
O16   O     O_R   0.818660 0.459300 0.674490 -0.464284
O17   O     O_3   0.667880 0.167870 0.250070 -0.304957
O18   O     O_3   0.332120 0.167870 0.749930 -0.309446
O19   O     O_3   0.167880 0.667870 0.250070 -0.304957
O20   O     O_3   0.832120 0.667870 0.749930 -0.309446
O21   O     O_R   0.765660 0.292160 0.175050 -0.472329
O22   O     O_R   0.234340 0.292160 0.824950 -0.471830
O23   O     O_R   0.265660 0.792160 0.175050 -0.472357
O24   O     O_R   0.734340 0.792160 0.824950 -0.471784
O25   O     O_R   0.670190 0.408980 0.168550 -0.524136
O26   O     O_R   0.329810 0.408980 0.831450 -0.522220
O27   O     O_R   0.170190 0.908980 0.168550 -0.524130
O28   O     O_R   0.829810 0.908980 0.831450 -0.522226
O29   O     O_R   0.556580 0.251450 0.175160 -0.517560
O30   O     O_R   0.443420 0.251450 0.824840 -0.515321
O31   O     O_R   0.056580 0.751450 0.175160 -0.517559
O32   O     O_R   0.943420 0.751450 0.824840 -0.515325
O33   O     O_R   0.545920 0.049510 0.170320 -0.520625
O34   O     O_R   0.454080 0.049510 0.829680 -0.518343
O35   O     O_R   0.045920 0.549510 0.170320 -0.520624
O36   O     O_R   0.954080 0.549510 0.829680 -0.518343
O37   O     O_R   0.681390 0.957840 0.176710 -0.480715
O38   O     O_R   0.318610 0.957840 0.823290 -0.477847
O39   O     O_R   0.181390 0.457840 0.176710 -0.480716
O40   O     O_R   0.818610 0.457840 0.823290 -0.477847
O41   O     O_R   0.787500 0.044280 0.330990 -0.509095
O42   O     O_R   0.212500 0.044280 0.669010 -0.504847
O43   O     O_R   0.287500 0.544280 0.330990 -0.509094
O44   O     O_R   0.712500 0.544280 0.669010 -0.504849
O45   O     O_R   0.765610 0.293630 0.323860 -0.509106
O46   O     O_R   0.234390 0.293630 0.676140 -0.506435
O47   O     O_R   0.265610 0.793630 0.323860 -0.509105
O48   O     O_R   0.734390 0.793630 0.676140 -0.506436
O49   O     O_R   0.670140 0.410570 0.329080 -0.485179
O50   O     O_R   0.329860 0.410570 0.670920 -0.493566
O51   O     O_R   0.170140 0.910570 0.329080 -0.485180
O52   O     O_R   0.829860 0.910570 0.670920 -0.493565
C105  C     C_1   0.868007 0.044591 0.437262 0.245476
N1    N     N_1   0.914630 0.096921 0.412376 -0.246587
C106  C     C_1   0.145221 0.080147 0.554096 0.256355
N2    N     N_1   0.099124 0.137604 0.575993 -0.233600
C107  C     C_1   0.368007 0.544591 0.437262 0.245476
N3    N     N_1   0.414629 0.596921 0.412376 -0.246587
C108  C     C_1   0.645221 0.580147 0.554097 0.256355
N4    N     N_1   0.599124 0.637604 0.575993 -0.233601
C109  C     C_2   0.633184 0.816106 0.432660 0.586717
O53   O     O_2   0.641685 0.758632 0.377846 -0.503628
O54   O     O_R   0.566795 0.818624 0.464964 -0.686385
H33   H     H_    0.530233 0.771032 0.437460 0.370582
C110  C     C_2   0.346661 0.778901 0.575047 0.560944
O55   O     O_2   0.326898 0.731379 0.630135 -0.495737
O56   O     O_R   0.413641 0.753089 0.547934 -0.708491
H34   H     H_    0.441708 0.697829 0.579978 0.370333
C111  C     C_2   0.133183 0.316106 0.432660 0.586717
O57   O     O_2   0.141684 0.258632 0.377846 -0.503629
O58   O     O_R   0.066794 0.318625 0.464964 -0.686385
H35   H     H_    0.030233 0.271033 0.437460 0.370582
C112  C     C_2   0.846661 0.278900 0.575047 0.560944
O59   O     O_2   0.826898 0.231379 0.630135 -0.495735
O60   O     O_R   0.913641 0.253089 0.547934 -0.708491
H36   H     H_    0.941708 0.197828 0.579978 0.370333
C113  C     C_1   0.997431 0.103468 0.921113 0.254972
N5    N     N_1   0.992438 0.189225 0.886382 -0.249307
C114  C     C_1   0.002898 0.103688 0.079741 0.254362
N6    N     N_1   0.007964 0.189577 0.114569 -0.249554
C115  C     C_1   0.497432 0.603477 0.921127 0.254905
N7    N     N_1   0.492447 0.689240 0.886399 -0.249345
C116  C     C_1   0.502888 0.603679 0.079756 0.254423
N8    N     N_1   0.507956 0.689563 0.114588 -0.249520
C117  C     C_2   0.843733 0.149369 0.041574 0.546497
O61   O     O_2   0.859476 0.171735 0.102607 -0.478221
O62   O     O_R   0.879019 0.210879 0.987469 -0.727770
H37   H     H_    0.919558 0.262267 0.005195 0.320974
C118  C     C_2   0.156454 0.149427 0.958932 0.545743
O63   O     O_2   0.140791 0.171911 0.897955 -0.478288
O64   O     O_R   0.121288 0.211126 0.013204 -0.727818
H38   H     H_    0.080791 0.262610 0.995609 0.321045
C119  C     C_2   0.343729 0.649380 0.041576 0.546492
O65   O     O_2   0.359492 0.671690 0.102607 -0.478230
O66   O     O_R   0.379006 0.710922 0.987476 -0.727800
H39   H     H_    0.419568 0.762250 0.005200 0.320983
C120  C     C_2   0.656452 0.649425 0.958938 0.545756
O67   O     O_2   0.640821 0.671983 0.897960 -0.478284
O68   O     O_R   0.621266 0.711079 0.013214 -0.727795
H40   H     H_    0.580793 0.762623 0.995618 0.321041
C121  C     C_1   0.496419 0.388610 0.576814 0.228557
N9    N     N_1   0.494728 0.476237 0.610243 -0.259713
C122  C     C_1   0.527794 0.393204 0.431022 0.244357
N10   N     N_1   0.544397 0.483502 0.405167 -0.230342
C123  C     C_1   0.996419 0.888610 0.576814 0.228557
N11   N     N_1   0.994729 0.976237 0.610244 -0.259710
C124  C     C_1   0.027794 0.893204 0.431022 0.244357
N12   N     N_1   0.044397 0.983502 0.405167 -0.230343

loop_
_geom_bond_atom_site_label_1
_geom_bond_atom_site_label_2
_ccdc_geom_bond_type
C58   C62   A    
C71   C75   A    
C106  N2    T    
C101  C102  A    
C56   C76   A    
C48   C95   S    
C55   C59   A    
Cr6   O50   S    
C77   O37   A    
C105  N1    T    
C14   C18   A    
Cr5   O49   S    
O64   H38   S    
C48   O32   A    
C72   C76   A    
C43   C51   A    
Cr3   O47   S    
C97   C98   A    
C45   O33   A    
C122  N10   T    
Cr2   O46   S    
Cr3   O23   S    
C110  O55   D    
C84   O52   A    
C15   C19   A    
C41   C86   S    
Cr12  O40   S    
C26   H26   S    
C1    O25   A    
C121  N9    T    
C37   C38   A    
C79   O39   A    
Cr1   O21   S    
C90   O14   A    
Cr7   O27   S    
C43   C88   S    
Cr2   O18   S    
C46   C93   S    
C17   H21   S    
C52   C124  S    
Cr12  O12   S    
C83   O47   A    
C81   O49   A    
C123  N11   T    
Cr5   O25   S    
Cr10  O14   S    
C15   H19   S    
C94   C98   A    
C95   C99   A    
O66   H39   S    
Cr8   O20   S    
C29   C33   A    
C25   C29   A    
C7    C9    A    
C119  O65   D    
C4    O28   A    
C41   C49   A    
C37   C42   A    
C18   H22   S    
C46   O30   A    
C53   C73   A    
Cr10  O10   S    
C47   O31   A    
C6    H14   S    
Cr7   O51   S    
C54   C74   A    
C76   C92   S    
C40   C43   A    
Cr9   O33   S    
C38   H30   S    
O60   H36   S    
C94   C101  A    
Cr1   O17   S    
C90   O42   A    
C8    H16   S    
C27   H27   S    
O62   H37   S    
C69   C73   A    
C78   O38   A    
C23   C27   A    
Cr4   O48   S    
C44   C87   S    
Cr5   O5    S    
C117  O61   D    
C68   H12   S    
C7    H15   S    
C102  H2    S    
C68   C72   A    
Cr8   O32   S    
C55   C75   A    
C44   C52   A    
C110  O56   S    
Cr4   O20   S    
Cr7   O7    S    
C11   C115  S    
Cr4   O4    S    
C118  O63   D    
Cr7   O31   S    
Cr2   O22   S    
C91   O15   A    
C1    O21   A    
C85   O9    A    
C92   O44   A    
C45   C94   S    
C89   O13   A    
C31   C119  S    
Cr10  O18   S    
Cr3   O19   S    
Cr6   O26   S    
C59   H7    S    
C55   C107  S    
C63   C67   A    
C75   C91   S    
C58   H6    S    
C82   O46   A    
C30   C34   A    
C63   C82   S    
C27   C31   A    
C108  N4    T    
C6    C98   A    
C20   C24   A    
C28   C32   A    
C86   O10   A    
C38   C41   A    
C109  O53   D    
C36   C80   S    
C47   C96   S    
C77   O1    A    
O58   H35   S    
C48   O36   A    
C82   O50   A    
C62   C66   A    
C19   C23   A    
C14   H18   S    
Cr2   O2    S    
C111  O57   D    
C107  N3    T    
Cr9   O13   S    
C53   C105  S    
C56   C60   A    
Cr11  O11   S    
C119  O66   S    
C62   C83   S    
C65   H9    S    
C7    C99   A    
Cr1   O45   S    
O56   H34   S    
C73   C89   S    
O54   H33   S    
C70   C74   A    
C115  N7    T    
Cr6   O6    S    
C67   H11   S    
C112  O59   D    
Cr11  O39   S    
C93   C97   A    
C114  N6    T    
C46   O34   A    
C16   C20   A    
Cr9   O37   S    
C2    C23   S    
C54   C58   A    
C113  N5    T    
C80   O40   A    
C25   H25   S    
C42   C85   S    
C85   O5    A    
C57   H5    S    
C117  O62   S    
C29   C117  S    
C37   H29   S    
Cr5   O17   S    
C2    O22   A    
C28   H28   S    
C47   O35   A    
C116  N8    T    
C42   C50   A    
C26   C30   A    
C120  O68   S    
C5    C11   A    
Cr8   O8    S    
C10   C114  S    
C49   C50   A    
C31   C35   A    
C35   C79   S    
C69   C109  S    
Cr2   O42   S    
C30   C118  S    
C83   O51   A    
C124  N12   T    
C51   C123  S    
C64   C68   A    
C20   H24   S    
C39   C40   A    
C95   C104  A    
C78   O2    A    
C12   C116  S    
C79   O3    A    
C9    C10   A    
C3    O27   A    
C80   O4    A    
C21   C25   A    
C40   H32   S    
C53   C57   A    
C4    O24   A    
Cr8   O28   S    
C18   C22   A    
C70   C110  S    
C13   H17   S    
Cr12  O16   S    
C103  H3    S    
C24   C28   A    
Cr9   O17   S    
C5    C97   A    
C61   C84   S    
C71   C111  S    
C93   C102  A    
C14   C34   A    
Cr11  O35   S    
C11   C12   A    
C32   C36   A    
C57   C61   A    
C39   C44   A    
C87   O7    A    
C45   O29   A    
C111  O58   S    
Cr8   O52   S    
Cr1   O1    S    
Cr12  O36   S    
C59   C63   A    
Cr10  O38   S    
C99   C100  A    
C13   C17   A    
C32   C120  S    
C60   C64   A    
C101  H1    S    
C74   C90   S    
C118  O64   S    
C92   O16   A    
C86   O6    A    
C66   H10   S    
Cr3   O3    S    
C51   C52   A    
C112  O60   S    
Cr10  O34   S    
C89   O41   A    
C16   C36   A    
C6    C12   A    
C4    C21   S    
Cr6   O18   S    
C3    O23   A    
C8    C100  A    
C66   C70   A    
C56   C108  S    
C91   O43   A    
C84   O48   A    
Cr4   O24   S    
C65   C69   A    
C72   C112  S    
C96   C100  A    
C5    H13   S    
C109  O54   S    
Cr1   O41   S    
C87   O11   A    
C67   C71   A    
C88   O12   A    
C61   C65   A    
Cr11  O15   S    
C17   C21   A    
C64   C81   S    
C15   C35   A    
C2    O26   A    
C81   O45   A    
Cr3   O43   S    
Cr5   O29   S    
Cr7   O19   S    
C1    C24   S    
C8    C10   A    
C13   C33   A    
C22   C26   A    
C96   C103  A    
C39   H31   S    
C103  C104  A    
C60   H8    S    
Cr6   O30   S    
Cr12  O20   S    
C3    C22   S    
C9    C113  S    
C88   O8    A    
C49   C121  S    
Cr9   O9    S    
C120  O67   D    
Cr11  O19   S    
C33   C77   S    
C19   H23   S    
C34   C78   S    
C50   C122  S    
C54   C106  S    
O68   H40   S    
C104  H4    S    
Cr4   O44   S    
C16   H20   S    
