data_str_m2_o16_o18_f0_pcu.sym.96
_audit_creation_date              2012-12-10T17:33:05-0500
_audit_creation_method            fapswitch 2.2
_symmetry_space_group_name_H-M    P1
_symmetry_Int_Tables_number       1
_space_group_crystal_system       triclinic
_cell_length_a                    12.427554
_cell_length_b                    13.166144
_cell_length_c                    14.359979
_cell_angle_alpha                 92.852088
_cell_angle_beta                  108.672281
_cell_angle_gamma                 117.551037
_cell_volume                      1917.99799463

loop_
_atom_site_label
_atom_site_type_symbol
_atom_type_description
_atom_site_fract_x
_atom_site_fract_y
_atom_site_fract_z
_atom_type_partial_charge
C1    C     C_R   0.654839 0.715672 0.514715 0.864935
C2    C     C_R   0.819865 0.451791 0.905563 -0.033402
C3    C     C_R   0.737767 0.409585 0.960902 -0.062399
C4    C     C_R   0.939128 0.449787 0.934887 0.042376
C5    C     C_R   0.988648 0.427101 0.029899 0.007264
C6    C     C_R   0.904639 0.380060 0.082720 0.264745
C7    C     C_R   0.784461 0.379925 0.052705 0.375613
C8    C     C_R   0.006615 0.462574 0.869270 -0.079039
C9    C     C_R   0.123798 0.461284 0.899609 -0.087205
C10   C     C_R   0.182326 0.456209 0.998384 0.057845
C11   C     C_R   0.118641 0.445594 0.066000 0.123850
C12   C     C_R   0.614529 0.510806 0.685575 0.849712
C13   C     C_R   0.305145 0.463993 0.030934 -0.145985
C14   C     C_R   0.369664 0.467819 0.131550 0.459958
C15   C     C_R   0.190479 0.462394 0.169041 -0.179866
C16   C     C_R   0.080950 0.992608 0.317874 -0.066380
C17   C     C_R   0.243900 0.160741 0.456633 -0.129706
C18   C     C_R   0.772651 0.918920 0.616963 -0.249882
C19   C     C_R   0.871410 0.036676 0.644483 0.334483
C20   C     C_R   0.956316 0.077533 0.591804 0.458861
C21   C     C_R   0.942824 0.995963 0.513667 -0.031797
C22   C     C_R   0.824475 0.885392 0.473091 -0.117227
C23   C     C_R   0.345409 0.284904 0.485490 0.864786
C24   C     C_R   0.035525 0.024906 0.467159 -0.023812
C25   C     C_R   0.994886 0.957567 0.369155 -0.017917
C26   C     C_R   0.867862 0.859009 0.321628 0.378366
C27   C     C_R   0.781254 0.825632 0.372379 0.296259
C28   C     C_R   0.168329 0.117350 0.514643 0.449640
C29   C     C_R   0.201804 0.096344 0.359472 -0.252182
C30   C     C_R   0.747841 0.842455 0.531744 -0.094704
C31   C     C_R   0.253753 0.660953 0.683302 0.339629
C32   C     C_R   0.649605 0.333545 0.369477 0.546580
C33   C     C_R   0.721738 0.279272 0.359004 0.098824
C34   C     C_R   0.380915 0.482674 0.312693 0.911455
C35   C     C_R   0.853777 0.329080 0.426194 0.441870
C36   C     C_R   0.922470 0.446149 0.484203 -0.057650
C37   C     C_R   0.843209 0.490539 0.500198 0.050418
C38   C     C_R   0.064751 0.515356 0.535760 -0.121838
C39   C     C_R   0.118957 0.608491 0.621147 -0.193807
C40   C     C_R   0.036687 0.646475 0.640016 0.374388
C41   C     C_R   0.903562 0.589370 0.579213 -0.183069
C42   C     C_R   0.156042 0.501473 0.502602 0.540373
C43   C     C_R   0.337748 0.641916 0.649213 0.457234
C44   C     C_R   0.659521 0.488975 0.786378 -0.116344
C45   C     C_R   0.313930 0.470909 0.203179 -0.168743
C46   C     C_R   0.610131 0.396590 0.921512 0.378601
C47   C     C_R   0.573356 0.440826 0.836414 0.357791
C48   C     C_R   0.781484 0.496305 0.822316 -0.255763
Cu1   Cu    Cu3+1 0.416420 0.526630 0.522910 1.068295
Cu2   Cu    Cu3+1 0.583580 0.473370 0.477090 1.034444
H1    H     H_    0.352161 0.468765 0.978226 0.178023
H2    H     H_    0.259538 0.129123 0.313862 0.192228
H3    H     H_    0.051874 0.944422 0.242530 0.216133
H4    H     H_    0.714603 0.887067 0.662476 0.197609
H5    H     H_    0.153057 0.474611 0.223877 0.252313
H6    H     H_    0.849432 0.624119 0.598541 0.214450
H7    H     H_    0.171000 0.468455 0.846532 0.165509
H8    H     H_    0.846269 0.538668 0.783803 0.182560
H9    H     H_    0.967213 0.466991 0.791794 0.146205
N1    N     N_R   0.290690 0.566960 0.557640 -0.298895
N2    N     N_R   0.709100 0.433710 0.442970 -0.216799
O1    O     O_R   0.545970 0.684450 0.528810 -0.612923
O2    O     O_R   0.687130 0.639470 0.490120 -0.577988
O3    O     O_R   0.519670 0.535100 0.660030 -0.510897
O4    O     O_R   0.660830 0.490120 0.621340 -0.625856
O5    O     O_R   0.312870 0.360530 0.509880 -0.502883
O6    O     O_R   0.454030 0.315550 0.471190 -0.562079
O7    O     O_R   0.339170 0.509880 0.378660 -0.545980
O8    O     O_R   0.480330 0.464900 0.339970 -0.473878
O9    O     O_3   0.716347 0.358036 0.115705 -0.635097
H10   H     H_    0.779046 0.379798 0.186632 0.338174
O10   O     O_3   0.829979 0.799411 0.224385 -0.687067
H11   H     H_    0.752497 0.720052 0.209052 0.398002
Cl1   Cl    Cl    0.254125 0.161566 0.647832 -0.466030
O11   O     O_3   0.042251 0.196596 0.606779 -0.644196
H12   H     H_    0.033558 0.243822 0.656527 0.370132
Cl2   Cl    Cl    0.888152 0.128399 0.748276 -0.567413
Cl3   Cl    Cl    0.610737 0.736697 0.299461 -0.588489
O12   O     O_3   0.467882 0.697393 0.713742 -0.635676
H13   H     H_    0.521155 0.720508 0.672770 0.349730
Cl4   Cl    Cl    0.093581 0.777282 0.727186 -0.484783
Cl5   Cl    Cl    0.322450 0.739705 0.810629 -0.407202
Cl6   Cl    Cl    0.098531 0.411284 0.383650 -0.537120
O13   O     O_3   0.516376 0.281824 0.313753 -0.654810
H14   H     H_    0.477352 0.195438 0.293719 0.318595
O14   O     O_3   0.912246 0.260825 0.444995 -0.639118
H15   H     H_    0.848481 0.178220 0.406178 0.384766
O15   O     O_3   0.665998 0.177046 0.286721 -0.703299
H16   H     H_    0.599132 0.176862 0.226220 0.378465
Cl7   Cl    Cl    0.523225 0.476003 0.162574 -0.476816
Cl8   Cl    Cl    0.484767 0.302469 0.961432 -0.413923
O16   O     O_3   0.450749 0.430630 0.796140 -0.636545
H17   H     H_    0.412376 0.420173 0.847902 0.361380
O17   O     O_3   0.933724 0.321477 0.155405 -0.680439
H18   H     H_    0.851662 0.262678 0.161626 0.382049

loop_
_geom_bond_atom_site_label_1
_geom_bond_atom_site_label_2
_ccdc_geom_bond_type
Cu1   O7    S    
C26   O10   S    
C47   O16   S    
C19   C20   A    
C4    C8    A    
C27   Cl3   S    
C28   Cl1   S    
C1    O1    A    
C7    O9    S    
C26   C27   A    
C17   C23   S    
C31   Cl5   S    
C31   C43   A    
C23   O5    A    
C1    C30   S    
C36   C37   A    
C33   O15   S    
C32   N2    A    
C5    C11   A    
C3    C7    A    
C8    H9    S    
C5    C6    A    
C12   O3    A    
C35   O14   S    
C43   O12   S    
C17   C29   A    
C18   C19   A    
C23   O6    A    
C19   Cl2   S    
C16   H3    S    
C14   Cl7   S    
C13   H1    S    
C11   C15   A    
C35   C36   A    
C8    C9    A    
C6    O17   S    
O9    H10   S    
C18   C30   A    
C9    C10   A    
C44   C47   A    
Cu1   O3    S    
C21   C22   A    
Cu2   O2    S    
C1    O2    A    
C14   C45   A    
C32   O13   S    
Cu1   O5    S    
O13   H14   S    
C34   O7    A    
C39   C40   A    
O14   H15   S    
O10   H11   S    
C46   Cl8   S    
C2    C48   A    
C16   C29   A    
C20   O11   S    
C15   H5    S    
C2    C4    A    
O11   H12   S    
C41   H6    S    
C20   C21   A    
C34   C45   S    
C24   C25   A    
Cu1   N1    S    
C34   O8    A    
C43   N1    A    
C40   C41   A    
C22   C27   A    
C15   C45   A    
C42   N1    A    
Cu2   O6    S    
C16   C25   A    
C46   C47   A    
Cu1   O1    S    
C22   C30   A    
C17   C28   A    
C40   Cl4   S    
Cu2   O8    S    
C42   Cl6   S    
C24   C28   A    
C4    C5    A    
C10   C13   A    
C37   N2    A    
C48   H8    S    
C6    C7    A    
C12   O4    A    
C3    C46   A    
C32   C33   A    
C36   C38   A    
C2    C3    A    
C25   C26   A    
C12   C44   S    
C38   C39   A    
O16   H17   S    
C33   C35   A    
C31   C39   A    
C9    H7    S    
C37   C41   A    
O17   H18   S    
Cu2   O4    S    
C10   C11   A    
C18   H4    S    
O12   H13   S    
C38   C42   A    
O15   H16   S    
Cu1   Cu2   S    
C21   C24   A    
Cu2   N2    S    
C13   C14   A    
C44   C48   A    
C29   H2    S    
