data_str_m9_o5_o16_f0_sra.sym.48
_audit_creation_date              2012-12-11T17:14:06-0500
_audit_creation_method            fapswitch 2.2
_symmetry_space_group_name_H-M    P1
_symmetry_Int_Tables_number       1
_space_group_crystal_system       triclinic
_cell_length_a                    18.211011
_cell_length_b                    7.098466
_cell_length_c                    12.926058
_cell_angle_alpha                 89.999868
_cell_angle_beta                  72.786609
_cell_angle_gamma                 90.000112
_cell_volume                      1596.1112956

loop_
_atom_site_label
_atom_site_type_symbol
_atom_type_description
_atom_site_fract_x
_atom_site_fract_y
_atom_site_fract_z
_atom_type_partial_charge
O1    O     O_R   0.453880 0.506200 0.150010 -0.543504
O2    O     O_R   0.546120 0.006200 0.849990 -0.543494
O3    O     O_R   0.604080 0.177770 0.007280 -0.546937
O4    O     O_R   0.395920 0.677770 0.992720 -0.546943
C1    C     C_R   0.635972 0.344454 0.001723 0.735066
C2    C     C_R   0.364028 0.844454 0.998277 0.735071
O5    O     O_R   0.458010 0.176640 0.159130 -0.531078
O6    O     O_R   0.541990 0.676640 0.840870 -0.531087
O7    O     O_R   0.399010 0.004010 0.002930 -0.540103
O8    O     O_R   0.600990 0.504010 0.997070 -0.540115
C3    C     C_R   0.442079 0.345222 0.201777 0.720397
C4    C     C_R   0.557921 0.845223 0.798223 0.720381
O9    O     O_3   0.480810 0.338440 0.948570 -0.373142
O10   O     O_3   0.519190 0.838440 0.051430 -0.373142
V1    V     V_3+5 0.503560 0.064490 0.009540 1.434017
V2    V     V_3+5 0.496440 0.564490 0.990460 1.433988
C5    C     C_R   0.583693 0.875564 0.500843 0.209492
C6    C     C_R   0.416305 0.375524 0.499160 0.209488
H1    H     H_    0.489704 0.889497 0.646980 0.149532
H2    H     H_    0.510295 0.389505 0.353025 0.149529
C7    C     C_R   0.597302 0.856025 0.681872 -0.148898
C8    C     C_R   0.402699 0.356022 0.318128 -0.148900
C9    C     C_R   0.954740 0.913799 0.383208 -0.216282
C10   C     C_R   0.045266 0.413866 0.616794 -0.216267
C11   C     C_R   0.922347 0.971548 0.489347 -0.190595
C12   C     C_R   0.077664 0.471632 0.510659 -0.190584
C13   C     C_R   0.842389 0.973964 0.535371 0.275629
C14   C     C_R   0.157623 0.474012 0.464635 0.275609
C15   C     C_R   0.793767 0.895200 0.478117 0.107055
C16   C     C_R   0.206236 0.395184 0.521883 0.107053
C17   C     C_R   0.826939 0.857286 0.365996 -0.015184
C18   C     C_R   0.173061 0.357245 0.634001 -0.015182
C19   C     C_R   0.712503 0.872835 0.525151 -0.086765
C20   C     C_R   0.287498 0.372799 0.474849 -0.086765
C21   C     C_R   0.664559 0.863121 0.455361 0.057442
C22   C     C_R   0.335440 0.363045 0.544638 0.057447
C23   C     C_R   0.699088 0.836135 0.342736 0.220085
C24   C     C_R   0.300910 0.335987 0.657257 0.220093
C25   C     C_R   0.778801 0.824594 0.300964 -0.268575
C26   C     C_R   0.221196 0.324480 0.699028 -0.268588
C27   C     C_R   0.678768 0.847719 0.638834 0.448370
C28   C     C_R   0.321233 0.347712 0.361164 0.448371
C29   C     C_R   0.551631 0.878824 0.613127 -0.319120
C30   C     C_R   0.448369 0.378817 0.386876 -0.319125
C31   C     C_R   0.907722 0.866188 0.319363 -0.061325
C32   C     C_R   0.092279 0.366192 0.680636 -0.061344
H3    H     H_    0.016484 0.924324 0.347599 0.121873
H4    H     H_    0.983523 0.424424 0.652405 0.121879
H5    H     H_    0.959402 0.028884 0.533466 0.134133
H6    H     H_    0.040615 0.529016 0.466548 0.134135
H7    H     H_    0.802648 0.797222 0.215097 0.130303
H8    H     H_    0.197346 0.297070 0.784891 0.130317
C33   C     C_1   0.216285 0.858831 0.000455 -0.193058
C34   C     C_1   0.783715 0.358830 0.999544 -0.193059
C35   C     C_1   0.283588 0.852513 0.999252 -0.197840
C36   C     C_1   0.716412 0.352513 0.000748 -0.197847
O11   O     O_R   0.899030 0.205490 0.002790 -0.535994
O12   O     O_R   0.100970 0.705490 0.997210 -0.535993
O13   O     O_R   0.042000 0.536370 0.840840 -0.537503
O14   O     O_R   0.958000 0.036370 0.159160 -0.537503
C37   C     C_R   0.057194 0.368603 0.798200 0.698557
C38   C     C_R   0.942807 0.868602 0.201799 0.698560
O15   O     O_R   0.895930 0.535070 0.992690 -0.541076
O16   O     O_R   0.104070 0.035070 0.007310 -0.541076
O17   O     O_R   0.953870 0.707520 0.150040 -0.541312
O18   O     O_R   0.046130 0.207520 0.849960 -0.541315
C39   C     C_R   0.864160 0.366797 0.998613 0.729527
C40   C     C_R   0.135840 0.866797 0.001387 0.729522
O19   O     O_3   0.019200 0.374340 0.051340 -0.374629
O20   O     O_3   0.980800 0.874340 0.948660 -0.374633
V3    V     V_3+5 0.996440 0.648350 0.990470 1.416266
V4    V     V_3+5 0.003560 0.148350 0.009530 1.416266
N1    N     N_3   0.653939 0.811135 0.269719 -0.610393
H9    H     H_    0.669957 0.914537 0.209578 0.228065
H10   H     H_    0.667040 0.679482 0.232471 0.219882
N2    N     N_3   0.346060 0.310851 0.730261 -0.610410
H11   H     H_    0.330051 0.414192 0.790438 0.228078
H12   H     H_    0.332949 0.179164 0.767463 0.219867
N3    N     N_3   0.533479 0.887228 0.433850 -0.609450
H13   H     H_    0.501943 0.011821 0.451536 0.231243
H14   H     H_    0.494359 0.775913 0.452850 0.233607
N4    N     N_3   0.466515 0.387199 0.566159 -0.609460
H15   H     H_    0.498024 0.511836 0.548506 0.231223
H16   H     H_    0.505658 0.275936 0.547132 0.233624
O21   O     O_3   0.725095 0.769449 0.696899 -0.553516
C41   C     C_3   0.715590 0.853779 0.799185 -0.177694
H17   H     H_    0.675970 0.769159 0.863923 0.147848
H18   H     H_    0.696898 0.003626 0.803060 0.140454
H19   H     H_    0.771635 0.850467 0.816666 0.142670
O22   O     O_3   0.274907 0.269469 0.303089 -0.553520
C42   C     C_3   0.284409 0.353849 0.200817 -0.177669
H20   H     H_    0.324019 0.269239 0.136062 0.147834
H21   H     H_    0.303113 0.503685 0.196957 0.140454
H22   H     H_    0.228359 0.350588 0.183349 0.142675
N5    N     N_3   0.811348 0.089899 0.628733 -0.665929
H23   H     H_    0.842059 0.063914 0.683999 0.219989
H24   H     H_    0.821872 0.230306 0.604394 0.228459
N6    N     N_3   0.188676 0.589965 0.371284 -0.665946
H25   H     H_    0.157959 0.564041 0.316019 0.219978
H26   H     H_    0.178170 0.730371 0.395636 0.228466

loop_
_geom_bond_atom_site_label_1
_geom_bond_atom_site_label_2
_ccdc_geom_bond_type
C25   H7    S    
C9    C31   A    
C13   C15   A    
N1    H9    S    
C1    C36   S    
C13   N5    S    
N5    H23   S    
O1    C3    A    
C2    C35   S    
O2    C4    A    
C2    O7    A    
C24   N2    S    
O21   C41   S    
O5    C3    A    
O16   C40   A    
C21   C23   A    
N2    H12   S    
C12   H6    S    
C41   H18   S    
O12   V3    S    
O14   V4    S    
C15   C19   A    
C31   C38   S    
C5    N3    S    
O14   C38   A    
O19   V3    S    
C33   C40   S    
N4    H16   S    
C19   C21   A    
C7    C29   A    
C37   O18   A    
C8    C30   A    
O18   V4    S    
C20   C28   A    
O20   V3    S    
O5    V1    S    
O6    V2    S    
C24   C26   A    
N1    H10   S    
O11   C39   A    
H2    C30   S    
H1    C29   S    
C34   C36   T    
C33   C35   T    
O15   C39   A    
O13   C37   A    
C9    H3    S    
C16   C20   A    
C32   C37   S    
C10   H4    S    
N2    H11   S    
O4    C2    A    
C42   H20   S    
N3    H14   S    
C41   H17   S    
C34   C39   S    
C26   H8    S    
C4    C7    S    
C28   O22   S    
O4    V2    S    
O19   V4    S    
C5    C29   A    
C6    C30   A    
C42   H21   S    
O6    C4    A    
O1    V2    S    
O2    V1    S    
C7    C27   A    
O12   C40   A    
O15   V3    S    
N4    H15   S    
N6    H26   S    
C18   C26   A    
O3    V1    S    
C14   N6    S    
C23   N1    S    
C38   O17   A    
C18   C32   A    
C10   C12   A    
O3    C1    A    
C41   H19   S    
O20   V4    S    
N5    H24   S    
C11   C13   A    
C27   O21   S    
C3    C8    S    
C12   C14   A    
C10   C32   A    
C14   C16   A    
O7    V1    S    
C19   C27   A    
C1    O8    A    
C23   C25   A    
O17   V3    S    
C42   H22   S    
C16   C18   A    
O22   C42   S    
C8    C28   A    
C22   C24   A    
C6    N4    S    
C17   C25   A    
C20   C22   A    
O16   V4    S    
O11   V4    S    
C11   H5    S    
N3    H13   S    
C9    C11   A    
C15   C17   A    
N6    H25   S    
C17   C31   A    
O9    V2    S    
O10   V1    S    
O8    V2    S    
C5    C21   A    
C6    C22   A    
O13   V3    S    
