data_str_m9_o18_o18_f0_sra.sym.87
_audit_creation_date              2012-12-11T15:26:44-0500
_audit_creation_method            fapswitch 2.2
_symmetry_space_group_name_H-M    P1
_symmetry_Int_Tables_number       1
_space_group_crystal_system       triclinic
_cell_length_a                    7.259472
_cell_length_b                    11.994451
_cell_length_c                    29.078492
_cell_angle_alpha                 90.002827
_cell_angle_beta                  89.991417
_cell_angle_gamma                 90.002523
_cell_volume                      2531.9625844

loop_
_atom_site_label
_atom_site_type_symbol
_atom_type_description
_atom_site_fract_x
_atom_site_fract_y
_atom_site_fract_z
_atom_type_partial_charge
O1    O     O_R   0.647170 0.849180 0.201220 -0.535193
O2    O     O_R   0.352830 0.150820 0.798780 -0.535205
O3    O     O_R   0.352830 0.150820 0.701220 -0.534888
O4    O     O_R   0.647170 0.849180 0.298780 -0.535262
O5    O     O_R   0.147170 0.650820 0.298780 -0.535064
O6    O     O_R   0.852830 0.349180 0.701220 -0.535079
O7    O     O_R   0.852830 0.349180 0.798780 -0.535227
O8    O     O_R   0.147170 0.650820 0.201220 -0.534902
O9    O     O_R   0.317430 0.862210 0.298450 -0.538243
O10   O     O_R   0.682570 0.137790 0.701550 -0.537486
O11   O     O_R   0.682570 0.137790 0.798450 -0.538144
O12   O     O_R   0.317430 0.862210 0.201550 -0.537677
O13   O     O_R   0.817430 0.637790 0.201550 -0.537714
O14   O     O_R   0.182570 0.362210 0.798450 -0.537835
O15   O     O_R   0.182570 0.362210 0.701550 -0.538082
O16   O     O_R   0.817430 0.637790 0.298450 -0.537666
C1    C     C_R   0.485627 0.887940 0.313405 0.691658
C2    C     C_R   0.514331 0.111552 0.686831 0.692438
C3    C     C_R   0.514357 0.112093 0.813406 0.691546
C4    C     C_R   0.485706 0.888554 0.186871 0.695663
C5    C     C_R   0.985652 0.611956 0.186628 0.692387
C6    C     C_R   0.014318 0.388382 0.813188 0.692167
C7    C     C_R   0.014378 0.387938 0.686595 0.692242
C8    C     C_R   0.985665 0.611559 0.313171 0.691782
O17   O     O_3   0.480630 0.680630 0.250000 -0.376211
O18   O     O_3   0.519370 0.319370 0.750000 -0.376295
O19   O     O_3   0.980630 0.819370 0.250000 -0.376378
O20   O     O_3   0.019370 0.180630 0.750000 -0.376081
V1    V     V_3+5 0.205800 0.762860 0.250000 1.434849
V2    V     V_3+5 0.794200 0.237140 0.750000 1.433436
V3    V     V_3+5 0.705800 0.737140 0.250000 1.435284
V4    V     V_3+5 0.294200 0.262860 0.750000 1.433133
C9    C     C_R   0.992707 0.531725 0.351243 -0.057885
C10   C     C_R   0.007300 0.467269 0.648267 -0.080235
C11   C     C_R   0.007168 0.468127 0.851286 -0.058127
C12   C     C_R   0.992843 0.532530 0.148319 -0.078336
C13   C     C_R   0.492896 0.968160 0.148722 -0.051611
C14   C     C_R   0.507180 0.032721 0.851701 -0.082091
C15   C     C_R   0.507287 0.031712 0.648758 -0.058073
C16   C     C_R   0.492721 0.967269 0.351735 -0.080027
C17   C     C_R   0.992107 0.341235 0.378708 0.185032
C18   C     C_R   0.008311 0.657477 0.620664 0.213052
C19   C     C_R   0.006731 0.658576 0.878780 0.184607
C20   C     C_R   0.993279 0.342260 0.120740 0.232015
C21   C     C_R   0.493904 0.158362 0.120925 0.207627
C22   C     C_R   0.507001 0.842430 0.879193 0.214980
C23   C     C_R   0.508055 0.841222 0.621286 0.185024
C24   C     C_R   0.491821 0.157474 0.379348 0.213033
C25   C     C_R   0.989179 0.418134 0.342572 -0.211129
C26   C     C_R   0.011408 0.580981 0.656740 -0.179142
C27   C     C_R   0.009630 0.581725 0.842630 -0.211429
C28   C     C_R   0.990165 0.418805 0.156814 -0.185001
C29   C     C_R   0.490889 0.081989 0.157255 -0.248213
C30   C     C_R   0.509891 0.919028 0.843158 -0.178887
C31   C     C_R   0.510960 0.918123 0.657426 -0.211038
C32   C     C_R   0.488690 0.080981 0.343267 -0.179170
C33   C     C_R   0.997947 0.570544 0.396261 -0.195210
C34   C     C_R   0.001376 0.428020 0.603252 -0.201145
C35   C     C_R   0.002641 0.429235 0.896300 -0.200830
C36   C     C_R   0.997756 0.571719 0.103296 -0.197750
C37   C     C_R   0.497151 0.928837 0.103720 -0.196846
C38   C     C_R   0.502398 0.071878 0.896738 -0.198617
C39   C     C_R   0.501949 0.070527 0.603743 -0.195199
C40   C     C_R   0.498611 0.928015 0.396748 -0.201186
C41   C     C_R   0.997700 0.496731 0.434405 0.020225
C42   C     C_R   0.001586 0.501589 0.564998 0.022917
C43   C     C_R   0.002258 0.503008 0.934457 0.023299
C44   C     C_R   0.998473 0.498107 0.065050 0.021823
C45   C     C_R   0.498079 0.002378 0.065500 -0.000596
C46   C     C_R   0.501855 0.998194 0.934941 0.023743
C47   C     C_R   0.502332 0.996716 0.565596 0.020238
C48   C     C_R   0.498466 0.001581 0.435006 0.022902
C49   C     C_R   0.996286 0.379199 0.425392 0.077591
C50   C     C_R   0.003377 0.619186 0.573924 0.064481
C51   C     C_R   0.003346 0.620557 0.925458 0.077338
C52   C     C_R   0.997292 0.380502 0.073986 0.116719
C53   C     C_R   0.497230 0.119664 0.074476 0.121912
C54   C     C_R   0.503153 0.880589 0.925956 0.059059
C55   C     C_R   0.503824 0.879184 0.574605 0.077590
C56   C     C_R   0.496730 0.119179 0.426086 0.064491
C57   C     C_R   0.998712 0.537220 0.480991 0.044497
C58   C     C_R   0.000481 0.460952 0.518400 0.007636
C59   C     C_R   0.001169 0.462479 0.981039 0.032391
C60   C     C_R   0.999762 0.538741 0.018454 0.000789
C61   C     C_R   0.499353 0.962167 0.018905 0.044052
C62   C     C_R   0.500648 0.038720 0.981545 0.042460
C63   C     C_R   0.501360 0.037206 0.519014 0.044483
C64   C     C_R   0.499582 0.960940 0.481601 0.007647
C65   C     C_R   0.002083 0.345966 0.508131 -0.212911
C66   C     C_R   0.997327 0.652174 0.491219 -0.192870
C67   C     C_R   0.999025 0.653740 0.008197 -0.210508
C68   C     C_R   0.002029 0.347508 0.991265 -0.261987
C69   C     C_R   0.501377 0.153803 0.991915 -0.294663
C70   C     C_R   0.498923 0.847282 0.008642 -0.195018
C71   C     C_R   0.498007 0.845953 0.491864 -0.212901
C72   C     C_R   0.502839 0.152161 0.508791 -0.192875
C73   C     C_R   0.999361 0.304898 0.463414 0.179134
C74   C     C_R   0.000502 0.693278 0.536016 0.164341
C75   C     C_R   0.001089 0.694832 0.963490 0.179574
C76   C     C_R   0.999776 0.306401 0.036085 0.165495
C77   C     C_R   0.499505 0.194270 0.036895 0.190904
C78   C     C_R   0.501088 0.806346 0.963824 0.166743
C79   C     C_R   0.500760 0.804883 0.536579 0.179119
C80   C     C_R   0.499649 0.193269 0.463997 0.164364
N1    N     N_3   0.000153 0.185824 0.458851 -0.656028
H1    H     H_    0.880362 0.159824 0.442168 0.269832
H2    H     H_    0.117205 0.160739 0.440775 0.268928
N2    N     N_3   0.000323 0.811996 0.541861 -0.693434
H3    H     H_    0.883058 0.844572 0.525961 0.245748
H4    H     H_    0.115267 0.844901 0.525029 0.246054
N3    N     N_3   0.000749 0.813913 0.958950 -0.656287
H5    H     H_    0.120236 0.839726 0.942076 0.269611
H6    H     H_    0.883347 0.839228 0.941079 0.269135
N4    N     N_3   0.999964 0.187686 0.041930 -0.689801
H7    H     H_    0.116917 0.155089 0.025885 0.245635
H8    H     H_    0.884709 0.154810 0.025228 0.245448
N5    N     N_3   0.499743 0.312821 0.043581 -0.608105
H9    H     H_    0.384534 0.346268 0.027063 0.235680
H10   H     H_    0.616607 0.345917 0.027671 0.234998
N6    N     N_3   0.500986 0.687645 0.957915 -0.697303
H11   H     H_    0.384038 0.654962 0.973936 0.242776
H12   H     H_    0.616258 0.654732 0.974592 0.242840
N7    N     N_3   0.499982 0.685809 0.541137 -0.656025
H13   H     H_    0.619786 0.659819 0.557814 0.269846
H14   H     H_    0.382946 0.660714 0.559218 0.268914
N8    N     N_3   0.499843 0.311987 0.458159 -0.693433
H15   H     H_    0.617112 0.344564 0.474060 0.245748
H16   H     H_    0.384904 0.344889 0.474994 0.246058
H17   H     H_    0.016727 0.610858 0.691917 0.120495
H18   H     H_    0.984564 0.388612 0.307342 0.111121
H19   H     H_    0.985713 0.388959 0.192001 0.119530
H20   H     H_    0.013610 0.611288 0.807402 0.111340
H21   H     H_    0.514264 0.889249 0.807959 0.120515
H22   H     H_    0.487065 0.111976 0.192419 0.113983
H23   H     H_    0.483401 0.110861 0.308092 0.120432
H24   H     H_    0.515645 0.888604 0.692654 0.111217
N9    N     N_3   0.990666 0.225193 0.366936 -0.701004
H25   H     H_    0.873233 0.208883 0.347275 0.243619
H26   H     H_    0.105276 0.208546 0.346291 0.244401
N10   N     N_3   0.011433 0.772847 0.633543 -0.675597
H27   H     H_    0.892261 0.812150 0.621741 0.271041
H28   H     H_    0.128457 0.810961 0.619888 0.270954
N11   N     N_3   0.007510 0.774632 0.867027 -0.700918
H29   H     H_    0.124761 0.791173 0.847322 0.243709
H30   H     H_    0.892731 0.791095 0.846426 0.244348
N12   N     N_3   0.991307 0.226891 0.133642 -0.677964
H31   H     H_    0.110418 0.187871 0.121637 0.270134
H32   H     H_    0.874212 0.188431 0.120197 0.270934
N13   N     N_3   0.493278 0.274948 0.131951 -0.614317
H33   H     H_    0.376043 0.292142 0.151560 0.235316
H34   H     H_    0.607934 0.291978 0.152511 0.236290
N14   N     N_3   0.509132 0.727095 0.866246 -0.676145
H35   H     H_    0.390145 0.687968 0.878272 0.270544
H36   H     H_    0.626394 0.688712 0.879633 0.270660
N15   N     N_3   0.509566 0.725180 0.633054 -0.700990
H37   H     H_    0.627000 0.708902 0.652718 0.243657
H38   H     H_    0.394959 0.708501 0.653696 0.244426
N16   N     N_3   0.488768 0.272845 0.366475 -0.675725
H39   H     H_    0.607957 0.312130 0.378283 0.271040
H40   H     H_    0.371758 0.310976 0.380128 0.270964
H41   H     H_    0.997637 0.338825 0.599856 0.104239
H42   H     H_    0.001257 0.659712 0.399692 0.101686
H43   H     H_    0.999750 0.660926 0.099899 0.103490
H44   H     H_    0.000602 0.340051 0.899717 0.102818
H45   H     H_    0.500396 0.161080 0.900207 0.105758
H46   H     H_    0.498421 0.839618 0.100343 0.103842
H47   H     H_    0.502263 0.838819 0.400139 0.104220
H48   H     H_    0.498438 0.159693 0.600315 0.101710
H49   H     H_    0.006021 0.282863 0.534323 0.157794
H50   H     H_    0.993437 0.715295 0.465064 0.125537
H51   H     H_    0.996599 0.716872 0.034386 0.157913
H52   H     H_    0.004721 0.284380 0.965101 0.137989
H53   H     H_    0.503677 0.217129 0.965813 0.138088
H54   H     H_    0.496866 0.784149 0.034815 0.126967
H55   H     H_    0.494096 0.782850 0.465670 0.157789
H56   H     H_    0.506859 0.215277 0.534950 0.125539

loop_
_geom_bond_atom_site_label_1
_geom_bond_atom_site_label_2
_ccdc_geom_bond_type
O17   V3    S    
C22   N14   S    
C63   C64   A    
C43   C59   A    
N8    H15   S    
O12   V1    S    
N15   H38   S    
C45   C53   A    
C53   C77   A    
N3    H5    S    
C23   C55   A    
C79   N7    S    
C17   C49   A    
C47   C55   A    
C57   C58   A    
C43   C51   A    
C78   N6    S    
N7    H13   S    
C50   C74   A    
C5    C12   S    
C61   C62   A    
O16   V3    S    
C49   C73   A    
C59   C68   A    
N9    H26   S    
O11   C3    A    
C58   C65   A    
C23   N15   S    
C56   C80   A    
O8    V1    S    
C11   C35   A    
C62   C69   A    
N10   H28   S    
C40   H47   S    
N13   H34   S    
N7    H14   S    
C46   C54   A    
C9    C25   A    
N11   H29   S    
C42   C50   A    
O1    V3    S    
C36   H43   S    
C41   C49   A    
N2    H3    S    
C38   C46   A    
O3    C2    A    
O2    V4    S    
C37   H46   S    
C69   H53   S    
C20   C52   A    
C71   H55   S    
C35   H44   S    
C35   C43   A    
C19   N11   S    
C34   C42   A    
C15   C31   A    
C33   H42   S    
O11   V2    S    
C71   C79   A    
C16   C32   A    
C20   N12   S    
C60   C67   A    
N12   H32   S    
C22   C30   A    
C12   C28   A    
O9    V1    S    
N9    H25   S    
C13   C29   A    
C20   C28   A    
O15   C7    A    
C64   C71   A    
C21   C29   A    
O16   C8    A    
O7    V2    S    
N16   H40   S    
C55   C79   A    
C74   N2    S    
C17   C25   A    
C48   C64   A    
N6    H12   S    
N4    H7    S    
O5    V1    S    
C19   C51   A    
O10   C2    A    
C10   C26   A    
C18   C50   A    
C18   N10   S    
C44   C60   A    
O15   V4    S    
C76   N4    S    
N10   H27   S    
C69   C77   A    
C22   C54   A    
O18   V4    S    
C30   H21   S    
C24   N16   S    
C65   C73   A    
C1    C16   S    
C2    C15   S    
C6    C11   S    
C26   H17   S    
C42   C58   A    
N1    H2    S    
C61   C70   A    
O10   V2    S    
C13   C37   A    
C59   C60   A    
C14   C30   A    
C7    C10   S    
C75   N3    S    
C63   C72   A    
O12   C4    A    
C51   C75   A    
O8    C5    A    
O13   C5    A    
N3    H6    S    
C66   C74   A    
C36   C44   A    
C18   C26   A    
C47   C63   A    
C57   C66   A    
O9    C1    A    
C39   H48   S    
O6    V2    S    
C39   C47   A    
C72   C80   A    
C11   C27   A    
N16   H39   S    
C52   C76   A    
C38   H45   S    
O4    C1    A    
C46   C62   A    
N15   H37   S    
C32   H23   S    
C45   C61   A    
N6    H11   S    
C68   C76   A    
C23   C31   A    
N12   H31   S    
N14   H36   S    
C37   C45   A    
N11   H30   S    
O1    C4    A    
N8    H16   S    
C72   H56   S    
O2    C3    A    
C28   H19   S    
C17   N9    S    
C70   H54   S    
C29   H22   S    
C33   C41   A    
C12   C36   A    
N4    H8    S    
C27   H20   S    
C9    C33   A    
C44   C52   A    
O7    C6    A    
C15   C39   A    
N1    H1    S    
C8    C9    S    
C16   C40   A    
C67   H51   S    
C77   N5    S    
O14   C6    A    
N5    H10   S    
C73   N1    S    
C66   H50   S    
C48   C56   A    
N13   H33   S    
C4    C13   S    
C19   C27   A    
O5    C8    A    
C24   C32   A    
C68   H52   S    
O6    C7    A    
O20   V2    S    
N2    H4    S    
C21   N13   S    
C40   C48   A    
O3    V4    S    
O13   V3    S    
O4    V3    S    
C65   H49   S    
C3    C14   S    
C80   N8    S    
N14   H35   S    
C70   C78   A    
O19   V1    S    
C10   C34   A    
C41   C57   A    
C21   C53   A    
C54   C78   A    
C67   C75   A    
C24   C56   A    
N5    H9    S    
C34   H41   S    
O14   V4    S    
C25   H18   S    
C31   H24   S    
C14   C38   A    
