data_str_m4_o22_o22_f0_acs.sym.54
_audit_creation_date              2012-12-11T15:07:03-0500
_audit_creation_method            fapswitch 2.2
_symmetry_space_group_name_H-M    P1
_symmetry_Int_Tables_number       1
_space_group_crystal_system       triclinic
_cell_length_a                    19.608201
_cell_length_b                    11.429247
_cell_length_c                    18.696298
_cell_angle_alpha                 90.033225
_cell_angle_beta                  89.84535
_cell_angle_gamma                 89.959728
_cell_volume                      4189.95373396

loop_
_atom_site_label
_atom_site_type_symbol
_atom_type_description
_atom_site_fract_x
_atom_site_fract_y
_atom_site_fract_z
_atom_type_partial_charge
C1    C     C_R   0.761284 0.524781 0.639577 0.528710
C2    C     C_3   0.254303 0.060249 0.563712 0.052336
C3    C     C_R   0.740768 0.036287 0.152932 0.533581
C4    C     C_R   0.775541 0.138019 0.860817 0.526547
C5    C     C_R   0.225092 0.135331 0.140109 0.526243
C6    C     C_R   0.275542 0.638020 0.860817 0.526546
C7    C     C_R   0.725092 0.635332 0.140109 0.526243
C8    C     C_R   0.967397 0.353665 0.854362 0.532274
C9    C     C_R   0.031208 0.353709 0.146482 0.529216
C10   C     C_R   0.467397 0.853665 0.854362 0.532274
C11   C     C_R   0.531208 0.853709 0.146483 0.529215
C12   C     C_3   0.684801 0.133795 0.464248 -0.228893
C13   C     C_3   0.245681 0.560406 0.436271 0.052767
C14   C     C_3   0.315133 0.133639 0.535807 -0.228927
C15   C     C_3   0.184801 0.633795 0.464248 -0.228893
C16   C     C_3   0.815133 0.633639 0.535807 -0.228927
C17   C     C_3   0.694924 0.159759 0.544187 -0.103789
C18   C     C_3   0.305015 0.159681 0.455898 -0.103825
C19   C     C_3   0.194924 0.659759 0.544187 -0.103789
C20   C     C_3   0.805015 0.659681 0.455898 -0.103825
C21   C     C_3   0.753062 0.945634 0.480680 -0.224017
C22   C     C_3   0.246959 0.945519 0.519173 -0.224365
C23   C     C_3   0.253062 0.445634 0.480680 -0.224017
C24   C     C_3   0.754303 0.560249 0.563712 0.052337
C25   C     C_3   0.746959 0.445520 0.519173 -0.224365
C26   C     C_3   0.704354 0.306696 0.167227 -0.105053
C27   C     C_3   0.285577 0.302824 0.832624 -0.104864
C28   C     C_3   0.204354 0.806696 0.167227 -0.105053
C29   C     C_3   0.785580 0.802828 0.832625 -0.104859
C30   C     C_1   0.631246 0.156446 0.586247 0.171622
C31   C     C_1   0.368697 0.156501 0.413834 0.171611
C32   C     C_1   0.131246 0.656446 0.586247 0.171622
C33   C     C_1   0.868697 0.656501 0.413834 0.171611
C34   C     C_3   0.758268 0.093287 0.574339 0.051557
C35   C     C_3   0.241732 0.093296 0.425658 0.051689
C36   C     C_3   0.258268 0.593287 0.574339 0.051557
C37   C     C_3   0.741731 0.593296 0.425658 0.051689
C38   C     C_3   0.746844 0.963843 0.561577 -0.269810
C39   C     C_3   0.253214 0.963824 0.438296 -0.269530
C40   C     C_3   0.246844 0.463843 0.561577 -0.269810
C41   C     C_R   0.238727 0.524921 0.360398 0.526739
C42   C     C_3   0.753214 0.463825 0.438296 -0.269530
C43   C     C_3   0.822706 0.131711 0.530288 -0.236534
C44   C     C_3   0.177275 0.131741 0.469753 -0.236567
C45   C     C_3   0.322706 0.631711 0.530288 -0.236534
C46   C     C_3   0.677275 0.631741 0.469753 -0.236567
C47   C     C_3   0.004954 0.201101 0.458762 -0.226528
C48   C     C_3   0.995080 0.201046 0.541093 -0.226736
C49   C     C_3   0.504954 0.701101 0.458762 -0.226528
C50   C     C_3   0.495080 0.701046 0.541094 -0.226736
C51   C     C_3   0.063768 0.401163 0.473665 -0.216351
C52   C     C_R   0.261284 0.024781 0.639577 0.528710
C53   C     C_3   0.936199 0.401132 0.526392 -0.216349
C54   C     C_3   0.563768 0.901163 0.473665 -0.216351
C55   C     C_3   0.436199 0.901132 0.526392 -0.216348
C56   C     C_3   0.940293 0.380701 0.445707 -0.270588
C57   C     C_3   0.059689 0.380588 0.554324 -0.270505
C58   C     C_3   0.440293 0.880701 0.445707 -0.270589
C59   C     C_3   0.559689 0.880588 0.554324 -0.270505
C60   C     C_3   0.010028 0.328846 0.430677 0.057472
C61   C     C_3   0.989977 0.328747 0.569309 0.057210
C62   C     C_3   0.510028 0.828846 0.430677 0.057472
C63   C     C_R   0.738726 0.024921 0.360398 0.526739
C64   C     C_3   0.489977 0.828747 0.569309 0.057210
C65   C     C_3   0.820965 0.034233 0.049314 -0.280206
C66   C     C_3   0.185312 0.016176 0.954124 -0.274215
C67   C     C_3   0.320965 0.534233 0.049314 -0.280205
C68   C     C_3   0.685311 0.516178 0.954124 -0.274214
C69   C     C_R   0.773741 0.121402 0.649695 0.534502
C70   C     C_R   0.226250 0.121465 0.350312 0.534364
C71   C     C_R   0.273741 0.621402 0.649695 0.534502
C72   C     C_R   0.726250 0.621465 0.350312 0.534364
C73   C     C_3   0.823123 0.044652 0.969401 -0.253909
C74   C     C_3   0.809605 0.133317 0.449235 -0.272617
C75   C     C_3   0.181940 0.027130 0.033618 -0.260236
C76   C     C_3   0.323123 0.544652 0.969401 -0.253908
C77   C     C_3   0.681940 0.527131 0.033618 -0.260236
C78   C     C_3   0.693451 0.019609 0.033700 -0.205927
C79   C     C_3   0.316567 0.036550 0.967534 -0.209931
C80   C     C_3   0.193451 0.519609 0.033699 -0.205929
C81   C     C_3   0.816567 0.536549 0.967534 -0.209930
C82   C     C_3   0.747744 0.208959 0.066375 0.144103
C83   C     C_3   0.243211 0.204059 0.934081 0.140417
C84   C     C_3   0.247744 0.708958 0.066375 0.144103
C85   C     C_3   0.190362 0.133253 0.550815 -0.272521
C86   C     C_3   0.743212 0.704059 0.934080 0.140416
C87   C     C_3   0.750830 0.076856 0.077896 0.090459
C88   C     C_3   0.251755 0.071949 0.923883 0.085428
C89   C     C_3   0.250830 0.576855 0.077895 0.090458
C90   C     C_3   0.751755 0.571949 0.923883 0.085429
C91   C     C_3   0.761185 0.113446 0.938951 0.018493
C92   C     C_3   0.239141 0.108202 0.062384 0.017828
C93   C     C_3   0.261185 0.613446 0.938951 0.018493
C94   C     C_3   0.739141 0.608203 0.062383 0.017828
C95   C     C_3   0.699329 0.036018 0.951981 -0.274814
C96   C     C_3   0.309605 0.633317 0.449235 -0.272617
C97   C     C_3   0.306819 0.047008 0.049153 -0.272137
C98   C     C_3   0.199330 0.536017 0.951980 -0.274815
C99   C     C_3   0.806819 0.547009 0.049153 -0.272136
C100  C     C_3   0.745593 0.228100 0.983311 -0.178741
C101  C     C_3   0.240260 0.222636 0.017047 -0.170642
C102  C     C_3   0.245593 0.728100 0.983311 -0.178742
C103  C     C_3   0.740260 0.722637 0.017046 -0.170643
C104  C     C_3   0.994674 0.479709 0.042573 -0.232156
C105  C     C_3   0.991343 0.479877 0.961476 -0.223897
C106  C     C_3   0.494674 0.979709 0.042573 -0.232156
C107  C     C_3   0.690362 0.633253 0.550815 -0.272521
C108  C     C_3   0.491343 0.979877 0.961476 -0.223896
C109  C     C_3   0.068648 0.301370 0.025869 -0.226029
C110  C     C_3   0.938055 0.272805 0.973608 -0.214569
C111  C     C_3   0.568648 0.801370 0.025869 -0.226028
C112  C     C_3   0.438055 0.772805 0.973608 -0.214569
C113  C     C_3   0.946610 0.280674 0.055386 -0.256761
C114  C     C_3   0.058399 0.301428 0.943949 -0.264617
C115  C     C_3   0.446610 0.780674 0.055386 -0.256761
C116  C     C_3   0.558399 0.801428 0.943949 -0.264617
C117  C     C_R   0.969595 0.341460 0.645427 0.532579
C118  C     C_3   0.745681 0.060406 0.436271 0.052767
C119  C     C_R   0.030411 0.341529 0.354572 0.531846
C120  C     C_R   0.469594 0.841460 0.645427 0.532579
C121  C     C_R   0.530411 0.841529 0.354572 0.531846
C122  C     C_3   0.009406 0.353782 0.069938 0.057329
C123  C     C_3   0.988194 0.352830 0.931066 0.063089
C124  C     C_3   0.509406 0.853782 0.069938 0.057329
C125  C     C_3   0.488194 0.852830 0.931066 0.063089
C126  C     C_R   0.760626 0.532545 0.848756 0.536061
C127  C     C_R   0.240768 0.536286 0.152932 0.533582
C128  C     C_R   0.260626 0.032545 0.848756 0.536064
Cr1   Cr    Cr6+3 0.885690 0.492860 0.745310 1.013637
Cr2   Cr    Cr6+3 0.111880 0.178590 0.246990 0.990890
Cr3   Cr    Cr6+3 0.388120 0.678590 0.753010 0.993299
Cr4   Cr    Cr6+3 0.611880 0.678590 0.246990 0.990889
Cr5   Cr    Cr6+3 0.114310 0.492860 0.254690 1.019968
Cr6   Cr    Cr6+3 0.385690 0.992860 0.745310 1.013635
Cr7   Cr    Cr6+3 0.614310 0.992860 0.254690 1.019968
Cr8   Cr    Cr6+3 0.729880 0.332270 0.748190 1.019092
Cr9   Cr    Cr6+3 0.270120 0.332270 0.251810 1.018520
Cr10  Cr    Cr6+3 0.229880 0.832270 0.748190 1.019092
Cr11  Cr    Cr6+3 0.770120 0.832270 0.251810 1.018520
Cr12  Cr    Cr6+3 0.888120 0.178590 0.753010 0.993298
H1    H     H_    0.637222 0.088420 0.454839 0.138590
H2    H     H_    0.193564 0.916797 0.528256 0.137619
H3    H     H_    0.537074 0.025352 0.939836 0.120660
H4    H     H_    0.609030 0.859742 0.037673 0.107980
H5    H     H_    0.385064 0.785365 0.957583 0.108297
H6    H     H_    0.109030 0.359742 0.037673 0.107981
H7    H     H_    0.885064 0.285365 0.957583 0.108297
H8    H     H_    0.598081 0.854512 0.916677 0.099348
H9    H     H_    0.401243 0.821188 0.080714 0.095621
H10   H     H_    0.098081 0.354511 0.916677 0.099348
H11   H     H_    0.901243 0.321188 0.080714 0.095621
H12   H     H_    0.954061 0.192157 0.078537 0.120620
H13   H     H_    0.306455 0.416807 0.471508 0.137915
H14   H     H_    0.062135 0.211155 0.922222 0.109712
H15   H     H_    0.454061 0.692157 0.078537 0.120620
H16   H     H_    0.562135 0.711155 0.922222 0.109712
H17   H     H_    0.953187 0.182892 0.958815 0.129499
H18   H     H_    0.079535 0.212321 0.044380 0.135245
H19   H     H_    0.453187 0.682892 0.958815 0.129499
H20   H     H_    0.579535 0.712322 0.044381 0.135245
H21   H     H_    0.717718 0.878213 0.463012 0.099538
H22   H     H_    0.282270 0.877962 0.536771 0.099398
H23   H     H_    0.217718 0.378214 0.463012 0.099538
H24   H     H_    0.693564 0.416797 0.528256 0.137619
H25   H     H_    0.782270 0.377962 0.536771 0.099398
H26   H     H_    0.695966 0.937243 0.581435 0.114246
H27   H     H_    0.304111 0.937219 0.418430 0.114230
H28   H     H_    0.195966 0.437243 0.581435 0.114246
H29   H     H_    0.804111 0.437220 0.418430 0.114230
H30   H     H_    0.854024 0.095936 0.420224 0.130896
H31   H     H_    0.145961 0.095905 0.579789 0.130947
H32   H     H_    0.354024 0.595936 0.420224 0.130896
H33   H     H_    0.645961 0.595905 0.579789 0.130947
H34   H     H_    0.801632 0.223889 0.429822 0.104200
H35   H     H_    0.785535 0.910214 0.590040 0.116823
H36   H     H_    0.198318 0.223794 0.570326 0.104301
H37   H     H_    0.301632 0.723889 0.429822 0.104200
H38   H     H_    0.698318 0.723794 0.570326 0.104301
H39   H     H_    0.842131 0.216706 0.548266 0.114679
H40   H     H_    0.157831 0.216780 0.451873 0.114759
H41   H     H_    0.342131 0.716706 0.548266 0.114679
H42   H     H_    0.657831 0.716780 0.451873 0.114758
H43   H     H_    0.737153 0.384777 0.160720 0.102074
H44   H     H_    0.730613 0.245829 0.204161 0.120273
H45   H     H_    0.656226 0.335120 0.193266 0.163072
H46   H     H_    0.214574 0.910243 0.409748 0.116696
H47   H     H_    0.265492 0.393066 0.832138 0.126223
H48   H     H_    0.249133 0.246347 0.803030 0.102075
H49   H     H_    0.334297 0.303113 0.802343 0.162471
H50   H     H_    0.237153 0.884777 0.160720 0.102073
H51   H     H_    0.230614 0.745828 0.204161 0.120273
H52   H     H_    0.156227 0.835119 0.193266 0.163072
H53   H     H_    0.765482 0.893062 0.832141 0.126207
H54   H     H_    0.749146 0.746339 0.803026 0.102092
H55   H     H_    0.834302 0.803141 0.802348 0.162469
H56   H     H_    0.285535 0.410214 0.590040 0.116823
H57   H     H_    0.714573 0.410243 0.409748 0.116696
H58   H     H_    0.048961 0.150061 0.442914 0.135188
H59   H     H_    0.951059 0.150099 0.556858 0.134991
H60   H     H_    0.548961 0.650061 0.442914 0.135188
H61   H     H_    0.362734 0.088296 0.545183 0.138515
H62   H     H_    0.451058 0.650099 0.556858 0.134991
H63   H     H_    0.961892 0.154802 0.433077 0.110645
H64   H     H_    0.038142 0.154639 0.566733 0.110730
H65   H     H_    0.461892 0.654802 0.433077 0.110645
H66   H     H_    0.538142 0.654639 0.566733 0.110730
H67   H     H_    0.614966 0.887956 0.452989 0.110008
H68   H     H_    0.385003 0.887917 0.547049 0.110141
H69   H     H_    0.114965 0.387956 0.452989 0.110008
H70   H     H_    0.885004 0.387916 0.547049 0.110140
H71   H     H_    0.600737 0.821720 0.572640 0.101270
H72   H     H_    0.137222 0.588420 0.454839 0.138590
H73   H     H_    0.399276 0.821880 0.427310 0.101222
H74   H     H_    0.100737 0.321720 0.572640 0.101270
H75   H     H_    0.899276 0.321880 0.427310 0.101222
H76   H     H_    0.933999 0.462830 0.416681 0.166738
H77   H     H_    0.065960 0.462667 0.583458 0.166890
H78   H     H_    0.433999 0.962830 0.416681 0.166738
H79   H     H_    0.565960 0.962667 0.583458 0.166890
H80   H     H_    0.949712 0.494210 0.534962 0.149030
H81   H     H_    0.050246 0.494285 0.465200 0.148856
H82   H     H_    0.449712 0.994210 0.534962 0.149030
H83   H     H_    0.862734 0.588296 0.545183 0.138515
H84   H     H_    0.550246 0.994285 0.465200 0.148856
H85   H     H_    0.832589 0.941861 0.062310 0.154969
H86   H     H_    0.179660 0.923848 0.940124 0.152537
H87   H     H_    0.332589 0.441860 0.062310 0.154969
H88   H     H_    0.679659 0.423849 0.940124 0.152537
H89   H     H_    0.680602 0.217029 0.433847 0.101482
H90   H     H_    0.319277 0.216839 0.566298 0.101599
H91   H     H_    0.180602 0.717029 0.433847 0.101482
H92   H     H_    0.819277 0.716839 0.566298 0.101599
H93   H     H_    0.862321 0.085427 0.074198 0.107333
H94   H     H_    0.862031 0.063786 0.539839 0.136845
H95   H     H_    0.139857 0.058748 0.929980 0.109072
H96   H     H_    0.362320 0.585426 0.074198 0.107333
H97   H     H_    0.639857 0.558751 0.929980 0.109072
H98   H     H_    0.871657 0.080343 0.953464 0.137222
H99   H     H_    0.129743 0.053355 0.048493 0.141884
H100  H     H_    0.371657 0.580344 0.953464 0.137222
H101  H     H_    0.629743 0.553355 0.048493 0.141884
H102  H     H_    0.824304 0.955943 0.946163 0.201503
H103  H     H_    0.187997 0.940387 0.056300 0.200057
H104  H     H_    0.324305 0.455943 0.946163 0.201503
H105  H     H_    0.137994 0.063851 0.460137 0.136884
H106  H     H_    0.687997 0.440388 0.056299 0.200056
H107  H     H_    0.701112 0.929342 0.045972 0.095335
H108  H     H_    0.336882 0.951292 0.951882 0.097556
H109  H     H_    0.201112 0.429342 0.045971 0.095335
H110  H     H_    0.836882 0.451291 0.951883 0.097555
H111  H     H_    0.704654 0.950027 0.925580 0.125063
H112  H     H_    0.308124 0.959308 0.074212 0.104511
H113  H     H_    0.204656 0.450026 0.925579 0.125069
H114  H     H_    0.808124 0.459309 0.074213 0.104511
H115  H     H_    0.795200 0.250176 0.086850 0.076727
H116  H     H_    0.362031 0.563786 0.539839 0.136845
H117  H     H_    0.193885 0.233856 0.910808 0.083636
H118  H     H_    0.295201 0.750175 0.086850 0.076728
H119  H     H_    0.693887 0.733858 0.910806 0.083634
H120  H     H_    0.778122 0.300539 0.967289 0.073651
H121  H     H_    0.191933 0.259181 0.028466 0.066642
H122  H     H_    0.278121 0.800539 0.967289 0.073651
H123  H     H_    0.691932 0.759182 0.028464 0.066642
H124  H     H_    0.692776 0.253586 0.970016 0.152368
H125  H     H_    0.281900 0.280366 0.035091 0.149604
H126  H     H_    0.192776 0.753585 0.970016 0.152369
H127  H     H_    0.637994 0.563851 0.460137 0.136884
H128  H     H_    0.781899 0.780368 0.035091 0.149604
H129  H     H_    0.643038 0.050408 0.052220 0.167319
H130  H     H_    0.355756 0.101461 0.953384 0.182257
H131  H     H_    0.143038 0.550407 0.052219 0.167319
H132  H     H_    0.855756 0.601460 0.953384 0.182258
H133  H     H_    0.708870 0.248538 0.548730 0.122530
H134  H     H_    0.290977 0.248428 0.451510 0.122332
H135  H     H_    0.208870 0.748538 0.548730 0.122530
H136  H     H_    0.790977 0.748428 0.451510 0.122332
H137  H     H_    0.652418 0.077318 0.930312 0.116035
H138  H     H_    0.806455 0.916807 0.471508 0.137915
H139  H     H_    0.348142 0.100628 0.072996 0.124569
H140  H     H_    0.152419 0.577316 0.930312 0.116034
H141  H     H_    0.848142 0.600629 0.072996 0.124569
H142  H     H_    0.033623 0.544310 0.058820 0.146969
H143  H     H_    0.949525 0.534479 0.943958 0.137660
H144  H     H_    0.533623 0.044310 0.058820 0.146969
H145  H     H_    0.449524 0.034479 0.943958 0.137659
H146  H     H_    0.946251 0.511394 0.065738 0.119547
H147  H     H_    0.037074 0.525352 0.939836 0.120660
H148  H     H_    0.446251 0.011394 0.065738 0.119547
N1    N     N_1   0.581834 0.159953 0.620215 -0.309547
N2    N     N_1   0.418105 0.160092 0.379869 -0.309406
N3    N     N_1   0.081834 0.659953 0.620215 -0.309547
N4    N     N_1   0.918105 0.660092 0.379869 -0.309406
O1    O     O_R   0.957210 0.449410 0.665480 -0.510628
O2    O     O_R   0.167480 0.095300 0.164000 -0.538254
O3    O     O_R   0.332520 0.595300 0.836000 -0.536366
O4    O     O_R   0.667480 0.595300 0.164000 -0.538254
O5    O     O_R   0.946380 0.253940 0.826940 -0.513460
O6    O     O_R   0.053620 0.253940 0.173060 -0.513377
O7    O     O_R   0.446380 0.753940 0.826940 -0.513460
O8    O     O_R   0.553620 0.753940 0.173060 -0.513377
O9    O     O_3   0.834560 0.334570 0.748840 -0.284776
O10   O     O_3   0.165440 0.334570 0.251160 -0.283436
O11   O     O_3   0.334560 0.834570 0.748840 -0.284776
O12   O     O_R   0.042790 0.449410 0.334520 -0.510887
O13   O     O_3   0.665440 0.834570 0.251160 -0.283436
O14   O     O_R   0.820730 0.541240 0.668250 -0.519776
O15   O     O_R   0.179270 0.541240 0.331750 -0.520713
O16   O     O_R   0.320730 0.041240 0.668250 -0.519776
O17   O     O_R   0.679270 0.041240 0.331750 -0.520713
O18   O     O_R   0.714240 0.455060 0.663710 -0.524034
O19   O     O_R   0.285760 0.455060 0.336290 -0.524659
O20   O     O_R   0.214240 0.955060 0.663710 -0.524034
O21   O     O_R   0.785760 0.955060 0.336290 -0.524659
O22   O     O_R   0.736780 0.204870 0.675910 -0.497549
O23   O     O_R   0.457210 0.949410 0.665480 -0.510628
O24   O     O_R   0.263220 0.204870 0.324090 -0.497501
O25   O     O_R   0.236780 0.704870 0.675910 -0.497549
O26   O     O_R   0.763220 0.704870 0.324090 -0.497501
O27   O     O_R   0.833070 0.087590 0.673490 -0.533380
O28   O     O_R   0.166930 0.087590 0.326510 -0.534574
O29   O     O_R   0.333070 0.587590 0.673490 -0.533380
O30   O     O_R   0.666930 0.587590 0.326510 -0.534574
O31   O     O_R   0.946890 0.246800 0.676300 -0.513297
O32   O     O_R   0.053110 0.246800 0.323700 -0.513804
O33   O     O_R   0.446890 0.746800 0.676300 -0.513297
O34   O     O_R   0.542790 0.949410 0.334520 -0.510887
O35   O     O_R   0.553110 0.746800 0.323700 -0.513804
O36   O     O_R   0.956650 0.457120 0.827980 -0.524412
O37   O     O_R   0.043350 0.457120 0.172020 -0.522450
O38   O     O_R   0.456650 0.957120 0.827980 -0.524413
O39   O     O_R   0.543350 0.957120 0.172020 -0.522451
O40   O     O_R   0.820220 0.548390 0.818890 -0.493436
O41   O     O_R   0.179780 0.548390 0.181110 -0.481814
O42   O     O_R   0.320220 0.048390 0.818890 -0.493438
O43   O     O_R   0.679780 0.048390 0.181110 -0.481814
O44   O     O_R   0.713680 0.462770 0.826210 -0.544081
O45   O     O_R   0.736260 0.212010 0.826560 -0.505609
O46   O     O_R   0.286320 0.462770 0.173790 -0.545816
O47   O     O_R   0.213680 0.962770 0.826210 -0.544081
O48   O     O_R   0.786320 0.962770 0.173790 -0.545816
O49   O     O_3   0.688424 0.254682 0.100295 -0.592334
O50   O     O_3   0.298991 0.266127 0.903724 -0.607297
O51   O     O_3   0.188424 0.754682 0.100296 -0.592334
O52   O     O_3   0.798994 0.766126 0.903724 -0.607295
O53   O     O_R   0.263740 0.212010 0.173440 -0.505583
O54   O     O_R   0.236260 0.712010 0.826560 -0.505610
O55   O     O_R   0.763740 0.712010 0.173440 -0.505583
O56   O     O_R   0.832520 0.095300 0.836000 -0.536365

loop_
_geom_bond_atom_site_label_1
_geom_bond_atom_site_label_2
_ccdc_geom_bond_type
C95   H137  S    
Cr11  O48   S    
Cr5   O10   S    
C113  H11   S    
Cr4   O13   S    
C31   N2    T    
Cr4   O30   S    
C55   H68   S    
C26   H45   S    
C109  H18   S    
C25   H24   S    
C82   C87   S    
C14   H61   S    
Cr11  O55   S    
C105  C123  S    
C37   C42   S    
Cr8   O44   S    
Cr5   O15   S    
C56   H75   S    
Cr4   O35   S    
C113  C122  S    
C100  H124  S    
C46   H127  S    
C2    C22   S    
C68   C90   S    
C102  H122  S    
C47   H58   S    
C63   O17   A    
C91   C100  S    
C10   C125  S    
C36   C71   S    
C53   H80   S    
C83   C88   S    
C17   C30   S    
C19   C32   S    
C104  C105  S    
C65   C87   S    
Cr2   O32   S    
C50   H62   S    
C71   O29   A    
C48   H59   S    
C86   C90   S    
C3    O48   A    
C63   C118  S    
Cr8   O9    S    
C81   C99   S    
Cr4   O4    S    
C117  O1    A    
C25   C42   S    
C111  H20   S    
C20   H136  S    
C110  C123  S    
C51   H69   S    
C84   O51   S    
Cr1   O1    S    
C16   C20   S    
Cr1   O9    S    
C90   C126  S    
C65   H85   S    
Cr9   O10   S    
C24   C107  S    
C27   H47   S    
C34   C69   S    
C112  C125  S    
C110  H17   S    
C2    C52   S    
C44   H105  S    
C20   C33   S    
C99   H141  S    
C72   O26   A    
C23   H13   S    
Cr5   O12   S    
C82   H115  S    
C17   C34   S    
C114  H10   S    
Cr8   O45   S    
C89   C127  S    
C68   C77   S    
C41   O19   A    
C49   C62   S    
C111  C124  S    
C79   C97   S    
C4    O45   A    
C43   H94   S    
C17   H133  S    
C68   H88   S    
C8    C123  S    
C57   C61   S    
Cr2   O2    S    
C64   C120  S    
C69   O27   A    
C70   O28   A    
C5    O2    A    
C9    O37   A    
C51   H81   S    
C29   H53   S    
C105  H143  S    
C16   H92   S    
C106  H144  S    
C2    C14   S    
C116  H16   S    
Cr7   O17   S    
Cr7   O43   S    
C106  C124  S    
C18   C31   S    
C4    O56   A    
C114  H14   S    
C104  H146  S    
C78   C87   S    
C1    O18   A    
C84   C102  S    
C117  O31   A    
C11   C124  S    
C7    O55   A    
C12   H89   S    
C85   H31   S    
C128  O42   A    
Cr2   O6    S    
C77   H101  S    
Cr3   O11   S    
C74   H34   S    
C66   C88   S    
C121  O34   A    
C104  C122  S    
C77   C94   S    
Cr10  O11   S    
C112  H5    S    
C13   C23   S    
C60   C119  S    
C78   H129  S    
Cr6   O16   S    
C10   O7    A    
C53   C61   S    
C73   H102  S    
C53   H70   S    
C119  O12   A    
C18   C35   S    
C4    C91   S    
C120  O33   A    
C55   C64   S    
C10   O38   A    
C22   H2    S    
C59   H71   S    
C92   C97   S    
C54   C59   S    
C74   C118  S    
C67   H96   S    
Cr6   O42   S    
C14   H90   S    
C13   C96   S    
Cr10  O47   S    
C6    O3    A    
C29   H55   S    
C81   H132  S    
C52   O20   A    
C63   O21   A    
C15   H72   S    
C67   H87   S    
C3    O43   A    
C115  H9    S    
C52   O16   A    
C127  O41   A    
C109  C114  S    
C55   H82   S    
C51   C57   S    
C114  C123  S    
C50   H66   S    
C116  C125  S    
C86   O52   S    
C55   C58   S    
Cr1   O36   S    
Cr6   O11   S    
C44   C85   S    
C28   H51   S    
C33   N4    T    
C53   C56   S    
Cr4   O8    S    
C15   H91   S    
C34   C43   S    
C7    O4    A    
Cr12  O5    S    
C48   H64   S    
C66   H95   S    
C46   H42   S    
C97   H139  S    
C73   H98   S    
C98   H140  S    
C71   O25   A    
C20   C37   S    
C58   H78   S    
C106  C108  S    
C22   C39   S    
Cr12  O56   S    
C128  O47   A    
C56   H76   S    
C91   C95   S    
C32   N3    T    
C1    C24   S    
C49   C50   S    
C51   C60   S    
Cr1   O40   S    
Cr6   O23   S    
C98   H113  S    
C18   H134  S    
C58   C62   S    
C27   O50   S    
C75   H99   S    
C70   O24   A    
C81   H110  S    
C44   H40   S    
C13   C41   S    
C45   H41   S    
C15   C19   S    
C43   H39   S    
C105  H147  S    
C106  H148  S    
C65   H93   S    
C99   H114  S    
C68   H97   S    
C22   H22   S    
C23   C40   S    
C85   H36   S    
Cr10  O54   S    
C2    C85   S    
C77   H106  S    
C80   C89   S    
C30   N1    T    
C104  H142  S    
Cr11  O21   S    
C39   H46   S    
C12   C17   S    
C111  C116  S    
C96   H37   S    
C83   C101  S    
C126  O40   A    
C26   H43   S    
Cr7   O34   S    
Cr2   O10   S    
C113  H12   S    
Cr3   O7    S    
C79   C88   S    
Cr3   O33   S    
C61   C117  S    
C95   H111  S    
C116  H8    S    
C54   C62   S    
C25   H25   S    
C56   C60   S    
C35   C39   S    
C21   C118  S    
C42   H29   S    
C76   C93   S    
Cr10  O20   S    
Cr1   O14   S    
C54   H84   S    
C78   C95   S    
C6    C93   S    
C66   H86   S    
C9    C122  S    
C47   H63   S    
C7    C94   S    
C103  H128  S    
C92   C101  S    
C12   C118  S    
Cr2   O28   S    
C94   C103  S    
Cr6   O38   S    
C40   H28   S    
Cr9   O53   S    
C38   H26   S    
Cr12  O27   S    
C101  H125  S    
C29   O52   S    
C115  C124  S    
C80   C98   S    
C42   H57   S    
C28   H50   S    
C93   C102  S    
C76   H100  S    
C80   H131  S    
Cr8   O22   S    
C21   H138  S    
Cr5   O37   S    
C38   H35   S    
C57   H77   S    
C66   C75   S    
C83   H117  S    
C27   H48   S    
C45   H116  S    
C58   H73   S    
C8    O5    A    
C37   C72   S    
C126  O44   A    
C16   H83   S    
C37   C46   S    
C108  H3    S    
Cr12  O9    S    
C100  H120  S    
C112  H19   S    
C101  H121  S    
C50   C64   S    
C14   C18   S    
C109  H6    S    
Cr9   O24   S    
C28   O51   S    
C11   O8    A    
C12   H1    S    
C59   C64   S    
C84   H118  S    
C76   H104  S    
C19   C36   S    
C109  C122  S    
C29   H54   S    
C67   C89   S    
C65   C73   S    
C108  H145  S    
C47   C60   S    
C19   H135  S    
C35   C70   S    
C8    O36   A    
C108  C125  S    
C82   O49   S    
Cr9   O46   S    
C127  O46   A    
Cr11  O26   S    
C43   C74   S    
C16   C24   S    
C11   O39   A    
C26   O49   S    
C86   C103  S    
C28   H52   S    
C97   H112  S    
C23   H23   S    
C72   O30   A    
C79   H130  S    
C21   H21   S    
C21   C38   S    
C3    C87   S    
C5    C92   S    
C120  O23   A    
C36   C40   S    
C83   O50   S    
C24   C25   S    
C73   C91   S    
C121  O35   A    
C107  H33   S    
C41   O15   A    
C5    O53   A    
Cr9   O19   S    
C47   C48   S    
C46   C107  S    
C78   H107  S    
C9    O6    A    
Cr3   O3    S    
C36   C45   S    
C35   C44   S    
C110  C113  S    
Cr3   O29   S    
C111  H4    S    
C54   H67   S    
C80   H109  S    
C13   C15   S    
C107  H38   S    
C96   H32   S    
C84   C89   S    
C81   C90   S    
C110  H7    S    
C75   C92   S    
Cr7   O13   S    
C40   H56   S    
Cr8   O18   S    
Cr7   O39   S    
C115  H15   S    
C34   C38   S    
C82   C100  S    
C69   O22   A    
C49   H65   S    
Cr11  O13   S    
C1    O14   A    
C79   H108  S    
C88   C128  S    
C59   H79   S    
C48   C61   S    
C94   C99   S    
Cr12  O31   S    
C112  C115  S    
C39   H27   S    
C86   H119  S    
C74   H30   S    
Cr10  O25   S    
C75   H103  S    
Cr5   O41   S    
C57   H74   S    
C119  O32   A    
C102  H126  S    
C103  H123  S    
C67   C76   S    
C27   H49   S    
C6    O54   A    
C45   C96   S    
C93   C98   S    
C62   C121  S    
C49   H60   S    
C26   H44   S    
