data_str_m2_o10_o28_f0_pcu.sym.185
_audit_creation_date              2012-12-10T16:50:12-0500
_audit_creation_method            fapswitch 2.2
_symmetry_space_group_name_H-M    P1
_symmetry_Int_Tables_number       1
_space_group_crystal_system       triclinic
_cell_length_a                    23.496271
_cell_length_b                    8.678043
_cell_length_c                    7.432975
_cell_angle_alpha                 103.066695
_cell_angle_beta                  94.067534
_cell_angle_gamma                 92.328142
_cell_volume                      1470.12880346

loop_
_atom_site_label
_atom_site_type_symbol
_atom_type_description
_atom_site_fract_x
_atom_site_fract_y
_atom_site_fract_z
_atom_type_partial_charge
C1    C     C_R   0.498279 0.199609 0.453133 0.892314
C2    C     C_R   0.501721 0.800391 0.546867 0.892307
C3    C     C_R   0.234206 0.491650 0.349398 -0.087102
C4    C     C_R   0.765807 0.509064 0.650760 -0.087065
C5    C     C_R   0.293365 0.493803 0.345414 -0.204345
C6    C     C_R   0.706648 0.506897 0.654740 -0.204399
C7    C     C_R   0.328484 0.498606 0.508046 -0.038177
C8    C     C_R   0.671518 0.501430 0.491962 -0.038202
C9    C     C_R   0.303301 0.501395 0.674737 -0.211823
C10   C     C_R   0.696692 0.498010 0.325131 -0.211920
C11   C     C_R   0.243999 0.498791 0.678202 -0.089952
C12   C     C_R   0.755995 0.500639 0.321668 -0.089927
C13   C     C_R   0.209330 0.493617 0.515448 0.351117
C14   C     C_R   0.790676 0.506463 0.484564 0.350975
C15   C     C_2   0.497454 0.031666 0.426741 -0.361936
C16   C     C_2   0.502545 0.968334 0.573259 -0.361936
C17   C     C_R   0.390965 0.499635 0.502642 0.800433
C18   C     C_R   0.609036 0.500372 0.497359 0.800445
C19   C     C_R   0.883929 0.641987 0.570308 0.558378
C20   C     C_R   0.116083 0.358113 0.429635 0.558495
C21   C     C_R   0.875989 0.373196 0.397637 0.562287
C22   C     C_R   0.124024 0.626860 0.602444 0.562294
C23   C     C_R   0.935514 0.367273 0.405193 -0.004677
C24   C     C_R   0.064500 0.632794 0.594862 -0.004706
C25   C     C_R   0.969931 0.503575 0.494174 -0.039068
C26   C     C_R   0.030082 0.496501 0.505853 -0.039072
C27   C     C_R   0.944239 0.646476 0.571148 -0.043877
C28   C     C_R   0.055774 0.353606 0.428855 -0.043873
C29   C     C_R   0.960815 0.225904 0.331348 -0.191738
C30   C     C_R   0.039199 0.774160 0.668722 -0.191796
C31   C     C_R   0.020007 0.215194 0.348056 -0.038733
C32   C     C_R   0.980008 0.784879 0.651985 -0.038739
Cu1   Cu    Cu3+1 0.506340 0.517380 0.684380 0.957384
Cu2   Cu    Cu3+1 0.493660 0.482620 0.315620 0.957385
H1    H     H_    0.934154 0.119977 0.267343 0.197684
H2    H     H_    0.065861 0.880077 0.732761 0.197680
H3    H     H_    0.207579 0.488708 0.223448 0.142421
H4    H     H_    0.792439 0.512513 0.776831 0.142499
H5    H     H_    0.311513 0.492046 0.215064 0.157926
H6    H     H_    0.688509 0.509180 0.785212 0.157940
H7    H     H_    0.329312 0.504852 0.802030 0.156307
H8    H     H_    0.670673 0.494014 0.197717 0.156397
H9    H     H_    0.224932 0.500437 0.807036 0.139303
H10   H     H_    0.775051 0.498496 0.192717 0.139410
H11   H     H_    0.492659 0.959826 0.285635 0.180251
H12   H     H_    0.507341 0.040174 0.714365 0.180248
H13   H     H_    0.454908 0.379404 0.948709 0.225381
H14   H     H_    0.545092 0.620596 0.051291 0.225391
N1    N     N_R   0.851623 0.508093 0.481527 -0.481354
N2    N     N_R   0.148387 0.491984 0.518486 -0.481401
N3    N     N_2   0.484110 0.456420 0.038520 -0.217673
N4    N     N_2   0.515890 0.543580 0.961480 -0.217675
O1    O     O_R   0.504120 0.286130 0.619770 -0.583148
O2    O     O_R   0.495880 0.713870 0.380230 -0.583149
O3    O     O_R   0.493410 0.256770 0.308360 -0.582169
O4    O     O_R   0.506590 0.743230 0.691640 -0.582170
O5    O     O_R   0.423230 0.514630 0.655730 -0.591242
O6    O     O_R   0.576770 0.485370 0.344270 -0.591260
O7    O     O_R   0.412530 0.485280 0.344320 -0.584097
O8    O     O_R   0.587470 0.514720 0.655680 -0.584110
O9    O     O_2   0.857452 0.767503 0.661823 -0.484403
O10   O     O_2   0.142559 0.232653 0.337979 -0.484339
O11   O     O_2   0.842529 0.243646 0.311543 -0.505831
O12   O     O_2   0.157488 0.756376 0.688632 -0.505786
C33   C     C_2   0.040742 0.053917 0.289206 0.484892
H15   H     H_    0.021697 0.974604 0.162892 0.023162
O13   O     O_2   0.075673 0.003783 0.388024 -0.487952
C34   C     C_2   0.959276 0.946153 0.710898 0.484925
H16   H     H_    0.978286 0.025381 0.837324 0.023151
O14   O     O_2   0.924390 0.996380 0.612029 -0.487961

loop_
_geom_bond_atom_site_label_1
_geom_bond_atom_site_label_2
_ccdc_geom_bond_type
C17   O5    A    
C20   N2    A    
C28   C31   A    
C11   H9    S    
C1    C15   S    
Cu1   O5    S    
C2    C16   S    
C10   H8    S    
Cu1   O1    S    
C19   C27   A    
C29   H1    S    
C9    H7    S    
C3    C13   A    
C30   H2    S    
C32   C34   S    
C34   O14   D    
Cu1   O4    S    
C21   N1    A    
Cu1   Cu2   S    
C1    O3    A    
Cu2   O3    S    
C29   C31   A    
C2    O4    A    
Cu1   N4    S    
C20   O10   S    
C9    C11   A    
Cu2   N3    S    
C10   C12   A    
C17   O7    A    
C27   C32   A    
C6    C8    A    
C23   C29   A    
C18   O8    A    
C26   C28   A    
C12   C14   A    
Cu2   O2    S    
Cu1   O8    S    
C6    H6    S    
C23   C25   A    
C21   C23   A    
C4    C14   A    
Cu2   O7    S    
C19   O9    S    
C22   C24   A    
C31   C33   S    
C21   O11   S    
C24   C30   A    
C25   C27   A    
C15   H11   S    
C22   O12   S    
C15   C16   D    
C30   C32   A    
C7    C9    A    
C22   N2    A    
C11   C13   A    
C13   N2    S    
H14   N4    S    
C14   N1    S    
C3    H3    S    
Cu2   O6    S    
C33   H15   S    
C2    O2    A    
C16   H12   S    
C5    C7    A    
C5    H5    S    
C1    O1    A    
C12   H10   S    
H13   N3    S    
C20   C28   A    
C3    C5    A    
C25   C26   A    
C4    H4    S    
C4    C6    A    
C19   N1    A    
C18   O6    A    
C8    C10   A    
C8    C18   S    
N3    N4    D    
C24   C26   A    
C34   H16   S    
C33   O13   D    
C7    C17   S    
