data_str_m4_o17_o17_f0_acs.sym.150
_audit_creation_date              2012-12-11T14:30:05-0500
_audit_creation_method            fapswitch 2.2
_symmetry_space_group_name_H-M    P1
_symmetry_Int_Tables_number       1
_space_group_crystal_system       triclinic
_cell_length_a                    12.693436
_cell_length_b                    12.693397
_cell_length_c                    26.964685
_cell_angle_alpha                 90.000022
_cell_angle_beta                  90.000034
_cell_angle_gamma                 120.000667
_cell_volume                      3762.53132994

loop_
_atom_site_label
_atom_site_type_symbol
_atom_type_description
_atom_site_fract_x
_atom_site_fract_y
_atom_site_fract_z
_atom_type_partial_charge
C1    C     C_R   0.556650 0.456770 0.821774 0.563189
C2    C     C_R   0.900118 0.443349 0.678226 0.563174
C3    C     C_R   0.543229 0.099880 0.821774 0.563177
C4    C     C_R   0.556651 0.456770 0.678226 0.563184
C5    C     C_R   0.900119 0.443350 0.821774 0.563153
C6    C     C_R   0.543230 0.099881 0.678226 0.563181
C7    C     C_R   0.456769 0.556651 0.321774 0.563194
C8    C     C_R   0.443350 0.900120 0.178226 0.563137
C9    C     C_R   0.099881 0.543230 0.321774 0.563188
C10   C     C_R   0.456768 0.556651 0.178225 0.563192
C11   C     C_R   0.443349 0.900118 0.321774 0.563171
C12   C     C_R   0.099879 0.543229 0.178226 0.563187
C13   C     C_R   0.995563 0.504194 0.973894 0.023288
C14   C     C_R   0.508639 0.004444 0.526107 0.023272
C15   C     C_R   0.495792 0.491372 0.973891 0.023262
C16   C     C_R   0.995561 0.504197 0.526107 0.023274
C17   C     C_R   0.508633 0.004441 0.973893 0.023259
C18   C     C_R   0.495800 0.491367 0.526107 0.023270
C19   C     C_R   0.504199 0.995563 0.473893 0.023275
C20   C     C_R   0.004441 0.508633 0.026107 0.023254
C21   C     C_R   0.491360 0.495808 0.473894 0.023270
C22   C     C_R   0.504195 0.995564 0.026107 0.023294
C23   C     C_R   0.004441 0.508637 0.473893 0.023273
C24   C     C_R   0.491352 0.495811 0.026104 0.023261
C25   C     C_R   0.996373 0.695481 0.974124 -0.110542
C26   C     C_R   0.699120 0.003642 0.525876 -0.110532
C27   C     C_R   0.304500 0.300901 0.974120 -0.110530
C28   C     C_R   0.996371 0.695484 0.525877 -0.110527
C29   C     C_R   0.699113 0.003638 0.974123 -0.110487
C30   C     C_R   0.304510 0.300890 0.525878 -0.110532
C31   C     C_R   0.695493 0.996386 0.474123 -0.110517
C32   C     C_R   0.003623 0.699106 0.025878 -0.110504
C33   C     C_R   0.300884 0.304518 0.474124 -0.110521
C34   C     C_R   0.695490 0.996393 0.025877 -0.110559
C35   C     C_R   0.003623 0.699110 0.474123 -0.110526
C36   C     C_R   0.300867 0.304530 0.025873 -0.110517
C37   C     C_R   0.985058 0.592267 0.894427 0.230903
C38   C     C_R   0.607215 0.014950 0.605574 0.230960
C39   C     C_R   0.407724 0.392794 0.894423 0.230957
C40   C     C_R   0.985054 0.592267 0.605573 0.230962
C41   C     C_R   0.607208 0.014943 0.894426 0.230941
C42   C     C_R   0.407731 0.392789 0.605574 0.230970
C43   C     C_R   0.592269 0.985059 0.394426 0.230961
C44   C     C_R   0.014941 0.607206 0.105574 0.230943
C45   C     C_R   0.392785 0.407736 0.394427 0.230977
C46   C     C_R   0.592270 0.985068 0.105574 0.230884
C47   C     C_R   0.014946 0.607212 0.394426 0.230967
C48   C     C_R   0.392773 0.407739 0.105571 0.230947
C49   C     C_R   0.040212 0.522156 0.129143 -0.012965
C50   C     C_R   0.481944 0.959781 0.370858 -0.012956
C51   C     C_R   0.477832 0.518057 0.129140 -0.012952
C52   C     C_R   0.040219 0.522163 0.370858 -0.012952
C53   C     C_R   0.481945 0.959786 0.129142 -0.012961
C54   C     C_R   0.477835 0.518059 0.370859 -0.012952
C55   C     C_R   0.522163 0.040218 0.629142 -0.012953
C56   C     C_R   0.959784 0.481945 0.870858 -0.012965
C57   C     C_R   0.518054 0.477838 0.629142 -0.012958
C58   C     C_R   0.522157 0.040211 0.870857 -0.012965
C59   C     C_R   0.959781 0.481945 0.629142 -0.012957
C60   C     C_R   0.518050 0.477841 0.870856 -0.012958
C61   C     C_R   0.993497 0.599090 0.947116 0.016645
C62   C     C_R   0.605602 0.006514 0.552884 0.016623
C63   C     C_R   0.400894 0.394412 0.947113 0.016625
C64   C     C_R   0.993495 0.599093 0.552884 0.016628
C65   C     C_R   0.605595 0.006508 0.947115 0.016635
C66   C     C_R   0.400904 0.394405 0.552885 0.016627
C67   C     C_R   0.599097 0.993502 0.447115 0.016629
C68   C     C_R   0.006503 0.605592 0.052885 0.016634
C69   C     C_R   0.394398 0.400911 0.447116 0.016622
C70   C     C_R   0.599094 0.993507 0.052885 0.016651
C71   C     C_R   0.006505 0.605598 0.447115 0.016623
C72   C     C_R   0.394386 0.400917 0.052881 0.016634
C73   C     C_R   0.971174 0.394013 0.897881 -0.124767
C74   C     C_R   0.422841 0.028824 0.602119 -0.124755
C75   C     C_R   0.605980 0.577165 0.897879 -0.124690
C76   C     C_R   0.971172 0.394014 0.602119 -0.124768
C77   C     C_R   0.422831 0.028813 0.897880 -0.124637
C78   C     C_R   0.605984 0.577161 0.602120 -0.124752
C79   C     C_R   0.394012 0.971167 0.397882 -0.124793
C80   C     C_R   0.028815 0.422830 0.102120 -0.124581
C81   C     C_R   0.577155 0.605992 0.397882 -0.124765
C82   C     C_R   0.394011 0.971171 0.102119 -0.124774
C83   C     C_R   0.028830 0.422843 0.397882 -0.124763
C84   C     C_R   0.577157 0.605985 0.102118 -0.124689
C85   C     C_R   0.988981 0.404006 0.948574 0.013875
C86   C     C_R   0.415030 0.011020 0.551426 0.013871
C87   C     C_R   0.595984 0.584977 0.948572 0.013883
C88   C     C_R   0.988980 0.404009 0.551426 0.013875
C89   C     C_R   0.415023 0.011016 0.948574 0.013872
C90   C     C_R   0.595990 0.584974 0.551427 0.013873
C91   C     C_R   0.404008 0.988976 0.448574 0.013875
C92   C     C_R   0.011021 0.415024 0.051426 0.013876
C93   C     C_R   0.584967 0.595998 0.448575 0.013871
C94   C     C_R   0.404005 0.988978 0.051426 0.013882
C95   C     C_R   0.011024 0.415031 0.448574 0.013874
C96   C     C_R   0.584964 0.595995 0.051424 0.013880
C97   C     C_R   0.006438 0.317356 0.025514 -0.095403
C98   C     C_R   0.310926 0.993563 0.474486 -0.095427
C99   C     C_R   0.682638 0.689075 0.025513 -0.095389
C100  C     C_R   0.006434 0.317360 0.474486 -0.095429
C101  C     C_R   0.310924 0.993567 0.025515 -0.095410
C102  C     C_R   0.682639 0.689079 0.474486 -0.095423
C103  C     C_R   0.317357 0.006426 0.525515 -0.095425
C104  C     C_R   0.993574 0.310926 0.974484 -0.095418
C105  C     C_R   0.689071 0.682646 0.525516 -0.095417
C106  C     C_R   0.317354 0.006427 0.974485 -0.095403
C107  C     C_R   0.993571 0.310929 0.525515 -0.095428
C108  C     C_R   0.689068 0.682645 0.974484 -0.095387
Cr1   Cr    Cr6+3 0.487630 0.241180 0.750000 1.200718
Cr2   Cr    Cr6+3 0.753550 0.512370 0.750000 1.200683
Cr3   Cr    Cr6+3 0.758820 0.246450 0.750000 1.200605
Cr4   Cr    Cr6+3 0.241180 0.487630 0.250000 1.200751
Cr5   Cr    Cr6+3 0.512370 0.753550 0.250000 1.200675
Cr6   Cr    Cr6+3 0.246450 0.758820 0.250000 1.200572
H1    H     H_    0.010455 0.778040 0.044100 0.172946
H2    H     H_    0.767593 0.989550 0.455902 0.173160
H3    H     H_    0.221925 0.232437 0.044094 0.173103
H4    H     H_    0.010458 0.778044 0.455902 0.173159
H5    H     H_    0.767597 0.989573 0.044099 0.172687
H6    H     H_    0.221950 0.232418 0.455903 0.173222
H7    H     H_    0.778055 0.010483 0.544096 0.173123
H8    H     H_    0.989539 0.767581 0.955903 0.172823
H9    H     H_    0.232412 0.221953 0.544099 0.173161
H10   H     H_    0.778049 0.010476 0.955901 0.172946
H11   H     H_    0.989530 0.767582 0.544098 0.173133
H12   H     H_    0.232407 0.221966 0.955900 0.173113
H13   H     H_    0.041410 0.353824 0.120073 0.209290
H14   H     H_    0.312400 0.958545 0.379931 0.208829
H15   H     H_    0.646159 0.687590 0.120071 0.209051
H16   H     H_    0.041447 0.353850 0.379931 0.208885
H17   H     H_    0.312399 0.958548 0.120070 0.208844
H18   H     H_    0.646148 0.687603 0.379932 0.208898
H19   H     H_    0.353845 0.041436 0.620070 0.208913
H20   H     H_    0.958556 0.312403 0.879930 0.208904
H21   H     H_    0.687593 0.646157 0.620071 0.208925
H22   H     H_    0.353828 0.041410 0.879927 0.209158
H23   H     H_    0.958554 0.312404 0.620070 0.208884
H24   H     H_    0.687591 0.646161 0.879927 0.209052
H25   H     H_    0.013200 0.245934 0.044652 0.141235
H26   H     H_    0.232745 0.986806 0.455346 0.141676
H27   H     H_    0.754067 0.767253 0.044653 0.141405
H28   H     H_    0.013188 0.245935 0.455346 0.141629
H29   H     H_    0.232744 0.986812 0.044654 0.141614
H30   H     H_    0.754064 0.767261 0.455347 0.141616
H31   H     H_    0.245931 0.013178 0.544654 0.141616
H32   H     H_    0.986820 0.232745 0.955345 0.141595
H33   H     H_    0.767253 0.754071 0.544654 0.141605
H34   H     H_    0.245930 0.013183 0.955347 0.141371
H35   H     H_    0.986818 0.232750 0.544654 0.141621
H36   H     H_    0.767253 0.754068 0.955345 0.141424
O1    O     O_R   0.460870 0.120930 0.805240 -0.482094
O2    O     O_R   0.660060 0.539130 0.694760 -0.482192
O3    O     O_R   0.879070 0.339940 0.805240 -0.482213
O4    O     O_R   0.460870 0.120930 0.694760 -0.482188
O5    O     O_R   0.660060 0.539130 0.805240 -0.482151
O6    O     O_R   0.879070 0.339940 0.694760 -0.482214
O7    O     O_R   0.120930 0.460870 0.305240 -0.482188
O8    O     O_R   0.539130 0.660060 0.194760 -0.482147
O9    O     O_R   0.339940 0.879070 0.305240 -0.482239
O10   O     O_R   0.120930 0.460870 0.194760 -0.482052
O11   O     O_R   0.539130 0.660060 0.305240 -0.482203
O12   O     O_R   0.339940 0.879070 0.194760 -0.482230
O13   O     O_R   0.498910 0.350470 0.801870 -0.439582
O14   O     O_R   0.851560 0.501090 0.698130 -0.439589
O15   O     O_R   0.649530 0.148440 0.801870 -0.439609
O16   O     O_R   0.498910 0.350470 0.698130 -0.439589
O17   O     O_R   0.851560 0.501090 0.801870 -0.439605
O18   O     O_R   0.649530 0.148440 0.698130 -0.439592
O19   O     O_R   0.350470 0.498910 0.301870 -0.439587
O20   O     O_R   0.501090 0.851560 0.198130 -0.439613
O21   O     O_R   0.148440 0.649530 0.301870 -0.439590
O22   O     O_R   0.350470 0.498910 0.198130 -0.439597
O23   O     O_R   0.501090 0.851560 0.301870 -0.439590
O24   O     O_R   0.148440 0.649530 0.198130 -0.439615
O25   O     O_3   0.666667 0.333333 0.750000 -0.336604
O26   O     O_3   0.333333 0.666667 0.250000 -0.336605
S1    S     S_3+6 0.980250 0.703293 0.141906 0.033034
O27   O     O_2   0.935250 0.649025 0.192379 -0.183760
O28   O     O_2   0.092582 0.825716 0.147388 -0.320163
O29   O     O_3   0.870843 0.720227 0.114512 -0.563901
H37   H     H_    0.876252 0.793380 0.130153 0.384397
S2    S     S_3+6 0.723043 0.019741 0.358093 0.032990
O30   O     O_2   0.733121 0.907405 0.352606 -0.319882
O31   O     O_2   0.713772 0.064753 0.307623 -0.183999
O32   O     O_3   0.849398 0.129130 0.385485 -0.564034
H38   H     H_    0.917163 0.124091 0.369666 0.384690
S3    S     S_3+6 0.296676 0.276961 0.141903 0.032895
O33   O     O_2   0.350979 0.286217 0.192368 -0.184099
O34   O     O_2   0.174270 0.266898 0.147403 -0.319651
O35   O     O_3   0.279676 0.150601 0.114503 -0.564130
H39   H     H_    0.206977 0.082826 0.130384 0.384647
S4    S     S_3+6 0.980263 0.703303 0.358092 0.032984
O36   O     O_2   0.092599 0.825716 0.352600 -0.319934
O37   O     O_2   0.935242 0.649014 0.307623 -0.183995
O38   O     O_3   0.870879 0.720274 0.385486 -0.564030
H40   H     H_    0.875945 0.793099 0.369679 0.384681
S5    S     S_3+6 0.723050 0.019763 0.141902 0.033162
O39   O     O_2   0.713778 0.064721 0.192385 -0.183426
O40   O     O_2   0.733155 0.907434 0.147367 -0.320327
O41   O     O_3   0.849379 0.129214 0.114512 -0.563614
H41   H     H_    0.917092 0.123245 0.129888 0.384100
S6    S     S_3+6 0.296695 0.276961 0.358093 0.032939
O42   O     O_2   0.174286 0.266890 0.352596 -0.319804
O43   O     O_2   0.350994 0.286229 0.307627 -0.184122
O44   O     O_3   0.279704 0.150602 0.385489 -0.564104
H42   H     H_    0.207027 0.082829 0.369606 0.384749
S7    S     S_3+6 0.703302 0.980263 0.641907 0.032990
O45   O     O_2   0.825710 0.092603 0.647405 -0.319914
O46   O     O_2   0.649003 0.935227 0.692373 -0.183977
O47   O     O_3   0.720286 0.870890 0.614509 -0.564019
H43   H     H_    0.793153 0.875998 0.630297 0.384635
S8    S     S_3+6 0.019746 0.723048 0.858097 0.033093
O48   O     O_2   0.064721 0.713778 0.807618 -0.183631
O49   O     O_2   0.907413 0.733144 0.852627 -0.320165
O50   O     O_3   0.129181 0.849388 0.885489 -0.563764
H44   H     H_    0.123534 0.917126 0.869960 0.384275
S9    S     S_3+6 0.276958 0.296692 0.641907 0.032964
O51   O     O_2   0.266883 0.174280 0.647395 -0.319880
O52   O     O_2   0.286227 0.350972 0.692378 -0.184028
O53   O     O_3   0.150600 0.279719 0.614516 -0.564048
H45   H     H_    0.082835 0.206918 0.630338 0.384669
S10   S     S_3+6 0.703301 0.980257 0.858096 0.033032
O54   O     O_2   0.649041 0.935263 0.807621 -0.183770
O55   O     O_2   0.825722 0.092591 0.852617 -0.320138
O56   O     O_3   0.720234 0.870848 0.885489 -0.563916
H46   H     H_    0.793379 0.876253 0.869848 0.384429
S11   S     S_3+6 0.019732 0.723041 0.641906 0.032984
O57   O     O_2   0.907393 0.733114 0.647393 -0.319903
O58   O     O_2   0.064744 0.713775 0.692376 -0.183978
O59   O     O_3   0.129118 0.849397 0.614513 -0.564048
H47   H     H_    0.124033 0.917154 0.630308 0.384665
S12   S     S_3+6 0.276960 0.296679 0.858088 0.032915
O60   O     O_2   0.286218 0.350965 0.807620 -0.184041
O61   O     O_2   0.266928 0.174286 0.852595 -0.319757
O62   O     O_3   0.150577 0.279653 0.885477 -0.564136
H48   H     H_    0.082832 0.206885 0.869634 0.384668

loop_
_geom_bond_atom_site_label_1
_geom_bond_atom_site_label_2
_ccdc_geom_bond_type
C44   C49   A    
C14   C86   A    
C79   H14   S    
C74   H19   S    
O35   H39   S    
C82   C94   A    
S5    O41   S    
C18   C21   A    
C101  H29   S    
C5    C56   S    
C6    C55   S    
C42   S9    S    
C50   C79   A    
C12   C49   S    
C11   O9    A    
C30   H9    S    
Cr2   O25   S    
C78   C90   A    
S9    O53   S    
C31   C67   A    
C99   C108  A    
C20   C92   A    
C103  H31   S    
C73   H20   S    
S6    O43   D    
Cr3   O25   S    
Cr5   O23   S    
Cr1   O1    S    
C41   C58   A    
Cr2   O2    S    
C24   C96   A    
C26   H7    S    
C21   C69   A    
C27   H12   S    
Cr6   O12   S    
C10   C51   S    
C10   O22   A    
C98   C103  A    
C105  H33   S    
C96   C99   A    
C84   H15   S    
C34   H5    S    
C106  H34   S    
Cr3   O18   S    
C102  C105  A    
C1    O5    A    
C84   C96   A    
C47   S4    S    
S5    O40   D    
S2    O30   D    
S3    O35   S    
Cr2   O5    S    
C58   C77   A    
C37   C56   A    
C48   C51   A    
C38   C55   A    
S11   O57   D    
C94   C101  A    
C23   C95   A    
C45   S6    S    
S1    O28   D    
S6    O44   S    
C89   C106  A    
S7    O47   S    
O62   H48   S    
C19   C67   A    
Cr3   O15   S    
C77   H22   S    
Cr5   O8    S    
C78   H21   S    
C10   O8    A    
C79   C91   A    
C41   S10   S    
C13   C20   A    
C33   C69   A    
C32   C68   A    
C25   C32   A    
Cr6   O26   S    
C35   C71   A    
C26   C31   A    
C32   H1    S    
C40   C59   A    
C22   C94   A    
S10   O54   D    
C9    C52   S    
C102  H30   S    
C48   C72   A    
C86   C103  A    
C14   C19   A    
C42   C57   A    
O53   H45   S    
C8    O20   A    
C92   C97   A    
C24   C72   A    
C82   H17   S    
Cr6   O21   S    
C4    O2    A    
C6    O18   A    
C11   O23   A    
S3    O34   D    
C38   S7    S    
C87   C108  A    
C45   C69   A    
S7    O45   D    
C18   C90   A    
S4    O38   S    
C104  H32   S    
C17   C89   A    
C28   C35   A    
C83   H16   S    
S6    O42   D    
C1    C60   S    
C2    O14   A    
C88   C107  A    
Cr2   O14   S    
C2    C59   S    
O41   H41   S    
C46   S5    S    
C41   C65   A    
S10   O56   S    
S9    O51   D    
C76   H23   S    
C29   C34   A    
S12   O62   S    
C74   C86   A    
C76   C88   A    
C98   H26   S    
C53   C82   A    
S2    O32   S    
S4    O37   D    
C80   C92   A    
C52   C83   A    
O50   H44   S    
C37   S8    S    
Cr1   O4    S    
C23   C71   A    
C81   C93   A    
Cr2   O17   S    
Cr4   O19   S    
S8    O50   S    
C9    O7    A    
S1    O29   S    
C83   C95   A    
S11   O59   S    
S12   O61   D    
O56   H46   S    
C25   C61   A    
C12   O10   A    
C7    O11   A    
S10   O55   D    
C36   H3    S    
Cr3   O3    S    
C73   C85   A    
C30   C66   A    
C85   C104  A    
C27   C63   A    
C48   S3    S    
Cr5   O26   S    
C29   C65   A    
C28   C64   A    
O44   H42   S    
C75   C87   A    
C15   C24   A    
S11   O58   D    
S8    O49   D    
C45   C54   A    
O47   H43   S    
C16   C23   A    
C7    O19   A    
Cr1   O13   S    
C108  H36   S    
Cr4   O7    S    
C9    O21   A    
C18   C66   A    
C47   C71   A    
C31   H2    S    
C22   C70   A    
C28   H11   S    
C3    O15   A    
C12   O24   A    
C25   H8    S    
C101  C106  A    
O59   H47   S    
C34   C70   A    
C100  C107  A    
C2    O6    A    
C56   C73   A    
Cr4   O10   S    
C30   C33   A    
Cr4   O26   S    
C95   C100  A    
C93   C102  A    
C3    O1    A    
C57   C78   A    
C20   C68   A    
C42   C66   A    
C51   C84   A    
C90   C105  A    
S7    O46   D    
C81   H18   S    
C75   H24   S    
C8    C53   S    
C44   S1    S    
C37   C61   A    
Cr1   O25   S    
C43   C50   A    
C99   H27   S    
Cr5   O20   S    
C77   C89   A    
C80   H13   S    
C27   C36   A    
S9    O52   D    
C39   C63   A    
C60   C75   A    
C17   C65   A    
C17   C22   A    
C40   C64   A    
C49   C80   A    
S4    O36   D    
C40   S11   S    
C26   C62   A    
C43   S2    S    
C39   S12   S    
C55   C74   A    
C11   C50   S    
C100  H28   S    
C6    O4    A    
O32   H38   S    
Cr4   O22   S    
C21   C93   A    
C5    O3    A    
C39   C60   A    
C107  H35   S    
C46   C53   A    
S12   O60   D    
C4    O16   A    
C5    O17   A    
C91   C98   A    
S5    O39   D    
S2    O31   D    
Cr6   O9    S    
C46   C70   A    
C97   C104  A    
C19   C91   A    
Cr1   O16   S    
Cr5   O11   S    
O38   H40   S    
C29   H10   S    
C3    C58   S    
Cr6   O24   S    
Cr3   O6    S    
C13   C61   A    
S8    O48   D    
C1    O13   A    
C33   H6    S    
C43   C67   A    
S1    O27   D    
C15   C87   A    
C13   C85   A    
C16   C88   A    
C15   C63   A    
C44   C68   A    
C47   C52   A    
S3    O33   D    
C8    O12   A    
C16   C64   A    
C7    C54   S    
C35   H4    S    
C59   C76   A    
C97   H25   S    
C54   C81   A    
O29   H37   S    
C36   C72   A    
C4    C57   S    
C38   C62   A    
C14   C62   A    
