data_str_m9_o16_o22_f0_sra.sym.9
_audit_creation_date              2012-12-11T15:11:53-0500
_audit_creation_method            fapswitch 2.2
_symmetry_space_group_name_H-M    P1
_symmetry_Int_Tables_number       1
_space_group_crystal_system       triclinic
_cell_length_a                    20.153438
_cell_length_b                    7.099973
_cell_length_c                    13.488414
_cell_angle_alpha                 90.001214
_cell_angle_beta                  103.61423
_cell_angle_gamma                 89.999789
_cell_volume                      1875.81264353

loop_
_atom_site_label
_atom_site_type_symbol
_atom_type_description
_atom_site_fract_x
_atom_site_fract_y
_atom_site_fract_z
_atom_type_partial_charge
O1    O     O_R   0.449830 0.506740 0.599960 -0.535940
O2    O     O_R   0.550170 0.006740 0.400040 -0.535941
O3    O     O_R   0.588980 0.179860 0.596720 -0.546691
O4    O     O_R   0.411020 0.679860 0.403280 -0.546691
C1    C     C_R   0.616463 0.344201 0.619130 0.656049
C2    C     C_R   0.383539 0.844200 0.380865 0.656048
O5    O     O_R   0.452740 0.177340 0.612040 -0.539227
O6    O     O_R   0.547260 0.677340 0.387960 -0.539230
O7    O     O_R   0.412960 0.002070 0.415460 -0.540575
O8    O     O_R   0.587040 0.502070 0.584540 -0.540574
C3    C     C_R   0.436666 0.345724 0.638766 0.690608
C4    C     C_R   0.563334 0.845721 0.361234 0.690604
O9    O     O_3   0.487110 0.337570 0.435490 -0.373117
O10   O     O_3   0.512890 0.837570 0.564510 -0.373115
V1    V     V_3+5 0.502390 0.064650 0.511970 1.393540
V2    V     V_3+5 0.497610 0.564650 0.488030 1.393542
C5    C     C_R   0.608442 0.856566 0.106820 -0.162990
C6    C     C_R   0.391557 0.356525 0.893180 -0.162992
H1    H     H_    0.514890 0.852151 0.156690 0.099223
H2    H     H_    0.485110 0.352118 0.843311 0.099224
H3    H     H_    0.691296 0.860328 0.980539 0.117165
H4    H     H_    0.308703 0.360240 0.019460 0.117175
H5    H     H_    0.582006 0.857341 0.026922 0.111610
H6    H     H_    0.417992 0.357276 0.973078 0.111610
C7    C     C_R   0.602984 0.853236 0.283614 -0.027315
C8    C     C_R   0.397016 0.353245 0.716387 -0.027318
C9    C     C_R   0.931970 0.858009 0.318576 -0.169770
C10   C     C_R   0.068030 0.358024 0.681424 -0.169770
C11   C     C_R   0.896666 0.853530 0.395398 -0.122589
C12   C     C_R   0.103334 0.353561 0.604602 -0.122588
C13   C     C_R   0.825530 0.852369 0.371389 -0.164169
C14   C     C_R   0.174470 0.352393 0.628611 -0.164170
C15   C     C_R   0.787514 0.855427 0.268561 0.077762
C16   C     C_R   0.212486 0.355426 0.731439 0.077764
C17   C     C_R   0.824155 0.858381 0.190088 0.072865
C18   C     C_R   0.175845 0.358356 0.809912 0.072870
C19   C     C_R   0.714535 0.855761 0.240990 0.072041
C20   C     C_R   0.285465 0.355757 0.759010 0.072043
C21   C     C_R   0.680091 0.857327 0.135970 0.146498
C22   C     C_R   0.319908 0.357292 0.864030 0.146500
C23   C     C_R   0.717219 0.859289 0.060693 -0.217985
C24   C     C_R   0.282780 0.359227 0.939307 -0.217997
C25   C     C_R   0.788040 0.860128 0.087137 -0.208186
C26   C     C_R   0.211959 0.360071 0.912863 -0.208194
C27   C     C_R   0.674269 0.854430 0.313889 -0.217657
C28   C     C_R   0.325731 0.354450 0.686112 -0.217657
C29   C     C_R   0.570132 0.853955 0.180302 -0.177187
C30   C     C_R   0.429868 0.353934 0.819699 -0.177184
C31   C     C_R   0.896487 0.860218 0.216301 -0.073669
C32   C     C_R   0.103513 0.360207 0.783699 -0.073669
H7    H     H_    0.987300 0.859862 0.338903 0.096990
H8    H     H_    0.012700 0.359890 0.661096 0.096988
H9    H     H_    0.802104 0.848930 0.435317 0.101624
H10   H     H_    0.197896 0.348970 0.564683 0.101623
H11   H     H_    0.924672 0.851420 0.474455 0.116699
H12   H     H_    0.075329 0.351471 0.525544 0.116700
H13   H     H_    0.814324 0.861904 0.025800 0.110462
H14   H     H_    0.185675 0.361823 0.974199 0.110467
C33   C     C_3   0.214424 0.652435 0.204828 -0.316306
C34   C     C_3   0.785604 0.152417 0.795078 -0.316294
H15   H     H_    0.179330 0.566304 0.238956 0.137973
H16   H     H_    0.820710 0.066399 0.760910 0.137952
H17   H     H_    0.215964 0.587057 0.130402 0.136242
H18   H     H_    0.784073 0.086917 0.869476 0.136246
C35   C     C_3   0.286656 0.647666 0.275961 -0.310434
C36   C     C_3   0.713372 0.147652 0.723946 -0.310420
H19   H     H_    0.322301 0.578994 0.235314 0.134035
H20   H     H_    0.677737 0.078864 0.764567 0.134057
H21   H     H_    0.285605 0.559502 0.343847 0.134209
H22   H     H_    0.714432 0.059600 0.656020 0.134184
H23   H     H_    0.151915 0.863530 0.329678 0.121738
H24   H     H_    0.848085 0.363803 0.670316 0.121731
H25   H     H_    0.259554 0.857684 0.435262 0.128344
H26   H     H_    0.740446 0.357953 0.564731 0.128345
C37   C     C_3   0.187632 0.943638 0.293878 -0.325855
C38   C     C_3   0.812359 0.443799 0.706150 -0.325842
C39   C     C_3   0.238890 0.971752 0.141509 -0.311402
C40   C     C_3   0.761100 0.471596 0.858533 -0.311386
C41   C     C_3   0.187530 0.857868 0.187851 0.117494
C42   C     C_3   0.812473 0.357864 0.812142 0.117478
H27   H     H_    0.221820 0.120784 0.129274 0.138179
H28   H     H_    0.778152 0.620633 0.870835 0.138173
H29   H     H_    0.240432 0.912804 0.065633 0.136581
H30   H     H_    0.759565 0.412519 0.934384 0.136575
C43   C     C_3   0.312402 0.849854 0.310382 0.118315
C44   C     C_3   0.687601 0.349855 0.689610 0.118315
C45   C     C_3   0.260470 0.939431 0.365202 -0.317622
C46   C     C_3   0.739522 0.439592 0.634824 -0.317639
C47   C     C_3   0.311724 0.966795 0.212911 -0.330120
C48   C     C_3   0.688266 0.466646 0.787130 -0.330122
H31   H     H_    0.328998 0.113326 0.234167 0.139334
H32   H     H_    0.670974 0.613186 0.765935 0.139316
H33   H     H_    0.169161 0.091796 0.284888 0.138788
H34   H     H_    0.830811 0.591972 0.715200 0.138811
H35   H     H_    0.276502 0.085542 0.389622 0.133950
H36   H     H_    0.723472 0.585718 0.610464 0.133965
O11   O     O_R   0.912980 0.203550 0.915410 -0.540480
O12   O     O_R   0.087020 0.703550 0.084590 -0.540480
O13   O     O_R   0.047270 0.535570 0.887960 -0.538427
O14   O     O_R   0.952730 0.035570 0.112040 -0.538429
C49   C     C_R   0.063883 0.368203 0.861729 0.688222
C50   C     C_R   0.936117 0.868207 0.138271 0.688229
O15   O     O_R   0.911030 0.532970 0.903270 -0.546170
O16   O     O_R   0.088970 0.032970 0.096730 -0.546172
O17   O     O_R   0.949820 0.708150 0.099970 -0.536133
O18   O     O_R   0.050180 0.208150 0.900030 -0.536136
C51   C     C_R   0.883699 0.364797 0.882109 0.650218
C52   C     C_R   0.116302 0.864799 0.117887 0.650219
O19   O     O_3   0.012900 0.375230 0.064480 -0.372867
O20   O     O_3   0.987100 0.875230 0.935520 -0.372868
V3    V     V_3+5 0.997610 0.648190 0.988040 1.395515
V4    V     V_3+5 0.002390 0.148190 0.011960 1.395514
H37   H     H_    0.348080 0.904667 0.171385 0.123187
H38   H     H_    0.651917 0.404401 0.828630 0.123185
H39   H     H_    0.696385 0.853211 0.394803 0.087423
H40   H     H_    0.303615 0.353251 0.605199 0.087425

loop_
_geom_bond_atom_site_label_1
_geom_bond_atom_site_label_2
_ccdc_geom_bond_type
C36   H20   S    
C46   H36   S    
C9    C11   A    
O1    C3    A    
H24   C38   S    
O2    C4    A    
C2    O7    A    
O3    V1    S    
C21   C23   A    
O18   V4    S    
C40   C48   S    
O5    C3    A    
C42   C51   S    
C39   C47   S    
C5    H5    S    
C2    C43   S    
C6    H6    S    
O15   V3    S    
C20   C22   A    
O19   V3    S    
C44   C46   S    
C39   H29   S    
O12   C52   A    
C50   O17   A    
C34   H16   S    
C5    C21   A    
C6    C22   A    
O20   V3    S    
H25   C45   S    
C38   H34   S    
C10   C32   A    
C26   H14   S    
C35   H19   S    
C45   H35   S    
C17   C31   A    
C13   C15   A    
C47   H31   S    
C17   C25   A    
C7    C29   A    
C16   C18   A    
C8    C30   A    
C43   C45   S    
O17   V3    S    
C34   C36   S    
O6    V2    S    
H23   C37   S    
C22   C24   A    
C23   C25   A    
C24   C26   A    
C14   H10   S    
C9    H7    S    
C39   C41   S    
C47   H37   S    
C33   H15   S    
C38   C42   S    
O4    C2    A    
C44   C48   S    
O19   V4    S    
C33   C41   S    
C31   C50   S    
O16   V4    S    
O11   V4    S    
C43   C47   S    
C11   H11   S    
C3    C8    S    
C12   H12   S    
C15   C19   A    
C14   C16   A    
O4    V2    S    
C40   H28   S    
C48   H32   S    
C39   H27   S    
O6    C4    A    
O13   V3    S    
O14   C50   A    
C40   C42   S    
O1    V2    S    
C13   H9    S    
O2    V1    S    
H2    C30   S    
H3    C23   S    
C1    C44   S    
C37   C45   S    
O13   C49   A    
O14   V4    S    
C18   C26   A    
C19   C27   A    
C7    C27   A    
O16   C52   A    
C18   C32   A    
C37   H33   S    
C49   O18   A    
C38   C46   S    
C34   C42   S    
O12   V3    S    
C16   C20   A    
C5    C29   A    
C27   H39   S    
O3    C1    A    
C6    C30   A    
C36   C44   S    
C35   C43   S    
C36   H22   S    
C33   H17   S    
C28   H40   S    
C4    C7    S    
C34   H18   S    
C10   C12   A    
O7    V1    S    
C1    O8    A    
C11   C13   A    
O8    V2    S    
C33   C35   S    
C12   C14   A    
C10   H8    S    
H4    C24   S    
C35   H21   S    
O5    V1    S    
C15   C17   A    
C41   C52   S    
H1    C29   S    
C48   H38   S    
O20   V4    S    
C20   C28   A    
C25   H13   S    
O11   C51   A    
C40   H30   S    
C32   C49   S    
C19   C21   A    
O9    V2    S    
O10   V1    S    
O15   C51   A    
H26   C46   S    
C8    C28   A    
C37   C41   S    
C9    C31   A    
