data_str_m9_o1_o16_f0_sra.sym.18
_audit_creation_date              2012-12-11T15:47:01-0500
_audit_creation_method            fapswitch 2.2
_symmetry_space_group_name_H-M    P1
_symmetry_Int_Tables_number       1
_space_group_crystal_system       triclinic
_cell_length_a                    20.162739
_cell_length_b                    7.256514
_cell_length_c                    13.55587
_cell_angle_alpha                 90.223539
_cell_angle_beta                  103.03069
_cell_angle_gamma                 89.796986
_cell_volume                      1932.28060136

loop_
_atom_site_label
_atom_site_type_symbol
_atom_type_description
_atom_site_fract_x
_atom_site_fract_y
_atom_site_fract_z
_atom_type_partial_charge
O1    O     O_R   0.449560 0.506810 0.599700 -0.534681
O2    O     O_R   0.550440 0.006810 0.400300 -0.534766
O3    O     O_R   0.587960 0.180060 0.595760 -0.545954
O4    O     O_R   0.412040 0.680060 0.404240 -0.545831
C1    C     C_R   0.614921 0.344147 0.617509 0.682075
C2    C     C_R   0.385084 0.844242 0.382460 0.682284
O5    O     O_R   0.452380 0.177430 0.611700 -0.538551
O6    O     O_R   0.547620 0.677430 0.388300 -0.538566
O7    O     O_R   0.413900 0.001890 0.416350 -0.540891
O8    O     O_R   0.586100 0.501890 0.583650 -0.540788
C3    C     C_R   0.436270 0.346144 0.637468 0.685840
C4    C     C_R   0.563740 0.845187 0.362498 0.685902
O9    O     O_3   0.487530 0.337490 0.435890 -0.378804
O10   O     O_3   0.512470 0.837490 0.564110 -0.378988
V1    V     V_3+5 0.502310 0.064660 0.511890 1.407486
V2    V     V_3+5 0.497690 0.564660 0.488110 1.408187
C5    C     C_R   0.609982 0.841168 0.109676 -0.161184
C6    C     C_R   0.389668 0.401519 0.888531 -0.161036
H1    H     H_    0.516403 0.835065 0.159751 0.105502
H2    H     H_    0.483272 0.397078 0.838438 0.105851
H3    H     H_    0.693110 0.839261 0.983786 0.123038
H4    H     H_    0.306339 0.429149 0.013509 0.123552
H5    H     H_    0.583981 0.834443 0.030509 0.114973
H6    H     H_    0.415507 0.424100 0.966840 0.114877
C7    C     C_R   0.603669 0.851083 0.285177 -0.024915
C8    C     C_R   0.396290 0.356526 0.714647 -0.025140
C9    C     C_R   0.932126 0.870943 0.317332 -0.165129
C10   C     C_R   0.068078 0.328514 0.683900 -0.164987
C11   C     C_R   0.896917 0.872022 0.394892 0.215248
C12   C     C_R   0.103403 0.311562 0.606886 0.216456
C13   C     C_R   0.825688 0.866454 0.371033 -0.171798
C14   C     C_R   0.174547 0.322327 0.630258 -0.172132
C15   C     C_R   0.788098 0.859539 0.269153 0.037052
C16   C     C_R   0.211932 0.350364 0.731087 0.036936
C17   C     C_R   0.824889 0.856992 0.190886 0.063887
C18   C     C_R   0.175019 0.368555 0.808732 0.063939
C19   C     C_R   0.715296 0.855426 0.242277 0.083467
C20   C     C_R   0.284652 0.360522 0.757540 0.083508
C21   C     C_R   0.681350 0.847443 0.138210 0.142364
C22   C     C_R   0.318389 0.389539 0.860518 0.142222
C23   C     C_R   0.718679 0.845084 0.063188 -0.204375
C24   C     C_R   0.280936 0.407053 0.934938 -0.204755
C25   C     C_R   0.789220 0.850059 0.088871 -0.177453
C26   C     C_R   0.210478 0.396597 0.909698 -0.177671
C27   C     C_R   0.674685 0.858323 0.314852 -0.212340
C28   C     C_R   0.325375 0.343509 0.685546 -0.212390
C29   C     C_R   0.571402 0.841972 0.182842 -0.174068
C30   C     C_R   0.428356 0.385832 0.815866 -0.174120
C31   C     C_R   0.896889 0.862954 0.216140 -0.109435
C32   C     C_R   0.103115 0.357111 0.783999 -0.109643
H7    H     H_    0.696287 0.864119 0.395075 0.093285
H8    H     H_    0.303926 0.321815 0.606118 0.093298
H9    H     H_    0.987288 0.876911 0.335580 0.104158
H10   H     H_    0.012996 0.318798 0.666122 0.103687
H11   H     H_    0.801448 0.867918 0.434142 0.117221
H12   H     H_    0.198886 0.307882 0.567635 0.117340
H13   H     H_    0.815594 0.848184 0.027582 0.115766
H14   H     H_    0.183996 0.410974 0.970485 0.116109
C33   C     C_R   0.216850 0.022988 0.224820 -0.152475
C34   C     C_R   0.782271 0.523287 0.777306 -0.154710
H15   H     H_    0.192505 0.155758 0.206993 0.120363
H16   H     H_    0.805895 0.656256 0.796888 0.119302
C35   C     C_R   0.282066 0.018614 0.288178 -0.160641
C36   C     C_R   0.717081 0.518778 0.713871 -0.161213
H17   H     H_    0.305641 0.147590 0.317241 0.118195
H18   H     H_    0.692810 0.647915 0.686494 0.118345
C37   C     C_R   0.316113 0.850211 0.313801 -0.038816
C38   C     C_R   0.683902 0.350093 0.686150 -0.038763
C39   C     C_R   0.283118 0.686279 0.274038 -0.158551
C40   C     C_R   0.717751 0.186018 0.723870 -0.157547
H19   H     H_    0.307563 0.553625 0.291861 0.118925
H20   H     H_    0.694017 0.053161 0.704333 0.118194
C41   C     C_R   0.217909 0.690615 0.210653 -0.158519
C42   C     C_R   0.782942 0.190483 0.787297 -0.155787
H21   H     H_    0.194446 0.561552 0.181521 0.118172
H22   H     H_    0.807104 0.061243 0.814722 0.118888
C43   C     C_R   0.183737 0.859007 0.185253 -0.035810
C44   C     C_R   0.816245 0.359161 0.814805 -0.035803
O11   O     O_R   0.913920 0.203370 0.916260 -0.539525
O12   O     O_R   0.086080 0.703370 0.083740 -0.540380
O13   O     O_R   0.047620 0.535540 0.888290 -0.537637
O14   O     O_R   0.952380 0.035540 0.111710 -0.536932
C45   C     C_R   0.063534 0.367754 0.862112 0.690414
C46   C     C_R   0.936431 0.868778 0.137893 0.690667
O15   O     O_R   0.912040 0.532780 0.904220 -0.546227
O16   O     O_R   0.087960 0.032780 0.095780 -0.545425
O17   O     O_R   0.949550 0.708160 0.099720 -0.535013
O18   O     O_R   0.050450 0.208160 0.900280 -0.534127
C47   C     C_R   0.885431 0.364976 0.883028 0.672958
C48   C     C_R   0.114564 0.864871 0.117004 0.673187
O19   O     O_3   0.012480 0.375300 0.064060 -0.378254
O20   O     O_3   0.987520 0.875300 0.935940 -0.378213
V3    V     V_3+5 0.997690 0.648180 0.988110 1.409585
V4    V     V_3+5 0.002310 0.148180 0.011890 1.413175
C49   C     C_3   0.934836 0.880056 0.503803 -0.792838
H23   H     H_    0.990818 0.883328 0.511095 0.214770
H24   H     H_    0.919746 0.006043 0.540153 0.205881
H25   H     H_    0.922390 0.756926 0.544482 0.209916
C50   C     C_3   0.065710 0.280922 0.499140 -0.793746
H26   H     H_    0.009776 0.275541 0.492114 0.215440
H27   H     H_    0.076881 0.395040 0.451055 0.210082
H28   H     H_    0.082213 0.148551 0.470815 0.205373

loop_
_geom_bond_atom_site_label_1
_geom_bond_atom_site_label_2
_ccdc_geom_bond_type
C20   C22   A    
C35   H17   S    
O14   V4    S    
C9    C11   A    
C41   H21   S    
C49   H23   S    
O1    C3    A    
C46   O17   A    
O2    C4    A    
C33   C43   A    
C2    O7    A    
C49   H25   S    
C18   C32   A    
C21   C23   A    
O5    C3    A    
C34   C44   A    
C5    H5    S    
C42   H22   S    
C6    H6    S    
C36   C38   A    
C31   C46   S    
H1    C29   S    
C27   H7    S    
C28   H8    S    
C34   H16   S    
C5    C21   A    
C39   H19   S    
C6    C22   A    
O16   V4    S    
C10   C32   A    
C26   H14   S    
C40   C42   A    
C13   C15   A    
C39   C41   A    
C17   C25   A    
C7    C29   A    
C8    C30   A    
O5    V1    S    
C45   O18   A    
O6    V2    S    
C23   C25   A    
O15   V3    S    
C1    C38   S    
O13   C45   A    
C32   C45   S    
O18   V4    S    
C44   C47   S    
C19   C21   A    
C35   C37   A    
C43   C48   S    
C33   H15   S    
O11   C47   A    
O11   V4    S    
O4    C2    A    
O16   C48   A    
C11   C49   S    
C10   H10   S    
C3    C8    S    
C12   C50   S    
C15   C19   A    
C37   C39   A    
C14   C16   A    
O4    V2    S    
C17   C31   A    
O13   V3    S    
C50   H26   S    
O6    C4    A    
C49   H24   S    
O1    V2    S    
O2    V1    S    
H2    C30   S    
H3    C23   S    
C2    C37   S    
C50   H27   S    
O14   C46   A    
C18   C26   A    
C19   C27   A    
C7    C27   A    
O3    V1    S    
O15   C47   A    
C16   C20   A    
C5    C29   A    
O3    C1    A    
C6    C30   A    
C9    H9    S    
C33   C35   A    
C4    C7    S    
C34   C36   A    
C10   C12   A    
O7    V1    S    
C24   C26   A    
C1    O8    A    
C11   C13   A    
O8    V2    S    
O19   V4    S    
C12   C14   A    
H4    C24   S    
O17   V3    S    
C22   C24   A    
O20   V3    S    
C15   C17   A    
C16   C18   A    
O12   C48   A    
C20   C28   A    
C25   H13   S    
C50   H28   S    
C38   C40   A    
C42   C44   A    
O9    V2    S    
C41   C43   A    
O10   V1    S    
C40   H20   S    
C13   H11   S    
O12   V3    S    
C8    C28   A    
C14   H12   S    
C9    C31   A    
C36   H18   S    
