data_str_m4_o14_o24_f0_acs.sym.104
_audit_creation_date              2012-12-11T14:24:40-0500
_audit_creation_method            fapswitch 2.2
_symmetry_space_group_name_H-M    P1
_symmetry_Int_Tables_number       1
_space_group_crystal_system       triclinic
_cell_length_a                    19.246309
_cell_length_b                    10.930467
_cell_length_c                    18.770677
_cell_angle_alpha                 90.06802
_cell_angle_beta                  91.109518
_cell_angle_gamma                 89.247795
_cell_volume                      3947.72650378

loop_
_atom_site_label
_atom_site_type_symbol
_atom_type_description
_atom_site_fract_x
_atom_site_fract_y
_atom_site_fract_z
_atom_type_partial_charge
C1    C     C_R   0.728384 0.375486 0.145733 0.542937
C2    C     C_R   0.271048 0.375591 0.853923 0.532509
C3    C     C_R   0.230657 0.878887 0.147433 0.540949
C4    C     C_R   0.769294 0.878747 0.852492 0.539210
C5    C     C_3   0.480212 0.055391 0.026992 -0.104591
C6    C     C_3   0.535690 0.070498 0.969608 -0.111439
C7    C     C_3   0.028248 0.546662 0.015026 -0.099163
C8    C     C_3   0.067017 0.611314 0.954671 -0.126580
C9    C     C_R   0.749135 0.922608 0.923407 -0.006642
C10   C     C_R   0.249985 0.921313 0.076190 -0.010526
C11   C     C_R   0.257004 0.409383 0.927852 -0.001287
C12   C     C_R   0.740743 0.409223 0.071522 0.004419
C13   C     C_R   0.697063 0.863214 0.961802 0.006428
C14   C     C_R   0.305371 0.866533 0.039099 0.008052
C15   C     C_R   0.195183 0.376417 0.960860 0.001821
C16   C     C_R   0.805264 0.388969 0.040416 -0.003252
C17   C     C_R   0.702279 0.856959 0.036990 0.018003
C18   C     C_R   0.301579 0.858791 0.963713 0.015942
C19   C     C_R   0.194543 0.364235 0.035933 0.025354
C20   C     C_R   0.808208 0.372646 0.965737 0.015879
C21   C     C_R   0.796852 0.001553 0.033286 -0.153343
C22   C     C_R   0.198958 0.989012 0.964799 -0.158037
C23   C     C_R   0.310597 0.446725 0.042972 -0.154816
C24   C     C_R   0.686998 0.430577 0.954314 -0.149304
C25   C     C_R   0.796777 0.995564 0.960110 -0.154251
C26   C     C_R   0.198819 0.985788 0.037910 -0.163433
C27   C     C_R   0.314908 0.439806 0.970318 -0.144561
C28   C     C_R   0.681585 0.425906 0.027314 -0.148640
C29   C     C_R   0.641903 0.804370 0.926814 -0.072767
C30   C     C_R   0.361849 0.811453 0.075487 -0.075758
C31   C     C_R   0.137048 0.340855 0.920050 -0.077282
C32   C     C_R   0.864219 0.364148 0.083115 -0.079765
C33   C     C_R   0.091914 0.256322 0.946806 0.011972
C34   C     C_R   0.912113 0.278525 0.059843 0.009764
C35   C     C_R   0.603787 0.717070 0.961402 0.022225
C36   C     C_R   0.402651 0.724216 0.042074 0.013034
C37   C     C_R   0.615740 0.697072 0.034248 -0.099371
C38   C     C_R   0.392392 0.702956 0.969152 -0.104121
C39   C     C_R   0.095550 0.229557 0.019643 -0.136813
C40   C     C_R   0.910350 0.244610 0.987909 -0.125578
C41   C     C_R   0.662129 0.770231 0.072594 -0.103526
C42   C     C_R   0.345248 0.774229 0.929360 -0.102499
C43   C     C_R   0.142903 0.290071 0.065136 -0.123531
C44   C     C_R   0.863333 0.300812 0.939500 -0.115940
C45   C     C_R   0.532742 0.155714 0.144006 0.545003
C46   C     C_R   0.467705 0.155391 0.855710 0.554550
C47   C     C_R   0.061326 0.651104 0.137135 0.568642
C48   C     C_R   0.968068 0.655745 0.855519 0.559429
C49   C     C_R   0.749680 0.933910 0.073125 -0.002965
C50   C     C_R   0.250831 0.929404 0.926243 -0.007805
C51   C     C_R   0.249914 0.415860 0.077107 0.000060
C52   C     C_R   0.750837 0.412994 0.922434 -0.000196
C53   C     C_R   0.456529 0.152522 0.563274 0.004460
C54   C     C_R   0.493837 0.166644 0.419144 -0.005931
C55   C     C_R   0.956523 0.652517 0.563270 0.004671
C56   C     C_R   0.993830 0.666637 0.419139 -0.007024
C57   C     C_R   0.439469 0.055298 0.515029 0.014700
C58   C     C_R   0.450737 0.071345 0.441199 0.028219
C59   C     C_R   0.939469 0.555283 0.515025 0.014835
C60   C     C_R   0.950740 0.571324 0.441194 0.027842
C61   C     C_R   0.518484 0.249697 0.469527 -0.156902
C62   C     C_R   0.496598 0.248530 0.539115 -0.127515
C63   C     C_R   0.018467 0.749706 0.469519 -0.157736
C64   C     C_R   0.996583 0.748535 0.539108 -0.127276
C65   C     C_R   0.417237 0.938838 0.537200 -0.114561
C66   C     C_R   0.425521 0.983565 0.392109 -0.080731
C67   C     C_R   0.917239 0.438824 0.537198 -0.114523
C68   C     C_R   0.925537 0.483526 0.392105 -0.080777
C69   C     C_R   0.905739 0.345560 0.487983 -0.140070
C70   C     C_R   0.906079 0.369184 0.415636 -0.102415
C71   C     C_R   0.405727 0.845583 0.487983 -0.140129
C72   C     C_R   0.406056 0.869224 0.415639 -0.102022
C73   C     C_R   0.757057 0.938823 0.577099 -0.003390
C74   C     C_R   0.208379 0.847671 0.436775 -0.000324
C75   C     C_R   0.257057 0.438817 0.577098 -0.003783
C76   C     C_R   0.708383 0.347670 0.436775 -0.000094
C77   C     C_R   0.815757 0.964603 0.534585 0.037702
C78   C     C_R   0.172254 0.951698 0.465079 0.037069
C79   C     C_R   0.315757 0.464585 0.534582 0.037585
C80   C     C_R   0.672256 0.451693 0.465080 0.037151
C81   C     C_R   0.812611 0.932302 0.462868 0.013770
C82   C     C_R   0.200864 0.004700 0.525289 0.026847
C83   C     C_R   0.312609 0.432279 0.462865 0.013965
C84   C     C_R   0.700867 0.504698 0.525288 0.026859
C85   C     C_R   0.686776 0.933870 0.471036 -0.151567
C86   C     C_R   0.263524 0.813124 0.551086 -0.158541
C87   C     C_R   0.186774 0.433869 0.471036 -0.151469
C88   C     C_R   0.763532 0.313127 0.551084 -0.158499
C89   C     C_R   0.741420 0.971359 0.147783 0.536114
C90   C     C_R   0.258731 0.969804 0.852009 0.541853
C91   C     C_R   0.241327 0.468153 0.148795 0.535609
C92   C     C_R   0.758931 0.467503 0.851256 0.546364
C93   C     C_R   0.691986 0.934382 0.544962 -0.186501
C94   C     C_R   0.249659 0.774381 0.481785 -0.160477
C95   C     C_R   0.191985 0.434381 0.544963 -0.186597
C96   C     C_R   0.749667 0.274384 0.481783 -0.160496
C97   C     C_R   0.876792 0.022625 0.560323 -0.092056
C98   C     C_R   0.112555 0.010719 0.432999 -0.090556
C99   C     C_R   0.376793 0.522608 0.560315 -0.092077
C100  C     C_R   0.612554 0.510705 0.433003 -0.090587
C101  C     C_R   0.935092 0.029921 0.518120 -0.152998
C102  C     C_R   0.088308 0.123332 0.455670 -0.147161
C103  C     C_R   0.435091 0.529902 0.518109 -0.152846
C104  C     C_R   0.588306 0.623318 0.455672 -0.147247
C105  C     C_R   0.933171 0.981124 0.449752 -0.114639
C106  C     C_R   0.122836 0.181175 0.510053 -0.121575
C107  C     C_R   0.433169 0.481093 0.449743 -0.114615
C108  C     C_R   0.622838 0.681171 0.510050 -0.121556
C109  C     C_R   0.873934 0.925754 0.423707 -0.074499
C110  C     C_R   0.182828 0.128032 0.539279 -0.072169
C111  C     C_R   0.373930 0.425723 0.423702 -0.074661
C112  C     C_R   0.682832 0.628031 0.539275 -0.072081
C113  C     C_R   0.747316 0.929024 0.429624 0.001843
C114  C     C_R   0.244077 0.931668 0.570903 0.011524
C115  C     C_R   0.247313 0.429016 0.429622 0.001841
C116  C     C_R   0.744081 0.431669 0.570902 0.011759
C117  C     C_R   0.708478 0.326829 0.360146 0.572627
C118  C     C_R   0.269475 0.384624 0.647381 0.525642
C119  C     C_R   0.208477 0.826828 0.360146 0.573092
C120  C     C_R   0.769477 0.884621 0.647379 0.524462
C121  C     C_R   0.530640 0.158049 0.351617 0.521037
C122  C     C_R   0.436913 0.152041 0.638758 0.554063
C123  C     C_R   0.030635 0.658048 0.351612 0.528946
C124  C     C_R   0.936912 0.652039 0.638757 0.553768
C125  C     C_R   0.741420 0.971683 0.356749 0.526694
C126  C     C_R   0.258349 0.975303 0.642111 0.530892
C127  C     C_R   0.241419 0.471682 0.356749 0.527493
C128  C     C_R   0.758350 0.475304 0.642111 0.530112
C129  C     C_3   0.519986 0.270087 0.972334 -0.133018
C130  C     C_3   0.464577 0.255117 0.030384 -0.135053
C131  C     C_3   0.007059 0.780099 0.974700 -0.115573
C132  C     C_3   0.968553 0.715479 0.035530 -0.112672
C133  C     C_3   0.568210 0.177207 0.011862 -0.112824
C134  C     C_3   0.431994 0.148141 0.987873 -0.105042
C135  C     C_3   0.077086 0.725158 0.002747 -0.139958
C136  C     C_3   0.958659 0.601762 0.987981 -0.106390
C137  C     C_3   0.512156 0.162245 0.068527 0.051115
C138  C     C_3   0.488119 0.162910 0.931159 0.052259
C139  C     C_3   0.037946 0.660133 0.062069 0.046448
C140  C     C_3   0.997689 0.665444 0.928106 0.048262
Cr1   Cr    Cr6+3 0.772820 0.169820 0.252640 0.985064
Cr2   Cr    Cr6+3 0.227180 0.169820 0.747360 0.993126
Cr3   Cr    Cr6+3 0.272820 0.669820 0.252640 0.981763
Cr4   Cr    Cr6+3 0.727180 0.669820 0.747360 0.996963
Cr5   Cr    Cr6+3 0.615040 0.323610 0.249150 0.983658
Cr6   Cr    Cr6+3 0.384960 0.323610 0.750850 1.001107
Cr7   Cr    Cr6+3 0.115040 0.823610 0.249150 0.986153
Cr8   Cr    Cr6+3 0.884960 0.823610 0.750850 1.005000
Cr9   Cr    Cr6+3 0.616720 0.011130 0.250660 1.001001
Cr10  Cr    Cr6+3 0.383280 0.011130 0.749340 0.991292
Cr11  Cr    Cr6+3 0.116720 0.511130 0.250660 0.991026
Cr12  Cr    Cr6+3 0.883280 0.511130 0.749340 0.988435
H1    H     H_    0.624652 0.187097 0.023368 0.125941
H2    H     H_    0.375626 0.136156 0.976480 0.127842
H3    H     H_    0.126703 0.773859 0.010582 0.127416
H4    H     H_    0.909282 0.552159 0.980471 0.138092
H5    H     H_    0.557774 0.312152 0.456002 0.122272
H6    H     H_    0.515633 0.318341 0.575274 0.149923
H7    H     H_    0.057747 0.812182 0.455992 0.121844
H8    H     H_    0.015612 0.818356 0.575265 0.150039
H9    H     H_    0.412222 0.913237 0.591846 0.167422
H10   H     H_    0.425432 0.999559 0.335210 0.129056
H11   H     H_    0.912215 0.413236 0.591844 0.167440
H12   H     H_    0.925446 0.499511 0.335204 0.132456
H13   H     H_    0.893147 0.255693 0.506274 0.120443
H14   H     H_    0.893269 0.297782 0.377852 0.141561
H15   H     H_    0.393139 0.755711 0.506270 0.120430
H16   H     H_    0.393238 0.797828 0.377855 0.141825
H17   H     H_    0.635406 0.939200 0.446506 0.160045
H18   H     H_    0.293537 0.755061 0.587217 0.112849
H19   H     H_    0.135403 0.439206 0.446507 0.159920
H20   H     H_    0.793546 0.255066 0.587215 0.112877
H21   H     H_    0.879054 0.068561 0.611375 0.131541
H22   H     H_    0.082017 0.970211 0.390892 0.145643
H23   H     H_    0.379057 0.568550 0.611365 0.131695
H24   H     H_    0.582015 0.470191 0.390899 0.145543
H25   H     H_    0.646077 0.930374 0.577236 0.125266
H26   H     H_    0.272962 0.690447 0.462538 0.142135
H27   H     H_    0.146076 0.430379 0.577237 0.125069
H28   H     H_    0.772972 0.190454 0.462535 0.142027
H29   H     H_    0.980975 0.074793 0.538586 0.120862
H30   H     H_    0.042949 0.166154 0.430833 0.112230
H31   H     H_    0.480974 0.574775 0.538572 0.120904
H32   H     H_    0.542944 0.666134 0.430839 0.112203
H33   H     H_    0.976070 0.987940 0.415058 0.099924
H34   H     H_    0.101852 0.266139 0.529293 0.116653
H35   H     H_    0.476067 0.487903 0.415048 0.099458
H36   H     H_    0.601855 0.766136 0.529287 0.116714
H37   H     H_    0.874276 0.889036 0.370051 0.127050
H38   H     H_    0.214403 0.182058 0.573558 0.171024
H39   H     H_    0.374268 0.389004 0.370045 0.125020
H40   H     H_    0.714407 0.682058 0.573554 0.171080
H41   H     H_    0.535279 0.357038 0.947494 0.096916
H42   H     H_    0.437410 0.329776 0.058572 0.102137
H43   H     H_    0.998438 0.875966 0.956842 0.111349
H44   H     H_    0.928255 0.757550 0.069664 0.122743
H45   H     H_    0.465099 0.967450 0.050869 0.134323
H46   H     H_    0.564145 0.996887 0.942003 0.123039
H47   H     H_    0.034501 0.451213 0.033464 0.156393
H48   H     H_    0.107557 0.575912 0.918841 0.112241
H49   H     H_    0.834249 0.061208 0.058536 0.164051
H50   H     H_    0.157560 0.038991 0.938304 0.164107
H51   H     H_    0.355264 0.477818 0.072778 0.139396
H52   H     H_    0.641022 0.448015 0.922252 0.129446
H53   H     H_    0.628124 0.824967 0.871918 0.130438
H54   H     H_    0.373171 0.832101 0.130874 0.129494
H55   H     H_    0.130614 0.367527 0.864781 0.129612
H56   H     H_    0.866735 0.392998 0.138328 0.130923
H57   H     H_    0.836948 0.043359 0.932354 0.138735
H58   H     H_    0.154957 0.025939 0.064453 0.146251
H59   H     H_    0.365456 0.453252 0.947912 0.143389
H60   H     H_    0.629871 0.430498 0.048793 0.138963
H61   H     H_    0.064162 0.157854 0.040203 0.105337
H62   H     H_    0.941343 0.168465 0.970950 0.107363
H63   H     H_    0.589805 0.625082 0.061709 0.106961
H64   H     H_    0.419502 0.630034 0.942874 0.100928
H65   H     H_    0.669383 0.752875 0.128985 0.130503
H66   H     H_    0.339353 0.755266 0.873008 0.127447
H67   H     H_    0.143919 0.266852 0.121141 0.132578
H68   H     H_    0.863995 0.272686 0.884236 0.125868
O1    O     O_R   0.788190 0.043000 0.172520 -0.526480
O2    O     O_R   0.211810 0.043000 0.827480 -0.522752
O3    O     O_R   0.288190 0.543000 0.172520 -0.521402
O4    O     O_R   0.711810 0.543000 0.827480 -0.515413
O5    O     O_R   0.556550 0.253260 0.323480 -0.539067
O6    O     O_R   0.443450 0.253260 0.676520 -0.496495
O7    O     O_R   0.056550 0.753260 0.323480 -0.534551
O8    O     O_R   0.943450 0.753260 0.676520 -0.496874
O9    O     O_R   0.545830 0.051610 0.330160 -0.526617
O10   O     O_R   0.454170 0.051610 0.669840 -0.537943
O11   O     O_R   0.045830 0.551610 0.330160 -0.523694
O12   O     O_R   0.954170 0.551610 0.669840 -0.538583
O13   O     O_R   0.681920 0.959720 0.327070 -0.505541
O14   O     O_R   0.318080 0.959720 0.672930 -0.539450
O15   O     O_R   0.181920 0.459720 0.327070 -0.505017
O16   O     O_R   0.818080 0.459720 0.672930 -0.539844
O17   O     O_3   0.668190 0.168190 0.250820 -0.269918
O18   O     O_3   0.331810 0.168190 0.749180 -0.263130
O19   O     O_3   0.168190 0.668190 0.250820 -0.285006
O20   O     O_3   0.831810 0.668190 0.749180 -0.262413
O21   O     O_R   0.766240 0.292300 0.176860 -0.502853
O22   O     O_R   0.233760 0.292300 0.823140 -0.505551
O23   O     O_R   0.266240 0.792300 0.176860 -0.503761
O24   O     O_R   0.733760 0.792300 0.823140 -0.505166
O25   O     O_R   0.670310 0.409160 0.168720 -0.527133
O26   O     O_R   0.329690 0.409160 0.831280 -0.531517
O27   O     O_R   0.170310 0.909160 0.168720 -0.529703
O28   O     O_R   0.829690 0.909160 0.831280 -0.526425
O29   O     O_R   0.556160 0.251900 0.173380 -0.508120
O30   O     O_R   0.443840 0.251900 0.826620 -0.500839
O31   O     O_R   0.056160 0.751900 0.173380 -0.502192
O32   O     O_R   0.943840 0.751900 0.826620 -0.497482
O33   O     O_R   0.545410 0.050140 0.168240 -0.522980
O34   O     O_R   0.454590 0.050140 0.831760 -0.516963
O35   O     O_R   0.045410 0.550140 0.168240 -0.527278
O36   O     O_R   0.954590 0.550140 0.831760 -0.517726
O37   O     O_R   0.681530 0.958350 0.176970 -0.501768
O38   O     O_R   0.318470 0.958350 0.823030 -0.505627
O39   O     O_R   0.181530 0.458350 0.176970 -0.520617
O40   O     O_R   0.818470 0.458350 0.823030 -0.509714
O41   O     O_R   0.788610 0.044480 0.334450 -0.537639
O42   O     O_R   0.211390 0.044480 0.665550 -0.524720
O43   O     O_R   0.288610 0.544480 0.334450 -0.537465
O44   O     O_R   0.711390 0.544480 0.665550 -0.525638
O45   O     O_R   0.766630 0.293670 0.326970 -0.505596
O46   O     O_R   0.233370 0.293670 0.673030 -0.522052
O47   O     O_R   0.266630 0.793670 0.326970 -0.504872
O48   O     O_R   0.733370 0.793670 0.673030 -0.522598
O49   O     O_R   0.670730 0.410640 0.330640 -0.533008
O50   O     O_R   0.329270 0.410640 0.669360 -0.535269
O51   O     O_R   0.170730 0.910640 0.330640 -0.533455
O52   O     O_R   0.829270 0.910640 0.669360 -0.536462
C141  C     C_3   0.049392 0.183393 0.894355 -0.408429
H69   H     H_    0.004769 0.239329 0.874046 0.133984
H70   H     H_    0.081559 0.157321 0.848088 0.151808
H71   H     H_    0.031936 0.096363 0.918024 0.102507
C142  C     C_3   0.954064 0.208966 0.114990 -0.403322
H72   H     H_    0.000678 0.261798 0.130888 0.134384
H73   H     H_    0.922739 0.194288 0.163297 0.143266
H74   H     H_    0.968449 0.116399 0.095427 0.113087
C143  C     C_3   0.553582 0.644429 0.917656 -0.409104
H75   H     H_    0.513087 0.707265 0.895388 0.129937
H76   H     H_    0.580199 0.602681 0.871556 0.147320
H77   H     H_    0.530774 0.570319 0.949249 0.104077
C144  C     C_3   0.453025 0.651019 0.086890 -0.413518
H78   H     H_    0.493873 0.712498 0.108051 0.131220
H79   H     H_    0.426220 0.612072 0.133355 0.140882
H80   H     H_    0.475734 0.573788 0.056554 0.110344

loop_
_geom_bond_atom_site_label_1
_geom_bond_atom_site_label_2
_ccdc_geom_bond_type
C128  O16   A    
C99   C103  A    
C111  H39   S    
C55   C59   A    
Cr8   O52   S    
C73   C93   A    
C136  C140  S    
C75   C95   A    
C143  H77   S    
C133  C137  S    
C84   C112  A    
C103  H31   S    
C79   C99   A    
C5    C6    S    
Cr10  O34   S    
C123  O7    A    
C100  C104  A    
C141  H71   S    
C121  O5    A    
C94   H26   S    
C9    C13   A    
C46   O30   A    
C131  C140  S    
C92   O40   A    
C11   C15   A    
C50   C90   S    
C66   C72   A    
C12   C16   A    
Cr9   O17   S    
C87   C115  A    
C59   C60   A    
C8    C135  S    
C130  C134  S    
C68   H12   S    
Cr8   O32   S    
C97   H21   S    
C102  H30   S    
C56   C123  S    
C21   H49   S    
Cr6   O50   S    
C106  H34   S    
Cr12  O36   S    
C48   C140  S    
C98   C102  A    
Cr5   O5    S    
C110  H38   S    
C85   H17   S    
C32   C34   A    
C48   O32   A    
C135  C139  S    
C31   H55   S    
C78   C82   A    
C11   C27   A    
C16   C20   A    
C87   H19   S    
C96   H28   S    
C124  O12   A    
C129  C133  S    
C90   O38   A    
C93   H25   S    
Cr8   O20   S    
Cr1   O41   S    
C108  H36   S    
C131  H43   S    
C42   H66   S    
Cr10  O10   S    
C117  O49   A    
C5    C137  S    
Cr12  O16   S    
C54   C61   A    
C30   C36   A    
C119  O51   A    
C29   C35   A    
C127  O15   A    
C120  O52   A    
Cr5   O25   S    
C8    C140  S    
C144  H79   S    
C1    O25   A    
C76   C96   A    
Cr4   O24   S    
C69   C70   A    
C65   H9    S    
C73   C77   A    
C103  C107  A    
C75   C79   A    
Cr1   O1    S    
C88   C116  A    
Cr8   O8    S    
C63   H7    S    
C21   C49   A    
Cr11  O39   S    
C7    C8    S    
C132  C139  S    
Cr5   O29   S    
C53   C122  S    
C18   C42   A    
C89   O1    A    
C114  C126  S    
Cr9   O33   S    
C29   H53   S    
Cr4   O20   S    
C59   C67   A    
C85   C93   A    
Cr11  O11   S    
Cr6   O18   S    
C87   C95   A    
Cr7   O51   S    
C77   C97   A    
C32   H56   S    
C24   C28   A    
C47   O31   A    
C84   C116  A    
C71   H15   S    
C142  H72   S    
C72   H16   S    
C1    C12   S    
C2    C11   S    
C27   H59   S    
C20   C44   A    
C121  O9    A    
C39   H61   S    
C83   C115  A    
C10   C14   A    
C17   C49   A    
Cr7   O7    S    
C143  H76   S    
C5    H45   S    
Cr2   O22   S    
Cr9   O13   S    
C132  C136  S    
Cr11  O15   S    
C26   H58   S    
C2    O22   A    
Cr9   O37   S    
C61   H5    S    
C54   C121  S    
C74   C78   A    
Cr3   O23   S    
C8    H48   S    
C47   C139  S    
C101  H29   S    
C129  C130  S    
C105  C109  A    
C40   H62   S    
C86   H18   S    
C107  C111  A    
Cr2   O46   S    
C41   H65   S    
C15   C31   A    
Cr7   O19   S    
C16   C32   A    
C13   C17   A    
Cr9   O9    S    
C85   C113  A    
C7    C136  S    
C57   C58   A    
C33   C141  S    
C141  H70   S    
C46   O34   A    
C37   C41   A    
C61   C62   A    
C126  O14   A    
C69   H13   S    
C91   O39   A    
C63   C64   A    
C67   H11   S    
C40   C44   A    
C99   H23   S    
C142  H74   S    
C125  O41   A    
C4    C9    S    
C4    O24   A    
C117  O45   A    
Cr12  O12   S    
C24   C52   A    
C88   C96   A    
C120  O48   A    
C74   C94   A    
C80   C84   A    
C9    C25   A    
C15   C19   A    
Cr7   O31   S    
C12   C28   A    
C13   C29   A    
C6    C133  S    
C106  C110  A    
C122  O6    A    
C66   H10   S    
C21   C25   A    
C51   C91   S    
C44   H68   S    
C100  H24   S    
C62   H6    S    
C22   C50   A    
C73   C120  S    
Cr4   O48   S    
C75   C118  S    
C3    O27   A    
C36   C144  S    
C19   C43   A    
C22   H50   S    
C76   C80   A    
C38   H64   S    
C53   C57   A    
Cr6   O6    S    
Cr1   O21   S    
C56   C60   A    
C47   O35   A    
C144  H78   S    
Cr3   O19   S    
C112  H40   S    
C92   O4    A    
C64   H8    S    
C104  H32   S    
C34   C142  S    
C81   C109  A    
C83   C111  A    
C52   C92   S    
Cr3   O43   S    
C91   O3    A    
C131  C132  S    
Cr4   O44   S    
C104  C108  A    
C18   C50   A    
Cr2   O18   S    
C55   C124  S    
C43   H67   S    
C57   C65   A    
C130  H42   S    
C38   C42   A    
C28   H60   S    
Cr11  O19   S    
Cr6   O26   S    
C76   C117  S    
C36   C38   A    
C2    O26   A    
Cr10  O14   S    
C79   C83   A    
C134  H2    S    
C136  H4    S    
C127  O43   A    
C128  O44   A    
C108  C112  A    
C71   C72   A    
C123  O11   A    
C60   C68   A    
C77   C81   A    
C22   C26   A    
C81   C113  A    
Cr2   O42   S    
C130  C137  S    
C37   H63   S    
C88   H20   S    
C14   C18   A    
C135  H3    S    
C74   C119  S    
C33   C39   A    
Cr6   O30   S    
C133  H1    S    
C82   C110  A    
C35   C37   A    
C90   O2    A    
C144  H80   S    
C131  C135  S    
C70   H14   S    
Cr3   O3    S    
C98   H22   S    
C113  C125  S    
C30   H54   S    
C107  H35   S    
Cr8   O28   S    
C115  C127  S    
C126  O42   A    
Cr5   O49   S    
C105  H33   S    
C4    O28   A    
C86   C94   A    
C118  O46   A    
C58   C66   A    
C129  C138  S    
C109  H37   S    
Cr10  O18   S    
Cr5   O17   S    
C78   C98   A    
C31   C33   A    
C23   C27   A    
C48   O36   A    
C46   C138  S    
C45   O29   A    
C10   C26   A    
Cr7   O27   S    
C80   C100  A    
C14   C30   A    
C124  O8    A    
C101  C105  A    
C5    C134  S    
C122  O10   A    
C89   O37   A    
C82   C114  A    
C6    H46   S    
C39   C43   A    
C143  H75   S    
C65   C71   A    
C23   H51   S    
C67   C69   A    
Cr1   O45   S    
C6    C138  S    
C53   C62   A    
Cr12  O40   S    
C23   C51   A    
Cr12  O20   S    
C119  O47   A    
C55   C64   A    
C45   C137  S    
C141  H69   S    
C56   C63   A    
C3    O23   A    
C25   H57   S    
C1    O21   A    
C95   H27   S    
C142  H73   S    
Cr11  O35   S    
C54   C58   A    
C24   H52   S    
Cr1   O17   S    
C49   C89   S    
C134  C138  S    
C129  H41   S    
C86   C114  A    
C35   C143  S    
C20   C52   A    
C3    C10   S    
Cr10  O38   S    
C7    C139  S    
C102  C106  A    
Cr3   O47   S    
C7    H47   S    
C17   C41   A    
Cr4   O4    S    
C125  O13   A    
C19   C51   A    
C68   C70   A    
C116  C128  S    
C132  H44   S    
C34   C40   A    
C118  O50   A    
Cr2   O2    S    
C97   C101  A    
C45   O33   A    
