data_str_m2_o1_o17_f0_pcu.sym.83
_audit_creation_date              2012-10-26T20:43:06-0400
_audit_creation_method            fapswitch 2.2
_symmetry_space_group_name_H-M    P1
_symmetry_Int_Tables_number       1
_space_group_crystal_system       triclinic
_cell_length_a                    10.827006
_cell_length_b                    9.644589
_cell_length_c                    15.029209
_cell_angle_alpha                 89.509207
_cell_angle_beta                  93.797222
_cell_angle_gamma                 89.791285
_cell_volume                      1565.86372624

loop_
_atom_site_label
_atom_site_type_symbol
_atom_type_description
_atom_site_fract_x
_atom_site_fract_y
_atom_site_fract_z
_atom_type_partial_charge
C1    C     C_R   0.262617 0.500154 0.501788 0.573400
C2    C     C_R   0.128600 0.500352 0.502872 0.010661
C3    C     C_R   0.430577 0.075146 0.436342 0.126339
C4    C     C_R   0.569552 0.924863 0.563560 0.125702
C5    C     C_R   0.568749 0.072875 0.563895 0.116058
C6    C     C_R   0.431063 0.927098 0.436150 0.121859
C7    C     C_R   0.495044 0.500595 0.329195 0.578255
C8    C     C_R   0.505519 0.499403 0.670842 0.573159
C9    C     C_R   0.621231 0.492823 0.820567 0.061739
C10   C     C_R   0.380151 0.508925 0.179484 0.026505
C11   C     C_R   0.509185 0.497300 0.767585 0.002017
C12   C     C_R   0.737376 0.499829 0.498230 0.571261
C13   C     C_R   0.491913 0.502750 0.232529 0.013921
C14   C     C_R   0.396887 0.506599 0.806212 -0.108690
C15   C     C_R   0.604262 0.492541 0.194109 -0.102743
C16   C     C_R   0.392101 0.516189 0.898703 -0.010378
C17   C     C_R   0.609488 0.484737 0.101564 0.005455
C18   C     C_R   0.502867 0.498233 0.953400 0.016974
C19   C     C_R   0.498786 0.502795 0.046750 0.025143
C20   C     C_R   0.617605 0.475959 0.914423 0.004555
C21   C     C_R   0.384066 0.525440 0.085633 -0.039626
C22   C     C_R   0.279829 0.549789 0.936551 0.079770
C23   C     C_R   0.277386 0.563169 0.029893 -0.003024
C24   C     C_R   0.722053 0.452698 0.063638 0.049862
C25   C     C_2   0.738368 0.527922 0.779415 0.610594
C26   C     C_2   0.262574 0.475743 0.220629 0.560599
C27   C     C_2   0.167440 0.581932 0.877861 0.609409
C28   C     C_2   0.835689 0.421846 0.121695 0.563256
C29   C     C_2   0.169865 0.632689 0.068484 0.327512
C30   C     C_2   0.836256 0.375632 0.934588 0.346339
C31   C     C_2   0.350377 0.148245 0.367795 0.641241
C32   C     C_2   0.650029 0.851835 0.631961 0.642707
C33   C     C_2   0.640116 0.143673 0.636750 0.656565
C34   C     C_R   0.724532 0.439596 0.970464 0.005690
C35   C     C_2   0.357546 0.856272 0.364260 0.652965
C36   C     C_R   0.065068 0.374829 0.509508 -0.114844
C37   C     C_R   0.934926 0.625062 0.490692 -0.118115
C38   C     C_R   0.937116 0.374295 0.505752 -0.103318
C39   C     C_R   0.062859 0.625609 0.494626 -0.107861
C40   C     C_R   0.871389 0.499558 0.497278 0.011169
Cu1   Cu    Cu3+1 0.500000 0.640660 0.500000 1.076489
Cu2   Cu    Cu3+1 0.500000 0.359340 0.500000 1.077293
H1    H     H_    0.313701 0.514086 0.762199 0.142390
H2    H     H_    0.960135 0.278428 0.168375 0.376996
H3    H     H_    0.185319 0.699367 0.125859 0.124528
H4    H     H_    0.928079 0.402990 0.961888 0.201914
H5    H     H_    0.181010 0.226381 0.332641 0.358843
H6    H     H_    0.819865 0.774854 0.666989 0.358697
H7    H     H_    0.650296 0.196921 0.766386 0.382961
H8    H     H_    0.342864 0.803058 0.234571 0.338746
H9    H     H_    0.686932 0.483208 0.238406 0.146385
H10   H     H_    0.113802 0.276962 0.517799 0.195802
H11   H     H_    0.886213 0.722930 0.482365 0.195750
H12   H     H_    0.890221 0.275897 0.509991 0.196351
H13   H     H_    0.109703 0.724044 0.490725 0.197951
H14   H     H_    0.855390 0.490088 0.684084 0.347667
H15   H     H_    0.145431 0.516281 0.315460 0.350168
H16   H     H_    0.052984 0.728634 0.822379 0.373238
N1    N     N_R   0.500000 0.852070 0.500000 -0.312236
N2    N     N_R   0.500000 0.147930 0.500000 -0.312993
O1    O     O_R   0.319640 0.618740 0.499990 -0.479244
O2    O     O_R   0.771156 0.460316 0.702718 -0.647882
O3    O     O_2   0.193628 0.387894 0.186777 -0.483411
O4    O     O_R   0.229868 0.545080 0.296706 -0.676501
O5    O     O_2   0.108530 0.487829 0.841540 -0.483958
O6    O     O_R   0.130214 0.719767 0.864040 -0.633440
O7    O     O_2   0.886259 0.514093 0.165750 -0.464796
O8    O     O_R   0.883867 0.287128 0.125796 -0.656296
O9    O     O_2   0.063769 0.614554 0.038347 -0.428186
O10   O     O_2   0.826264 0.286742 0.877265 -0.451320
O11   O     O_2   0.385670 0.164829 0.292839 -0.455792
O12   O     O_R   0.680360 0.381260 0.500010 -0.481620
O13   O     O_R   0.229454 0.183104 0.385851 -0.697697
O14   O     O_2   0.614853 0.834740 0.706906 -0.452579
O15   O     O_R   0.771106 0.817825 0.613818 -0.697757
O16   O     O_2   0.744349 0.185441 0.625906 -0.468383
O17   O     O_R   0.591846 0.150549 0.720572 -0.641202
O18   O     O_2   0.252972 0.816905 0.376391 -0.488523
O19   O     O_R   0.403572 0.847686 0.279749 -0.649434
O20   O     O_R   0.680360 0.618740 0.500010 -0.489300
O21   O     O_R   0.319640 0.381260 0.499990 -0.487533
O22   O     O_R   0.499970 0.618800 0.370260 -0.471433
O23   O     O_R   0.500030 0.381200 0.629740 -0.472628
O24   O     O_R   0.500030 0.618800 0.629740 -0.485227
O25   O     O_R   0.499970 0.381200 0.370260 -0.483994
O26   O     O_2   0.806903 0.615795 0.813743 -0.490885

loop_
_geom_bond_atom_site_label_1
_geom_bond_atom_site_label_2
_ccdc_geom_bond_type
C8    O23   A    
Cu1   Cu2   S    
Cu1   O1    S    
C3    C6    A    
H8    O19   S    
Cu1   O20   S    
C9    C25   S    
C23   C29   S    
C28   O8    S    
C18   C19   A    
C37   C40   A    
C32   O14   D    
C11   C14   A    
C31   O13   S    
C1    O21   A    
C6    C35   S    
C1    C2    S    
C35   O19   S    
C26   O4    S    
C33   O16   D    
C2    C39   A    
H16   O6    S    
C39   H13   S    
C5    C33   S    
C15   H9    S    
C18   C20   A    
C36   H10   S    
C20   C34   A    
C3    N2    A    
C10   C26   S    
C31   O11   D    
C12   O12   A    
H6    O15   S    
Cu2   O21   S    
C32   O15   S    
C30   O10   D    
C29   O9    D    
C10   C21   A    
C17   C24   A    
C30   C34   S    
C28   O7    D    
Cu1   N1    S    
Cu2   N2    S    
Cu1   O24   S    
C24   C34   A    
C29   H3    S    
C12   C40   S    
C26   O3    D    
C27   O5    D    
C9    C20   A    
C38   H12   S    
Cu2   O12   S    
Cu2   O25   S    
C3    C31   S    
C9    C11   A    
H5    O13   S    
C4    C32   S    
C22   C27   S    
C13   C15   A    
H14   O2    S    
H2    O8    S    
H15   O4    S    
C2    C36   A    
C15   C17   A    
C16   C22   A    
C5    N2    A    
C19   C21   A    
C8    O24   A    
C6    N1    A    
C30   H4    S    
Cu2   O23   S    
C24   C28   S    
C4    C5    A    
C10   C13   A    
C1    O1    A    
C35   O18   D    
C21   C23   A    
C37   H11   S    
C37   C39   A    
C27   O6    S    
C38   C40   A    
C33   O17   S    
C7    O25   A    
C8    C11   S    
Cu1   O22   S    
C12   O20   A    
C4    N1    A    
C36   C38   A    
C25   O26   D    
C17   C19   A    
H7    O17   S    
C14   C16   A    
C25   O2    S    
C7    C13   S    
C7    O22   A    
C16   C18   A    
C22   C23   A    
C14   H1    S    
