data_str_m2_o1_o5_f0_pcu.sym.71
_audit_creation_date              2012-10-26T18:34:24-0400
_audit_creation_method            fapswitch 2.2
_symmetry_space_group_name_H-M    P1
_symmetry_Int_Tables_number       1
_space_group_crystal_system       triclinic
_cell_length_a                    10.821478
_cell_length_b                    9.533449
_cell_length_c                    9.073554
_cell_angle_alpha                 90.054401
_cell_angle_beta                  90.248533
_cell_angle_gamma                 90.055692
_cell_volume                      936.072675694

loop_
_atom_site_label
_atom_site_type_symbol
_atom_type_description
_atom_site_fract_x
_atom_site_fract_y
_atom_site_fract_z
_atom_type_partial_charge
C1    C     C_R   0.262523 0.499928 0.499566 0.593392
C2    C     C_R   0.064107 0.577777 0.391585 0.010146
C3    C     C_R   0.871464 0.500671 0.501215 -0.054791
C4    C     C_R   0.128405 0.499675 0.499339 -0.052652
C5    C     C_R   0.422826 0.074188 0.408682 0.047647
C6    C     C_R   0.577186 0.925815 0.591305 0.044849
C7    C     C_R   0.577134 0.074535 0.591345 0.043806
C8    C     C_R   0.422890 0.925467 0.408618 0.044258
C9    C     C_2   0.135316 0.351170 0.727373 0.627347
C10   C     C_2   0.864702 0.649230 0.272981 0.622339
C11   C     C_2   0.867745 0.352655 0.731217 0.605701
C12   C     C_R   0.737429 0.500114 0.500443 0.593731
C13   C     C_2   0.132258 0.649919 0.271499 0.607549
C14   C     C_R   0.500369 0.499927 0.220636 0.598090
C15   C     C_R   0.500200 0.500045 0.779368 0.601962
C16   C     C_1   0.500565 0.499831 0.065532 -0.017006
C17   C     C_1   0.500533 0.500034 0.934455 -0.006192
C18   C     C_R   0.065244 0.422455 0.608150 0.011981
C19   C     C_R   0.934596 0.578090 0.392601 0.009340
C20   C     C_R   0.935723 0.423630 0.609977 0.008979
Cu1   Cu    Cu3+1 0.500000 0.640660 0.500000 1.033432
Cu2   Cu    Cu3+1 0.500000 0.359340 0.500000 1.043974
H1    H     H_    0.360951 0.129990 0.335467 0.138624
H2    H     H_    0.639075 0.870023 0.664510 0.132743
H3    H     H_    0.638828 0.130633 0.664662 0.140329
H4    H     H_    0.361228 0.869382 0.335227 0.152403
H5    H     H_    0.242636 0.371427 0.908205 0.346992
H6    H     H_    0.754865 0.628861 0.094348 0.346725
H7    H     H_    0.834529 0.174008 0.843137 0.344180
H8    H     H_    0.252069 0.633307 0.103073 0.344979
N1    N     N_R   0.500000 0.852070 0.500000 -0.238806
N2    N     N_R   0.500000 0.147930 0.500000 -0.238626
O1    O     O_R   0.319640 0.618740 0.499990 -0.489059
O2    O     O_R   0.198140 0.431433 0.832629 -0.685904
O3    O     O_2   0.863880 0.777248 0.265462 -0.445345
O4    O     O_R   0.798312 0.568966 0.170878 -0.669848
O5    O     O_2   0.795344 0.419443 0.806871 -0.513953
O6    O     O_R   0.885973 0.209818 0.757939 -0.640175
O7    O     O_2   0.119220 0.775922 0.252090 -0.464758
O8    O     O_R   0.211793 0.573090 0.181416 -0.691646
O9    O     O_R   0.680360 0.381260 0.500010 -0.486275
O10   O     O_R   0.680360 0.618740 0.500010 -0.491775
O11   O     O_R   0.319640 0.381260 0.499990 -0.489731
O12   O     O_R   0.500000 0.618760 0.288390 -0.498786
O13   O     O_R   0.500000 0.381240 0.711610 -0.489713
O14   O     O_R   0.500000 0.618760 0.711610 -0.501218
O15   O     O_R   0.500000 0.381240 0.288390 -0.491989
O16   O     O_2   0.139887 0.223121 0.731436 -0.437247

loop_
_geom_bond_atom_site_label_1
_geom_bond_atom_site_label_2
_ccdc_geom_bond_type
H7    O6    S    
C11   O6    S    
C2    C4    A    
C3    C19   A    
C6    C7    A    
C7    N2    A    
C5    C8    A    
Cu1   O12   S    
C8    H4    S    
Cu2   O11   S    
C7    H3    S    
C10   C19   S    
C1    C4    S    
C6    H2    S    
C5    N2    A    
Cu2   O15   S    
H8    O8    S    
C3    C20   A    
Cu1   Cu2   S    
Cu1   N1    S    
C10   O3    D    
Cu2   N2    S    
C9    O16   D    
C8    N1    A    
C10   O4    S    
C6    N1    A    
C18   C20   A    
H5    O2    S    
C9    O2    S    
C14   C16   S    
C11   C20   S    
C13   O7    D    
Cu2   O9    S    
Cu1   O1    S    
C15   O13   A    
C1    O1    A    
Cu1   O10   S    
C9    C18   S    
Cu2   O13   S    
H6    O4    S    
C12   O9    A    
C14   O12   A    
Cu1   O14   S    
C11   O5    D    
C2    C13   S    
C13   O8    S    
C12   O10   A    
C3    C12   S    
C15   O14   A    
C2    C19   A    
C15   C17   S    
C14   O15   A    
C4    C18   A    
C1    O11   A    
C16   C17   T    
C5    H1    S    
