data_str_m9_o4_o18_f0_sra.sym.60
_audit_creation_date              2012-12-11T17:02:18-0500
_audit_creation_method            fapswitch 2.2
_symmetry_space_group_name_H-M    P1
_symmetry_Int_Tables_number       1
_space_group_crystal_system       triclinic
_cell_length_a                    21.646004
_cell_length_b                    7.07163
_cell_length_c                    14.835351
_cell_angle_alpha                 90.098663
_cell_angle_beta                  105.99049
_cell_angle_gamma                 90.029986
_cell_volume                      2183.01395832

loop_
_atom_site_label
_atom_site_type_symbol
_atom_type_description
_atom_site_fract_x
_atom_site_fract_y
_atom_site_fract_z
_atom_type_partial_charge
O1    O     O_R   0.585850 0.505770 0.002130 -0.542972
O2    O     O_R   0.414150 0.005770 0.997870 -0.543606
O3    O     O_R   0.467530 0.173560 0.861970 -0.546486
O4    O     O_R   0.532470 0.673560 0.138030 -0.545971
C1    C     C_R   0.455544 0.344043 0.825261 0.800708
C2    C     C_R   0.544450 0.844476 0.174689 0.804178
O5    O     O_R   0.588690 0.175900 0.993250 -0.542236
O6    O     O_R   0.411310 0.675900 0.006750 -0.542236
O7    O     O_R   0.536170 0.007950 0.130090 -0.522067
O8    O     O_R   0.463830 0.507950 0.869910 -0.518714
C3    C     C_R   0.615065 0.344664 0.997728 0.701465
C4    C     C_R   0.384939 0.844602 0.002292 0.703412
O9    O     O_3   0.482630 0.339970 0.044740 -0.378759
O10   O     O_3   0.517370 0.839970 0.955260 -0.377254
V1    V     V_3+5 0.503220 0.064200 0.991700 1.505334
V2    V     V_3+5 0.496780 0.564200 0.008300 1.506293
C5    C     C_R   0.292389 0.009992 0.041521 0.127335
C6    C     C_R   0.707685 0.509819 0.958595 0.124637
C7    C     C_R   0.317032 0.852696 0.005442 -0.108878
C8    C     C_R   0.682977 0.352778 0.994618 -0.107953
C9    C     C_R   0.274866 0.699595 0.974019 -0.146280
C10   C     C_R   0.725063 0.199816 0.025951 -0.146774
H1    H     H_    0.291558 0.574954 0.945717 0.163917
H2    H     H_    0.708313 0.075381 0.054217 0.164975
C11   C     C_R   0.209502 0.711396 0.972286 -0.179354
C12   C     C_R   0.790423 0.211516 0.027635 -0.178808
H3    H     H_    0.178022 0.594261 0.943735 0.137969
H4    H     H_    0.821848 0.094553 0.056137 0.138596
C13   C     C_R   0.184177 0.877255 0.001311 -0.109026
C14   C     C_R   0.815818 0.377137 0.998649 -0.109463
C15   C     C_R   0.227759 0.021936 0.039580 0.117722
C16   C     C_R   0.772314 0.521675 0.960500 0.117878
C17   C     C_3   0.225003 0.227362 0.016830 -0.428229
C18   C     C_3   0.775206 0.727208 0.983419 -0.427339
C19   C     C_3   0.295523 0.214383 0.019172 -0.396561
C20   C     C_3   0.704689 0.714312 0.981120 -0.396611
H5    H     H_    0.216480 0.315430 0.074388 0.176593
H6    H     H_    0.783763 0.814997 0.925919 0.176502
H7    H     H_    0.192902 0.257341 0.945782 0.177452
H8    H     H_    0.807345 0.757485 0.054479 0.178141
H9    H     H_    0.327684 0.294809 0.078145 0.192923
H10   H     H_    0.672562 0.794501 0.922229 0.193175
H11   H     H_    0.304268 0.237264 0.949552 0.188245
H12   H     H_    0.695984 0.737524 0.050776 0.192686
C21   C     C_R   0.927159 0.882248 0.723660 -0.133916
C22   C     C_R   0.072922 0.384826 0.276404 -0.134979
C23   C     C_R   0.572558 0.850687 0.276220 -0.226229
C24   C     C_R   0.427653 0.348070 0.723598 -0.224221
C25   C     C_R   0.939413 0.848764 0.567632 0.696878
C26   C     C_R   0.060733 0.381309 0.433230 0.697967
C27   C     C_R   0.966566 0.865128 0.663971 -0.226153
C28   C     C_R   0.033604 0.389010 0.336630 -0.225271
C29   C     C_R   0.860362 0.883891 0.687337 -0.211191
C30   C     C_R   0.139648 0.374590 0.312459 -0.210696
C31   C     C_R   0.831149 0.863921 0.589906 0.046955
C32   C     C_R   0.168803 0.365300 0.410303 0.046932
C33   C     C_R   0.872135 0.847405 0.530125 -0.002147
C34   C     C_R   0.127897 0.369449 0.470565 -0.002356
C35   C     C_R   0.762893 0.858136 0.550168 0.005884
C36   C     C_R   0.236921 0.351732 0.450069 0.006361
C37   C     C_R   0.736735 0.849187 0.450688 0.117025
C38   C     C_R   0.263255 0.354903 0.549628 0.116882
C39   C     C_R   0.779590 0.823122 0.395098 -0.111315
C40   C     C_R   0.220257 0.348178 0.605970 -0.111580
C41   C     C_R   0.845659 0.824565 0.433884 -0.157976
C42   C     C_R   0.154258 0.357643 0.567297 -0.157912
C43   C     C_R   0.720087 0.853249 0.606745 -0.283767
C44   C     C_R   0.279292 0.328051 0.393657 -0.282119
C45   C     C_R   0.654173 0.838069 0.568151 0.714650
C46   C     C_R   0.344912 0.305962 0.432499 0.714368
C47   C     C_R   0.627541 0.836888 0.470774 -0.227587
C48   C     C_R   0.371837 0.315856 0.529692 -0.224879
C49   C     C_R   0.668454 0.853649 0.410617 -0.177090
C50   C     C_R   0.331602 0.351648 0.589385 -0.175815
C51   C     C_R   0.560476 0.818886 0.432320 0.796833
C52   C     C_R   0.438500 0.289380 0.568440 0.790642
C53   C     C_R   0.533790 0.819804 0.335679 -0.313557
C54   C     C_R   0.465428 0.299014 0.664887 -0.311882
C55   C     C_R   0.638907 0.875034 0.312897 0.573323
C56   C     C_R   0.361888 0.382379 0.686359 0.575023
H13   H     H_    0.876204 0.804468 0.387748 0.186054
H14   H     H_    0.123622 0.353100 0.614032 0.185170
H15   H     H_    0.482451 0.799962 0.307057 0.180666
H16   H     H_    0.516237 0.270723 0.693929 0.182545
H17   H     H_    0.018371 0.863493 0.692174 0.140221
H18   H     H_    0.981868 0.397793 0.308680 0.140221
H19   H     H_    0.832942 0.901847 0.737317 0.114072
H20   H     H_    0.167106 0.377332 0.261958 0.113882
H21   H     H_    0.763634 0.789979 0.321518 0.196773
H22   H     H_    0.235809 0.324787 0.680426 0.196150
H23   H     H_    0.736060 0.852582 0.682151 0.147753
H24   H     H_    0.263065 0.317619 0.318435 0.147736
O11   O     O_R   0.036080 0.231270 0.130120 -0.536898
O12   O     O_R   0.963920 0.731270 0.869880 -0.537034
O13   O     O_R   0.911300 0.558970 0.006750 -0.542017
O14   O     O_R   0.088700 0.058970 0.993250 -0.542156
C57   C     C_R   0.884871 0.389898 0.001942 0.692633
C58   C     C_R   0.115127 0.889962 0.998048 0.692585
O15   O     O_R   0.032450 0.561140 0.138040 -0.537104
O16   O     O_R   0.967550 0.061140 0.861960 -0.536941
O17   O     O_R   0.085870 0.728910 0.002130 -0.542100
O18   O     O_R   0.914130 0.228910 0.997870 -0.542287
C59   C     C_R   0.044778 0.392728 0.175027 0.730997
C60   C     C_R   0.955258 0.892286 0.824992 0.730730
O19   O     O_3   0.017320 0.394650 0.955270 -0.374798
O20   O     O_3   0.982680 0.894650 0.044730 -0.374754
V3    V     V_3+5 0.996780 0.670490 0.008300 1.431651
V4    V     V_3+5 0.003220 0.170490 0.991700 1.431272
F1    F     F_    0.616476 0.826496 0.627570 -0.619319
F2    F     F_    0.382050 0.276059 0.373442 -0.620270
F3    F     F_    0.978992 0.832032 0.511134 -0.655101
F4    F     F_    0.021224 0.384902 0.490241 -0.655195
F5    F     F_    0.520419 0.796168 0.487675 -0.571368
F6    F     F_    0.477787 0.248586 0.513736 -0.571970
F7    F     F_    0.672375 0.930326 0.252382 -0.722838
F8    F     F_    0.329808 0.453919 0.745496 -0.720602

loop_
_geom_bond_atom_site_label_1
_geom_bond_atom_site_label_2
_ccdc_geom_bond_type
O17   V3    S    
O15   C59   A    
C39   C41   A    
C55   F7    S    
C20   H10   S    
O1    C3    A    
C40   H22   S    
C48   C52   A    
O2    C4    A    
C27   H17   S    
C2    O7    A    
O5    C3    A    
O19   V3    S    
C14   C57   S    
C44   H24   S    
C17   H7    S    
C13   C58   S    
C18   H8    S    
C7    C9    A    
C52   C54   A    
C31   C35   A    
O11   V4    S    
C17   C19   S    
O20   V3    S    
C53   H15   S    
C22   C28   A    
O16   C60   A    
C25   C33   A    
C36   C38   A    
C24   C54   A    
C45   C47   A    
C38   C40   A    
C46   F2    S    
C35   C43   A    
C41   H13   S    
C34   C42   A    
C56   F8    S    
C25   C27   A    
O14   C58   A    
C52   F6    S    
C15   C17   S    
O18   V4    S    
C51   F5    S    
C23   C55   A    
C14   C16   A    
C19   H11   S    
C18   C20   S    
C57   O18   A    
C25   F3    S    
O5    V1    S    
O14   V4    S    
O12   C60   A    
O6    V2    S    
C50   C56   A    
O11   C59   A    
C45   F1    S    
C26   F4    S    
O19   V4    S    
C29   C31   A    
C11   C13   A    
O12   V3    S    
C1    C24   S    
C30   C32   A    
C3    C8    S    
C35   C37   A    
O16   V4    S    
C2    C23   S    
C26   C34   A    
C48   C50   A    
C47   C49   A    
C37   C49   A    
C17   H5    S    
C32   C36   A    
C43   C45   A    
C40   C42   A    
O4    V2    S    
C21   C60   S    
C42   H14   S    
C26   C28   A    
O6    C4    A    
C39   H21   S    
C43   H23   S    
C49   C55   A    
C29   H19   S    
O1    V2    S    
O2    V1    S    
C51   C53   A    
O13   V3    S    
O4    C2    A    
C22   C30   A    
C8    C10   A    
C12   C14   A    
C9    H1    S    
C5    C15   A    
C10   H2    S    
C20   H12   S    
C6    C16   A    
C23   C53   A    
O3    V1    S    
C9    C11   A    
C18   H6    S    
C37   C39   A    
C47   C51   A    
C33   C41   A    
O3    C1    A    
O13   C57   A    
C11   H3    S    
C58   O17   A    
O15   V3    S    
C22   C59   S    
C12   H4    S    
C24   C56   A    
C31   C33   A    
O7    V1    S    
C1    O8    A    
C13   C15   A    
O8    V2    S    
C30   H20   S    
O20   V4    S    
C4    C7    S    
C28   H18   S    
C5    C7    A    
C32   C34   A    
C6    C8    A    
C19   H9    S    
C21   C29   A    
C54   H16   S    
C36   C44   A    
C44   C46   A    
C10   C12   A    
O9    V2    S    
C21   C27   A    
O10   V1    S    
C38   C50   A    
C46   C48   A    
C5    C19   S    
C6    C20   S    
C16   C18   S    
