data_str_m2_o1_o9_f0_pcu.sym.228
_audit_creation_date              2013-03-05T16:07:31-0500
_audit_creation_method            fapswitch 2.2
_symmetry_space_group_name_H-M    P1
_symmetry_Int_Tables_number       1
_space_group_crystal_system       triclinic
_cell_length_a                    10.999953
_cell_length_b                    10.860065
_cell_length_c                    9.95221
_cell_angle_alpha                 88.768524
_cell_angle_beta                  94.151773
_cell_angle_gamma                 92.155525
_cell_volume                      1184.72395864

loop_
_atom_site_label
_atom_site_type_symbol
_atom_site_description
_atom_site_fract_x
_atom_site_fract_y
_atom_site_fract_z
_atom_type_partial_charge
O1    O     O_R   0.499990 0.319660 0.618740 -0.517379
O2    O     O_R   0.500010 0.680340 0.381260 -0.517404
O3    O     O_R   0.499990 0.319630 0.381170 -0.557267
O4    O     O_R   0.500010 0.680370 0.618830 -0.557093
C1    C     C_R   0.503356 0.263576 0.500589 0.818272
C2    C     C_R   0.496627 0.736421 0.499408 0.818312
O5    O     O_R   0.319650 0.500020 0.618780 -0.463984
O6    O     O_R   0.680350 0.499980 0.381220 -0.464059
O7    O     O_R   0.319640 0.500000 0.381210 -0.599113
O8    O     O_R   0.680360 0.500000 0.618790 -0.599114
C3    C     C_R   0.263149 0.504392 0.496184 0.765388
C4    C     C_R   0.736851 0.495601 0.503817 0.765345
Cu1   Cu    Cu3+1 0.500000 0.500020 0.640660 1.078808
Cu2   Cu    Cu3+1 0.500000 0.499980 0.359340 1.078770
C5    C     C_R   0.160097 0.575805 0.067368 -0.274384
C6    C     C_R   0.839784 0.423995 0.932562 -0.274377
H1    H     H_    0.188973 0.663168 0.023309 0.193393
H2    H     H_    0.810871 0.336622 0.976569 0.193478
C7    C     C_R   0.121269 0.573953 0.195567 0.361889
C8    C     C_R   0.878676 0.425892 0.804386 0.361835
C9    C     C_R   0.086703 0.459060 0.253623 0.023373
C10   C     C_R   0.913290 0.540806 0.746402 0.023489
C11   C     C_R   0.081278 0.351070 0.179354 -0.269211
C12   C     C_R   0.918687 0.648765 0.820714 -0.269358
H3    H     H_    0.050780 0.264042 0.222988 0.178693
H4    H     H_    0.949207 0.735809 0.777133 0.178659
C13   C     C_R   0.116033 0.355627 0.048521 -0.230079
C14   C     C_R   0.883873 0.644161 0.951519 -0.230006
H5    H     H_    0.110806 0.272183 0.990637 0.197508
H6    H     H_    0.889094 0.727582 0.009439 0.197564
C15   C     C_R   0.158946 0.467551 0.994420 0.330142
C16   C     C_R   0.840930 0.532219 0.005555 0.330175
C17   C     C_R   0.926884 0.436048 0.404569 -0.066439
C18   C     C_R   0.073117 0.563910 0.595456 -0.066583
H7    H     H_    0.873114 0.382426 0.331539 0.177284
H8    H     H_    0.126889 0.617530 0.668494 0.177362
C19   C     C_R   0.872072 0.490825 0.508485 -0.022806
C20   C     C_R   0.127928 0.509149 0.491524 -0.022792
C21   C     C_R   0.948857 0.545518 0.610192 0.023986
C22   C     C_R   0.051144 0.454418 0.389836 0.024043
C23   C     C_R   0.520164 0.064783 0.379835 0.480681
C24   C     C_R   0.479714 0.935206 0.620136 0.480690
C25   C     C_R   0.507888 0.937234 0.380705 -0.269510
C26   C     C_R   0.492000 0.062755 0.619277 -0.269377
H9    H     H_    0.511838 0.890423 0.287243 0.228699
H10   H     H_    0.488024 0.109563 0.712735 0.228622
C27   C     C_R   0.492937 0.870949 0.500197 -0.175710
C28   C     C_R   0.506994 0.129045 0.499787 -0.175493
C29   C     C_R   0.467161 0.397831 0.074051 -0.212963
C30   C     C_R   0.532844 0.602171 0.925951 -0.213268
H11   H     H_    0.441547 0.317184 0.131391 0.197878
H12   H     H_    0.558471 0.682818 0.868616 0.197811
C31   C     C_R   0.466504 0.395598 0.926633 0.674127
C32   C     C_R   0.533504 0.604404 0.073371 0.674060
N1    N     N_R   0.500030 0.500030 0.852070 -0.183424
N2    N     N_R   0.499970 0.499970 0.147930 -0.183460
N3    N     N_R   0.205989 0.473372 0.866668 0.096008
O9    O     O_R   0.270963 0.570949 0.835911 -0.441931
O10   O     O_R   0.195778 0.378705 0.788201 -0.313402
N4    N     N_R   0.793901 0.526361 0.133312 0.095957
O11   O     O_R   0.728982 0.428749 0.164108 -0.441910
O12   O     O_R   0.804139 0.621023 0.211785 -0.313437
O13   O     O_3   0.428096 0.291200 0.853521 -0.535014
C33   C     C_3   0.386260 0.189913 0.931223 -0.296918
H13   H     H_    0.312144 0.214735 0.994023 0.162634
H14   H     H_    0.463373 0.148342 0.992228 0.191763
H15   H     H_    0.344918 0.118739 0.862642 0.192209
O14   O     O_3   0.571929 0.708797 0.146490 -0.534949
C34   C     C_3   0.613715 0.810113 0.068793 -0.297114
H16   H     H_    0.655001 0.881328 0.137377 0.192254
H17   H     H_    0.536583 0.851630 0.007768 0.191797
H18   H     H_    0.687854 0.785328 0.006004 0.162632
N5    N     N_R   0.120152 0.688492 0.265728 0.099714
O15   O     O_R   0.025413 0.716975 0.327955 -0.341934
O16   O     O_R   0.206973 0.771678 0.252358 -0.383675
N6    N     N_R   0.879794 0.311382 0.734170 0.099725
O17   O     O_R   0.974537 0.282920 0.671938 -0.341885
O18   O     O_R   0.792961 0.228198 0.747482 -0.383718
O19   O     O_3   0.542535 0.124465 0.259693 -0.597377
C35   C     C_3   0.669890 0.141810 0.254097 -0.258785
H19   H     H_    0.718352 0.053915 0.270244 0.149211
H20   H     H_    0.707356 0.210312 0.329196 0.187501
H21   H     H_    0.688724 0.178119 0.152301 0.202282
O20   O     O_3   0.457244 0.875487 0.740230 -0.597433
C36   C     C_3   0.329881 0.858001 0.745574 -0.258252
H22   H     H_    0.311012 0.820052 0.846609 0.203130
H23   H     H_    0.292237 0.790844 0.669190 0.186023
H24   H     H_    0.281630 0.946082 0.731241 0.149211

loop_
_geom_bond_atom_site_label_1
_geom_bond_atom_site_label_2
_geom_bond_distance
_ccdc_geom_bond_type
Cu2   N2    2.103975 S    
C13   H5    1.081709 S    
N5    O16   1.301633 A    
N5    O15   1.300450 A    
C36   H22   1.109039 S    
C5    C7    1.373983 A    
C30   C32   1.467365 A    
O1    C1    1.339325 A    
C7    C9    1.414348 A    
C12   H4    1.083513 S    
N3    O10   1.300971 A    
C32   O14   1.395850 S    
O4    Cu1   1.965975 S    
C8    N6    1.440400 S    
N4    O12   1.300975 A    
C4    C19   1.487613 S    
C34   H17   1.111043 S    
O14   C34   1.413048 S    
C29   H11   1.074869 S    
C30   H12   1.074883 S    
C11   C13   1.382712 A    
C6    C8    1.374014 A    
C36   H23   1.112125 S    
Cu1   Cu2   2.799766 S    
C23   C25   1.386588 A    
O2    C2    1.339302 A    
C24   C26   1.386604 A    
C35   H21   1.109884 S    
C26   H10   1.073926 S    
C31   N1    1.394610 A    
C1    C28   1.463275 S    
C32   N2    1.394624 A    
C17   C22   1.391706 A    
C2    C27   1.463273 S    
C13   C15   1.398457 A    
C18   C21   1.391732 A    
C33   H15   1.105172 S    
C7    N5    1.440398 S    
C24   O20   1.381155 S    
O20   C36   1.411385 S    
O4    C2    1.322383 A    
C17   C19   1.389481 A    
O13   C33   1.413020 S    
N4    O11   1.299389 A    
C33   H14   1.111030 S    
C3    C20   1.487597 S    
O5    C3    1.329322 A    
O7    Cu2   2.011468 S    
O7    C3    1.343596 A    
C14   C16   1.398474 A    
O6    C4    1.329333 A    
N6    O17   1.300448 A    
C25   H9    1.073944 S    
O3    Cu2   1.965975 S    
O8    C4    1.343589 A    
C35   H20   1.112712 S    
C8    C10   1.414394 A    
C9    C11   1.396748 A    
C10   C12   1.396709 A    
O1    Cu1   1.975481 S    
C16   N4    1.406260 S    
C34   H18   1.107043 S    
C36   H24   1.112847 S    
C5    H1    1.083021 S    
O6    Cu2   1.980022 S    
C18   C20   1.389518 A    
C12   C14   1.382675 A    
N6    O18   1.301632 A    
C35   H19   1.113753 S    
O3    C1    1.322368 A    
O8    Cu1   2.011467 S    
C23   O19   1.381161 S    
C5    C15   1.394132 A    
C6    C16   1.394102 A    
C29   N2    1.366663 A    
C30   N1    1.366707 A    
C33   H13   1.107028 S    
C15   N3    1.406275 S    
C14   H6    1.081706 S    
C19   C21   1.398247 A    
C20   C22   1.398277 A    
C31   O13   1.395807 S    
N3    O9    1.299323 A    
C9    C22   1.437229 S    
C29   C31   1.467348 A    
C10   C21   1.437227 S    
C17   H7    1.071092 S    
C23   C28   1.414787 A    
C18   H8    1.071148 S    
C24   C27   1.414753 A    
C11   H3    1.083513 S    
C34   H16   1.105297 S    
O2    Cu2   1.975481 S    
O19   C35   1.411419 S    
O5    Cu1   1.980024 S    
C6    H2    1.083023 S    
C25   C27   1.393590 A    
C26   C28   1.393676 A    
Cu1   N1    2.103975 S    
