data_str_m9_o6_o16_f0_sra.sym.70
_audit_creation_date              2012-12-11T17:23:14-0500
_audit_creation_method            fapswitch 2.2
_symmetry_space_group_name_H-M    P1
_symmetry_Int_Tables_number       1
_space_group_crystal_system       triclinic
_cell_length_a                    22.304169
_cell_length_b                    7.093889
_cell_length_c                    19.463108
_cell_angle_alpha                 90.0
_cell_angle_beta                  99.658537
_cell_angle_gamma                 90.000133
_cell_volume                      3035.86543739

loop_
_atom_site_label
_atom_site_type_symbol
_atom_type_description
_atom_site_fract_x
_atom_site_fract_y
_atom_site_fract_z
_atom_type_partial_charge
O1    O     O_R   0.443980 0.494320 0.557430 -0.533525
O2    O     O_R   0.556020 0.994320 0.442570 -0.533525
O3    O     O_R   0.441210 0.822520 0.414610 -0.528158
O4    O     O_R   0.558790 0.322520 0.585390 -0.528158
C1    C     C_R   0.426823 0.655717 0.388619 0.711840
C2    C     C_R   0.573176 0.155718 0.611381 0.711838
O5    O     O_R   0.436920 0.823940 0.555180 -0.535801
O6    O     O_R   0.563080 0.323940 0.444820 -0.535793
O7    O     O_R   0.551700 0.995760 0.584140 -0.543176
O8    O     O_R   0.448300 0.495760 0.415860 -0.543176
C3    C     C_R   0.421574 0.655441 0.574798 0.731097
C4    C     C_R   0.578426 0.155441 0.425201 0.731091
O9    O     O_3   0.537660 0.661290 0.509340 -0.369919
O10   O     O_3   0.462340 0.161290 0.490660 -0.369922
V1    V     V_3+5 0.493010 0.935560 0.498270 1.447935
V2    V     V_3+5 0.506990 0.435560 0.501730 1.447945
H1    H     H_    0.660761 0.906901 0.233095 0.128645
H2    H     H_    0.339235 0.406887 0.766897 0.128638
C5    C     C_R   0.743821 0.981867 0.197565 -0.171606
C6    C     C_R   0.256179 0.481868 0.802435 -0.171569
H3    H     H_    0.736736 0.880407 0.155378 0.126562
H4    H     H_    0.263260 0.380388 0.844614 0.126553
C7    C     C_R   0.795815 0.096168 0.207615 0.109512
C8    C     C_R   0.204190 0.596189 0.792392 0.109543
C9    C     C_R   0.803776 0.227046 0.262456 -0.174838
C10   C     C_R   0.196235 0.727097 0.737561 -0.174887
H5    H     H_    0.843678 0.316798 0.269941 0.118870
H6    H     H_    0.156337 0.816862 0.730083 0.118855
C11   C     C_R   0.760415 0.244521 0.307364 0.139152
C12   C     C_R   0.239598 0.744582 0.692654 0.139135
C13   C     C_R   0.708138 0.127491 0.297050 0.116761
C14   C     C_R   0.291867 0.627518 0.702957 0.116834
C15   C     C_R   0.700443 0.997436 0.241839 -0.206682
C16   C     C_R   0.299557 0.497441 0.758161 -0.206757
C17   C     C_1   0.840584 0.081355 0.161238 -0.043901
C18   C     C_1   0.159419 0.581366 0.838766 -0.043900
C19   C     C_1   0.662335 0.137700 0.342488 -0.051644
C20   C     C_1   0.337666 0.637707 0.657513 -0.051609
C21   C     C_1   0.624220 0.146267 0.380336 -0.165041
C22   C     C_1   0.375779 0.646267 0.619663 -0.165079
C23   C     C_1   0.877774 0.071102 0.122240 -0.188800
C24   C     C_1   0.122228 0.571106 0.877762 -0.188801
C25   C     C_R   0.631498 0.221568 0.803723 -0.191138
C26   C     C_R   0.368504 0.721547 0.196276 -0.191141
H7    H     H_    0.612421 0.260966 0.849177 0.113412
H8    H     H_    0.387582 0.760933 0.150822 0.113412
C27   C     C_R   0.613248 0.152729 0.680171 -0.091843
C28   C     C_R   0.386751 0.652726 0.319829 -0.091841
C29   C     C_R   0.908716 0.052051 0.761058 -0.213879
C30   C     C_R   0.091283 0.552062 0.238942 -0.213879
C31   C     C_R   0.873355 0.082557 0.696266 -0.107936
C32   C     C_R   0.126644 0.582574 0.303734 -0.107936
C33   C     C_R   0.811594 0.126219 0.689887 0.266604
C34   C     C_R   0.188405 0.626236 0.310113 0.266602
C35   C     C_R   0.782302 0.122413 0.749826 0.025223
C36   C     C_R   0.217697 0.622421 0.250173 0.025223
C37   C     C_R   0.820361 0.108980 0.816645 -0.012535
C38   C     C_R   0.179639 0.608981 0.183355 -0.012536
C39   C     C_R   0.717752 0.140424 0.746680 0.074232
C40   C     C_R   0.282247 0.640427 0.253320 0.074232
C41   C     C_R   0.694246 0.182255 0.808631 0.040064
C42   C     C_R   0.305755 0.682244 0.191368 0.040065
C43   C     C_R   0.733210 0.180998 0.874392 0.127864
C44   C     C_R   0.266791 0.680984 0.125608 0.127866
C45   C     C_R   0.795003 0.136717 0.877138 -0.166788
C46   C     C_R   0.204997 0.636710 0.122862 -0.166786
C47   C     C_R   0.675297 0.109899 0.684585 -0.180313
C48   C     C_R   0.324702 0.609908 0.315417 -0.180312
C49   C     C_R   0.591376 0.212653 0.740311 0.141620
C50   C     C_R   0.408625 0.712633 0.259689 0.141618
C51   C     C_R   0.883887 0.072753 0.821751 -0.069806
C52   C     C_R   0.116112 0.572756 0.178249 -0.069805
H9    H     H_    0.689267 0.048597 0.639181 0.167281
H10   H     H_    0.310731 0.548618 0.360821 0.167280
H11   H     H_    0.956846 0.023813 0.764054 0.121492
H12   H     H_    0.043153 0.523824 0.235946 0.121492
H13   H     H_    0.895226 0.082576 0.650614 0.159304
H14   H     H_    0.104773 0.582598 0.349386 0.159303
H15   H     H_    0.824524 0.128048 0.926950 0.118650
H16   H     H_    0.175477 0.628036 0.073049 0.118648
O11   O     O_R   0.051730 0.724670 0.084120 -0.532716
O12   O     O_R   0.948270 0.224670 0.915880 -0.532715
O13   O     O_R   0.063080 0.393540 0.944820 -0.536047
O14   O     O_R   0.936920 0.893540 0.055180 -0.536048
C53   C     C_R   0.077709 0.561946 0.924282 0.716526
C54   C     C_R   0.922291 0.061946 0.075718 0.716525
O15   O     O_R   0.058800 0.395030 0.085390 -0.535931
O16   O     O_R   0.941200 0.895030 0.914610 -0.535931
O17   O     O_R   0.943980 0.223310 0.057440 -0.534370
O18   O     O_R   0.056020 0.723310 0.942560 -0.534370
C55   C     C_R   0.073426 0.563649 0.111034 0.689468
C56   C     C_R   0.926574 0.063649 0.888966 0.689468
O19   O     O_3   0.962360 0.556290 0.990650 -0.369631
O20   O     O_3   0.037640 0.056290 0.009350 -0.369631
V3    V     V_3+5 0.006980 0.281990 0.001730 1.430221
V4    V     V_3+5 0.993020 0.781990 0.998270 1.430222
Br1   Br    Br    0.777788 0.236468 0.601194 -0.606928
Br2   Br    Br    0.222210 0.736498 0.398803 -0.606915
C57   C     C_3   0.770737 0.389273 0.365211 -0.346381
C58   C     C_3   0.733223 0.566689 0.344856 -0.720693
H17   H     H_    0.745787 0.628925 0.296879 0.228310
H18   H     H_    0.683850 0.533907 0.335492 0.224745
H19   H     H_    0.742440 0.672105 0.387497 0.236176
H20   H     H_    0.759027 0.329166 0.413998 0.220834
H21   H     H_    0.819553 0.429702 0.376894 0.184910
C59   C     C_3   0.229280 0.889356 0.634814 -0.346365
C60   C     C_3   0.266893 0.066617 0.655117 -0.720592
H22   H     H_    0.254456 0.128855 0.703163 0.228269
H23   H     H_    0.316256 0.033652 0.664345 0.224745
H24   H     H_    0.257633 0.172107 0.612503 0.236158
H25   H     H_    0.240901 0.829155 0.585997 0.220828
H26   H     H_    0.180480 0.930022 0.623206 0.184873
C61   C     C_3   0.525081 0.261765 0.739588 -0.366466
C62   C     C_3   0.516402 0.474692 0.743570 -0.726206
H27   H     H_    0.543161 0.532056 0.792364 0.217767
H28   H     H_    0.531050 0.544965 0.698144 0.231498
H29   H     H_    0.467613 0.506681 0.743126 0.205693
H30   H     H_    0.495289 0.207583 0.692272 0.168470
H31   H     H_    0.509113 0.193582 0.784684 0.168831
C63   C     C_3   0.474922 0.761725 0.260410 -0.366457
C64   C     C_3   0.483606 0.974651 0.256427 -0.726191
H32   H     H_    0.456846 0.032020 0.207633 0.217764
H33   H     H_    0.468963 0.044935 0.301855 0.231491
H34   H     H_    0.532396 0.006624 0.256868 0.205692
H35   H     H_    0.504712 0.707539 0.307728 0.168469
H36   H     H_    0.490888 0.693531 0.215315 0.168826
C65   C     C_3   0.707490 0.221986 0.940981 -0.364601
C66   C     C_3   0.751895 0.209347 0.009692 -0.757880
H37   H     H_    0.770274 0.063991 0.017341 0.223157
H38   H     H_    0.789416 0.312868 0.010792 0.228796
H39   H     H_    0.727559 0.242323 0.053553 0.224917
H40   H     H_    0.688141 0.366753 0.937368 0.181367
H41   H     H_    0.670219 0.120247 0.944520 0.177374
C67   C     C_3   0.292512 0.721959 0.059019 -0.364603
C68   C     C_3   0.248108 0.709320 0.990308 -0.757885
H42   H     H_    0.229726 0.563967 0.982660 0.223158
H43   H     H_    0.210588 0.812847 0.989206 0.228797
H44   H     H_    0.272445 0.742288 0.946446 0.224918
H45   H     H_    0.311864 0.866723 0.062630 0.181367
H46   H     H_    0.329781 0.620213 0.055481 0.177375

loop_
_geom_bond_atom_site_label_1
_geom_bond_atom_site_label_2
_ccdc_geom_bond_type
C68   H44   S    
C12   C14   A    
C43   C45   A    
O4    V2    S    
C45   H15   S    
O15   C55   A    
C18   C24   T    
O1    C3    A    
O2    C4    A    
C66   H37   S    
C2    O7    A    
O16   V4    S    
C62   H27   S    
C68   H42   S    
C59   H26   S    
O5    C3    A    
C23   C54   S    
C49   C61   S    
C8    C18   S    
C5    H3    S    
C8    C10   A    
C35   C39   A    
C67   H46   S    
C63   H36   S    
C59   C60   S    
C48   H10   S    
O12   C56   A    
C40   C42   A    
O14   V4    S    
C41   C43   A    
C30   C52   A    
C65   H40   S    
C27   C49   A    
C64   H34   S    
C42   C44   A    
C39   C47   A    
C61   H31   S    
C38   C46   A    
C51   C56   S    
C6    C8    A    
C50   C63   S    
C29   C31   A    
O15   V3    S    
C30   C32   A    
C60   H22   S    
C13   C15   A    
C26   C50   A    
C47   H9    S    
C14   C20   S    
C6    C16   A    
O5    V1    S    
C57   H20   S    
O6    V2    S    
C68   H43   S    
C12   C59   S    
C60   H23   S    
O20   V3    S    
H1    C15   S    
C32   H14   S    
C27   C47   A    
C32   C34   A    
C44   C67   S    
C59   H25   S    
C33   C35   A    
C9    C11   A    
C57   H21   S    
C1    C28   S    
C34   C36   A    
C39   C41   A    
C2    C27   S    
C11   C57   S    
O16   C56   A    
O4    C2    A    
C5    C15   A    
C37   C45   A    
C67   H45   S    
C24   C53   S    
O11   V4    S    
C63   H35   S    
C26   H8    S    
C33   Br1   S    
C58   H19   S    
C37   C51   A    
C36   C40   A    
C31   C33   A    
C44   C46   A    
O17   V3    S    
C5    C7    A    
C31   H13   S    
C30   H12   S    
H2    C16   S    
C57   C58   S    
O6    C4    A    
O13   V3    S    
C58   H18   S    
C64   H32   S    
O1    V2    S    
C28   C48   A    
O20   V4    S    
O2    V1    S    
C25   H7    S    
C29   H11   S    
O13   C53   A    
C6    H4    S    
C10   C12   A    
O19   V4    S    
C7    C17   S    
C35   C37   A    
C60   H24   S    
C65   C66   S    
C66   H39   S    
O3    V1    S    
C63   C64   S    
C25   C41   A    
C61   C62   S    
C52   C55   S    
O12   V3    S    
C34   Br2   S    
C65   H41   S    
C28   C50   A    
O3    C1    A    
C54   O17   A    
C66   H38   S    
C62   H28   S    
C53   O18   A    
O18   V4    S    
C67   C68   S    
C9    H5    S    
C46   H16   S    
C10   H6    S    
C26   C42   A    
C4    C21   S    
O7    V1    S    
C1    O8    A    
C19   C21   T    
O8    V2    S    
C20   C22   T    
C38   C52   A    
O19   V3    S    
C58   H17   S    
C36   C38   A    
C7    C9    A    
C3    C22   S    
C17   C23   T    
C64   H33   S    
C62   H29   S    
C61   H30   S    
O11   C55   A    
C13   C19   S    
C40   C48   A    
C11   C13   A    
C29   C51   A    
O9    V2    S    
O10   V1    S    
O14   C54   A    
C25   C49   A    
C43   C65   S    
C14   C16   A    
