data_str_m2_o11_o14_f0_pcu.sym.11
_audit_creation_date              2012-10-26T21:20:53-0400
_audit_creation_method            fapswitch 2.2
_symmetry_space_group_name_H-M    P1
_symmetry_Int_Tables_number       1
_space_group_crystal_system       triclinic
_cell_length_a                    10.784418
_cell_length_b                    10.901919
_cell_length_c                    9.678504
_cell_angle_alpha                 89.127339
_cell_angle_beta                  90.266215
_cell_angle_gamma                 90.038655
_cell_volume                      1137.76548543

loop_
_atom_site_label
_atom_site_type_symbol
_atom_type_description
_atom_site_fract_x
_atom_site_fract_y
_atom_site_fract_z
_atom_type_partial_charge
C1    C     C_R   0.503796 0.265207 0.500855 0.543481
C2    C     C_2   0.517458 0.133335 0.503780 -0.177954
C3    C     C_2   0.424460 0.433489 0.922831 -0.022508
C4    C     C_R   0.262682 0.492853 0.499918 0.538907
C5    C     C_2   0.426120 0.431644 0.078653 -0.019645
C6    C     C_R   0.500490 0.734933 0.498759 0.574965
C7    C     C_R   0.737373 0.492303 0.500763 0.540610
C8    C     C_R   0.131447 0.313826 0.676235 -0.158844
C9    C     C_R   0.069126 0.237816 0.770914 0.293944
C10   C     C_R   0.939875 0.240918 0.778853 0.303755
C11   C     C_R   0.873530 0.320675 0.688887 -0.165383
C12   C     C_R   0.066563 0.398085 0.590381 -0.026233
C13   C     C_R   0.935585 0.400012 0.594337 -0.029558
C14   C     C_3   0.197734 0.072035 0.802950 -0.000828
C15   C     C_3   0.230269 0.974611 0.912627 -0.250625
C16   C     C_3   0.308146 0.871327 0.853351 -0.464542
C17   C     C_3   0.766916 0.125579 0.856964 -0.010138
C18   C     C_3   0.670649 0.191227 0.945213 -0.251458
C19   C     C_3   0.545367 0.126273 0.942694 -0.478946
C20   C     C_3   0.702734 0.906832 0.248558 0.013169
C21   C     C_3   0.753706 0.826430 0.134037 -0.257944
C22   C     C_3   0.891523 0.850392 0.110234 -0.491872
C23   C     C_R   0.129019 0.480201 0.499305 0.015918
C24   C     C_R   0.063177 0.554542 0.406377 -0.147694
C25   C     C_R   0.935651 0.554423 0.407309 -0.147719
C26   C     C_R   0.871275 0.481091 0.502248 0.016453
C27   C     C_2   0.534861 0.935255 0.386946 0.226244
C28   C     C_2   0.496133 0.867584 0.496128 -0.085057
C29   C     C_2   0.521003 0.069391 0.386795 -0.158354
Cu1   Cu    Cu3+1 0.500020 0.500020 0.638630 0.904044
Cu2   Cu    Cu3+1 0.499980 0.499980 0.361370 0.950614
H1    H     H_    0.110836 0.616072 0.335328 0.128451
H2    H     H_    0.458176 0.909402 0.587192 0.036313
H3    H     H_    0.516171 0.115892 0.286806 0.155673
H4    H     H_    0.284690 0.107491 0.755575 0.119589
H5    H     H_    0.139674 0.027920 0.721763 0.124660
H6    H     H_    0.282740 0.017742 0.998301 0.180694
H7    H     H_    0.143227 0.935356 0.955719 0.175760
H8    H     H_    0.260287 0.829624 0.763655 0.156820
H9    H     H_    0.323236 0.799140 0.933859 0.168363
H10   H     H_    0.399919 0.907095 0.820704 0.142221
H11   H     H_    0.768119 0.027149 0.887949 0.148332
H12   H     H_    0.530459 0.089831 0.603961 0.077105
H13   H     H_    0.740738 0.126588 0.745566 0.102517
H14   H     H_    0.703984 0.193943 0.053994 0.178964
H15   H     H_    0.659221 0.287187 0.907335 0.178415
H16   H     H_    0.505483 0.129513 0.837089 0.150513
H17   H     H_    0.480339 0.172662 0.013354 0.147350
H18   H     H_    0.555168 0.029280 0.977697 0.158517
H19   H     H_    0.757366 0.887922 0.344817 0.126092
H20   H     H_    0.714029 0.004880 0.217280 0.133584
H21   H     H_    0.740327 0.728212 0.162781 0.175298
H22   H     H_    0.701792 0.845252 0.036563 0.154972
H23   H     H_    0.357417 0.375074 0.872142 0.155143
H24   H     H_    0.907475 0.948251 0.082016 0.185923
H25   H     H_    0.924980 0.792531 0.024671 0.148612
H26   H     H_    0.945637 0.827157 0.204996 0.141545
H27   H     H_    0.564389 0.552272 0.893351 0.205489
H28   H     H_    0.361914 0.370144 0.130857 0.150048
H29   H     H_    0.558060 0.559040 0.105331 0.206859
H30   H     H_    0.231070 0.306285 0.672356 0.136103
H31   H     H_    0.774167 0.321582 0.695466 0.145867
H32   H     H_    0.886828 0.615485 0.336385 0.122651
N1    N     N_2   0.498640 0.498660 0.846910 -0.356619
N2    N     N_2   0.498610 0.498630 0.153040 -0.347848
O1    O     O_R   0.500020 0.321960 0.617040 -0.514994
O2    O     O_3   0.886096 0.173206 0.886270 -0.543415
O3    O     O_3   0.576103 0.878898 0.268088 -0.547826
O4    O     O_R   0.499980 0.321920 0.382900 -0.495067
O5    O     O_R   0.319670 0.500020 0.617100 -0.499481
O6    O     O_R   0.319630 0.499980 0.382950 -0.496873
O7    O     O_R   0.500020 0.678080 0.617100 -0.506620
O8    O     O_R   0.499980 0.678040 0.382960 -0.432570
O9    O     O_R   0.680370 0.500020 0.617050 -0.509489
O10   O     O_R   0.680330 0.499980 0.382900 -0.500229
O11   O     O_3   0.134172 0.168470 0.867896 -0.544216

loop_
_geom_bond_atom_site_label_1
_geom_bond_atom_site_label_2
_ccdc_geom_bond_type
H29   N2    S    
Cu1   O7    S    
C23   C24   A    
C24   H1    S    
C15   H7    S    
C22   H24   S    
C9    O11   S    
Cu1   N1    S    
C20   H20   S    
C9    C10   A    
C8    H30   S    
Cu2   O10   S    
C24   C25   A    
C14   C15   S    
C22   H25   S    
C2    H12   S    
C8    C12   A    
C11   H31   S    
C21   C22   S    
C22   H26   S    
C4    O5    A    
C17   C18   S    
C8    C9    A    
C17   H13   S    
C10   O2    S    
C3    N1    D    
C12   C13   A    
C21   H22   S    
C11   C13   A    
C12   C23   A    
Cu1   O1    S    
C7    C26   S    
C27   C29   S    
C16   H9    S    
C2    C29   D    
C18   H15   S    
Cu2   O6    S    
Cu1   O5    S    
C20   O3    S    
C28   H2    S    
C1    O1    A    
C7    O9    A    
C4    O6    A    
C14   H5    S    
Cu1   Cu2   S    
Cu1   O9    S    
C3    H23   S    
C19   H16   S    
C13   C26   A    
Cu2   O8    S    
C17   O2    S    
C10   C11   A    
C5    H28   S    
C16   H8    S    
C15   C16   S    
C18   H14   S    
C6    C28   S    
Cu2   O4    S    
C20   C21   S    
C6    O8    A    
C5    N2    D    
C18   C19   S    
C25   H32   S    
C27   C28   D    
C1    C2    S    
C4    C23   S    
Cu2   N2    S    
C17   H11   S    
C15   H6    S    
C7    O10   A    
C27   O3    S    
C19   H17   S    
H27   N1    S    
C3    C5    S    
C25   C26   A    
C6    O7    A    
C19   H18   S    
C16   H10   S    
C14   H4    S    
C21   H21   S    
C1    O4    A    
C20   H19   S    
C29   H3    S    
C14   O11   S    
