data_str_m4_o4_o24_f0_acs.sym.57
_audit_creation_date              2012-12-11T15:50:40-0500
_audit_creation_method            fapswitch 2.2
_symmetry_space_group_name_H-M    P1
_symmetry_Int_Tables_number       1
_space_group_crystal_system       triclinic
_cell_length_a                    18.939337
_cell_length_b                    11.117912
_cell_length_c                    18.802451
_cell_angle_alpha                 90.203193
_cell_angle_beta                  91.355846
_cell_angle_gamma                 90.006012
_cell_volume                      3958.02124054

loop_
_atom_site_label
_atom_site_type_symbol
_atom_type_description
_atom_site_fract_x
_atom_site_fract_y
_atom_site_fract_z
_atom_type_partial_charge
C1    C     C_R   0.274198 0.037977 0.854919 0.571010
C2    C     C_R   0.761002 0.569110 0.928662 -0.002903
C3    C     C_R   0.229794 0.550178 0.352026 0.571909
C4    C     C_R   0.466984 0.823589 0.645776 0.599371
C5    C     C_R   0.530940 0.822920 0.353055 0.543181
C6    C     C_R   0.966985 0.323589 0.645776 0.604624
C7    C     C_R   0.030940 0.322920 0.353055 0.537105
C8    C     C_R   0.274285 0.689457 0.637001 0.532786
C9    C     C_R   0.740726 0.637269 0.356006 0.540789
C10   C     C_R   0.774285 0.189457 0.637001 0.532776
C11   C     C_R   0.240726 0.137269 0.356006 0.544351
C12   C     C_3   0.455479 0.894219 0.032550 0.406376
C13   C     C_R   0.738875 0.068211 0.071193 -0.000933
C14   C     C_3   0.507095 0.939521 0.977285 0.427101
C15   C     C_3   0.993013 0.439429 0.023473 0.425716
C16   C     C_3   0.044546 0.394242 0.967928 0.409964
C17   C     C_3   0.436420 0.785516 0.985715 -0.156614
C18   C     C_3   0.567538 0.867040 0.013164 -0.135923
C19   C     C_3   0.932417 0.367475 0.987153 -0.139503
C20   C     C_3   0.063411 0.285197 0.014087 -0.153166
C21   C     C_3   0.489718 0.829884 0.930710 0.001653
C22   C     C_3   0.514150 0.822649 0.067846 0.017136
C23   C     C_3   0.985734 0.323224 0.932196 0.015491
C24   C     C_R   0.260366 0.071543 0.927641 -0.004346
C25   C     C_3   0.010198 0.329399 0.069363 0.002168
C26   C     C_2   0.130202 0.535015 0.589277 0.315785
C27   C     C_2   0.903572 0.715779 0.441773 0.302651
C28   C     C_2   0.630196 0.035029 0.589275 0.313947
C29   C     C_2   0.403572 0.215782 0.441776 0.302316
C30   C     C_2   0.339267 0.370679 0.911853 0.241272
C31   C     C_2   0.665975 0.364934 0.086706 0.232328
C32   C     C_2   0.833659 0.864717 0.911996 0.236905
C33   C     C_2   0.159614 0.871117 0.086922 0.237552
C34   C     C_R   0.304450 0.554238 0.039943 -0.026143
C35   C     C_R   0.696208 0.550941 0.960778 -0.039309
C36   C     C_R   0.803666 0.050273 0.038974 -0.040511
C37   C     C_R   0.195562 0.054777 0.959875 -0.023948
C38   C     C_R   0.310363 0.570710 0.967440 -0.053421
C39   C     C_R   0.689438 0.568374 0.033439 -0.027511
C40   C     C_R   0.810452 0.068082 0.966383 -0.030285
C41   C     C_R   0.725468 0.036892 0.144586 0.553245
C42   C     C_R   0.189658 0.070901 0.032414 -0.051005
C43   C     C_R   0.188026 0.628249 0.958214 0.414150
C44   C     C_R   0.813773 0.614508 0.044428 0.360037
C45   C     C_R   0.686197 0.114562 0.955595 0.363113
C46   C     C_R   0.312109 0.127901 0.041950 0.413524
C47   C     C_R   0.181892 0.610298 0.030213 -0.055376
C48   C     C_R   0.819182 0.604741 0.971619 -0.097199
C49   C     C_R   0.680708 0.103936 0.028355 -0.093519
C50   C     C_R   0.318169 0.110689 0.969849 -0.060472
C51   C     C_3   0.353374 0.449039 0.039648 -0.205463
C52   C     C_R   0.774455 0.537341 0.855310 0.564218
C53   C     C_3   0.648893 0.443510 0.959800 -0.206382
C54   C     C_3   0.850893 0.942789 0.039309 -0.207932
C55   C     C_3   0.146277 0.950018 0.959472 -0.204869
C56   C     C_3   0.362857 0.471654 0.960385 -0.106302
C57   C     C_3   0.639516 0.464643 0.039082 -0.100477
C58   C     C_3   0.860249 0.964225 0.960135 -0.102003
C59   C     C_3   0.136692 0.972508 0.038837 -0.105181
C60   C     C_R   0.251807 0.601759 0.924759 0.080463
C61   C     C_R   0.748630 0.595512 0.076526 0.070431
C62   C     C_R   0.751337 0.095789 0.923398 0.067550
C63   C     C_R   0.225773 0.537636 0.145007 0.560130
C64   C     C_R   0.248284 0.101256 0.075254 0.084355
C65   C     C_R   0.500811 0.827251 0.423316 -0.019349
C66   C     C_R   0.485812 0.832103 0.571695 0.053572
C67   C     C_R   0.000809 0.327251 0.423316 -0.019692
C68   C     C_R   0.985812 0.332103 0.571694 0.052911
C69   C     C_R   0.469103 0.821786 0.855772 0.581883
C70   C     C_R   0.532867 0.820075 0.143255 0.595206
C71   C     C_R   0.967156 0.320344 0.856746 0.610185
C72   C     C_R   0.030901 0.321543 0.144247 0.565230
C73   C     C_R   0.500498 0.721405 0.463146 0.001741
C74   C     C_3   0.548878 0.756048 0.966170 -0.180864
C75   C     C_R   0.494672 0.725016 0.535359 -0.045114
C76   C     C_R   0.000494 0.221405 0.463145 0.001982
C77   C     C_R   0.994669 0.225016 0.535358 -0.045681
C78   C     C_R   0.475712 0.938066 0.531550 -0.155244
C79   C     C_R   0.484859 0.935668 0.457586 -0.193255
C80   C     C_R   0.975714 0.438067 0.531550 -0.155649
C81   C     C_R   0.984860 0.435668 0.457586 -0.193775
C82   C     C_3   0.554388 0.623174 0.469128 0.301532
C83   C     C_3   0.546057 0.626806 0.548905 0.280798
C84   C     C_3   0.054381 0.123169 0.469126 0.301685
C85   C     C_3   0.495996 0.711720 0.021912 -0.181745
C86   C     C_3   0.046051 0.126801 0.548903 0.281289
C87   C     C_R   0.250685 0.613978 0.416843 0.031519
C88   C     C_R   0.749097 0.579331 0.576255 0.077099
C89   C     C_R   0.750685 0.113979 0.416842 0.030280
C90   C     C_R   0.249096 0.079332 0.576255 0.077556
C91   C     C_R   0.196084 0.664224 0.455939 -0.055137
C92   C     C_R   0.775018 0.683423 0.546793 -0.028316
C93   C     C_R   0.696085 0.164229 0.455937 -0.055660
C94   C     C_R   0.275017 0.183424 0.546793 -0.027467
C95   C     C_R   0.204916 0.689048 0.526512 0.005053
C96   C     C_3   0.003694 0.211914 0.977461 -0.180445
C97   C     C_R   0.775155 0.694881 0.474915 0.031980
C98   C     C_R   0.704917 0.189052 0.526511 0.005273
C99   C     C_R   0.275154 0.194882 0.474916 0.030703
C100  C     C_R   0.327969 0.638420 0.520120 -0.128624
C101  C     C_R   0.713393 0.507760 0.458236 -0.169423
C102  C     C_R   0.827969 0.138416 0.520120 -0.128440
C103  C     C_R   0.213392 0.007761 0.458236 -0.168770
C104  C     C_R   0.319276 0.615874 0.446664 -0.062081
C105  C     C_R   0.712389 0.495959 0.532026 -0.096614
C106  C     C_R   0.819276 0.115872 0.446664 -0.063413
C107  C     C_3   0.950882 0.256116 0.033474 -0.184598
C108  C     C_R   0.212389 0.995959 0.532026 -0.097220
C109  C     C_3   0.122187 0.619964 0.465119 -0.201274
C110  C     C_3   0.841434 0.754813 0.557883 -0.192135
C111  C     C_3   0.622186 0.119977 0.465116 -0.201029
C112  C     C_3   0.341432 0.254817 0.557884 -0.191116
C113  C     C_3   0.132070 0.646133 0.543508 0.368383
C114  C     C_3   0.841032 0.768354 0.477526 0.371835
C115  C     C_3   0.632069 0.146146 0.543506 0.369795
C116  C     C_3   0.341031 0.268356 0.477527 0.371187
C117  C     C_R   0.261107 0.638944 0.851983 0.605299
C118  C     C_R   0.239653 0.570968 0.072286 -0.002047
C119  C     C_R   0.739121 0.637304 0.148522 0.574045
C120  C     C_R   0.760899 0.137581 0.851500 0.593526
C121  C     C_R   0.238949 0.138576 0.148075 0.587127
C122  C     C_R   0.269376 0.669050 0.561058 -0.049202
C123  C     C_R   0.749226 0.605127 0.429202 -0.052192
C124  C     C_R   0.769376 0.169049 0.561058 -0.048825
C125  C     C_R   0.249225 0.105128 0.429202 -0.052132
C126  C     C_R   0.271221 0.043446 0.645916 0.562232
C127  C     C_R   0.729794 0.050179 0.352026 0.571124
C128  C     C_R   0.771221 0.543447 0.645916 0.561488
Cr1   Cr    Cr6+3 0.229640 0.835880 0.747370 1.125191
Cr2   Cr    Cr6+3 0.614230 0.677220 0.250660 1.064336
Cr3   Cr    Cr6+3 0.885770 0.177220 0.749340 1.040965
Cr4   Cr    Cr6+3 0.114230 0.177220 0.250660 1.065674
Cr5   Cr    Cr6+3 0.770360 0.835880 0.252630 1.100800
Cr6   Cr    Cr6+3 0.729640 0.335880 0.747370 1.120350
Cr7   Cr    Cr6+3 0.270360 0.335880 0.252630 1.105873
Cr8   Cr    Cr6+3 0.387390 0.989720 0.750850 1.101903
Cr9   Cr    Cr6+3 0.612610 0.989720 0.249150 1.063022
Cr10  Cr    Cr6+3 0.887390 0.489720 0.750850 1.090442
Cr11  Cr    Cr6+3 0.112610 0.489720 0.249150 1.074615
Cr12  Cr    Cr6+3 0.385770 0.677220 0.749340 1.041996
F1    F     F_    0.529916 0.516790 0.439078 -0.589713
F2    F     F_    0.509231 0.056783 0.953725 -0.554486
F3    F     F_    0.991136 0.556555 0.047783 -0.557134
F4    F     F_    0.091755 0.455010 0.927289 -0.555472
F5    F     F_    0.129964 0.668294 0.921465 -0.562813
F6    F     F_    0.872479 0.644317 0.083315 -0.565985
F7    F     F_    0.627541 0.144710 0.916857 -0.557436
F8    F     F_    0.370163 0.168085 0.078850 -0.568459
F9    F     F_    0.605521 0.668764 0.585162 -0.653184
F10   F     F_    0.029905 0.016787 0.439076 -0.589628
F11   F     F_    0.105516 0.168754 0.585159 -0.651242
F12   F     F_    0.089083 0.738531 0.566646 -0.571351
F13   F     F_    0.827441 0.882981 0.455852 -0.628440
F14   F     F_    0.589085 0.238549 0.566643 -0.571021
F15   F     F_    0.327439 0.382983 0.455852 -0.628759
F16   F     F_    0.408360 0.954954 0.073568 -0.565612
H1    H     H_    0.381155 0.761873 0.972344 0.130249
H2    H     H_    0.022080 0.044923 0.572007 0.193908
H3    H     H_    0.606620 0.652708 0.450738 0.157458
H4    H     H_    0.522088 0.544926 0.572009 0.194134
H5    H     H_    0.378186 0.621772 0.546009 0.152920
H6    H     H_    0.686401 0.442420 0.424463 0.177319
H7    H     H_    0.878185 0.121764 0.546010 0.152801
H8    H     H_    0.186400 0.942422 0.424464 0.178275
H9    H     H_    0.363747 0.585074 0.416342 0.209204
H10   H     H_    0.686969 0.418219 0.554118 0.201624
H11   H     H_    0.863747 0.085070 0.416342 0.208642
H12   H     H_    0.622457 0.893497 0.026789 0.121960
H13   H     H_    0.186969 0.918218 0.554119 0.201549
H14   H     H_    0.117070 0.522761 0.451926 0.100316
H15   H     H_    0.886778 0.701455 0.579099 0.144092
H16   H     H_    0.617066 0.022775 0.451924 0.100499
H17   H     H_    0.386776 0.201460 0.579101 0.144033
H18   H     H_    0.083514 0.679462 0.437530 0.228201
H19   H     H_    0.831801 0.840789 0.586460 0.178323
H20   H     H_    0.583516 0.179479 0.437526 0.227915
H21   H     H_    0.331797 0.340793 0.586461 0.179352
H22   H     H_    0.586581 0.701020 0.935908 0.164244
H23   H     H_    0.877565 0.394385 0.973723 0.120992
H24   H     H_    0.489606 0.618998 0.042001 0.134166
H25   H     H_    0.009904 0.119262 0.956825 0.135216
H26   H     H_    0.913120 0.201054 0.063418 0.160394
H27   H     H_    0.130112 0.623474 0.052124 0.205419
H28   H     H_    0.870987 0.618138 0.949741 0.185190
H29   H     H_    0.628895 0.117151 0.050293 0.185887
H30   H     H_    0.369915 0.124189 0.947961 0.204703
H31   H     H_    0.821755 0.859476 0.052275 0.201537
H32   H     H_    0.174941 0.866456 0.946610 0.203557
H33   H     H_    0.324478 0.365683 0.052143 0.204424
H34   H     H_    0.118641 0.261340 0.027277 0.131890
H35   H     H_    0.677962 0.360173 0.946408 0.200783
H36   H     H_    0.402068 0.465273 0.072351 0.142959
H37   H     H_    0.599709 0.459091 0.927741 0.146649
H38   H     H_    0.900102 0.958175 0.071433 0.144761
H39   H     H_    0.097721 0.966774 0.926733 0.144991
H40   H     H_    0.416124 0.506495 0.947783 0.113043
H41   H     H_    0.585476 0.494187 0.052249 0.102746
H42   H     H_    0.914324 0.993647 0.947119 0.103041
H43   H     H_    0.083564 0.008054 0.051480 0.112660
H44   H     H_    0.159433 0.455142 0.574306 0.097733
H45   H     H_    0.463643 0.022610 0.557226 0.176482
H46   H     H_    0.896983 0.642467 0.404145 0.068495
H47   H     H_    0.659424 0.955153 0.574306 0.097239
H48   H     H_    0.396983 0.142474 0.404144 0.070115
H49   H     H_    0.378732 0.318199 0.884696 0.138026
H50   H     H_    0.628534 0.314795 0.117744 0.135914
H51   H     H_    0.871049 0.814442 0.880774 0.136704
H52   H     H_    0.119746 0.818394 0.113116 0.137865
H53   H     H_    0.485545 0.018430 0.428195 0.147764
H54   H     H_    0.963647 0.522611 0.557226 0.176350
H55   H     H_    0.985547 0.518430 0.428195 0.147492
H56   H     H_    0.106614 0.152697 0.450736 0.157388
O1    O     O_R   0.214300 0.709080 0.827500 -0.436120
O2    O     O_R   0.543340 0.717710 0.330180 -0.479158
O3    O     O_R   0.956660 0.217710 0.669820 -0.515973
O4    O     O_R   0.043340 0.217710 0.330180 -0.480589
O5    O     O_R   0.320590 0.625770 0.672930 -0.500384
O6    O     O_R   0.679410 0.625770 0.327070 -0.493720
O7    O     O_R   0.820590 0.125770 0.672930 -0.502854
O8    O     O_R   0.179410 0.125770 0.327070 -0.492225
O9    O     O_3   0.334270 0.834280 0.749190 -0.335062
O10   O     O_3   0.665730 0.834280 0.250810 -0.296913
O11   O     O_3   0.834270 0.334280 0.749190 -0.333178
O12   O     O_R   0.785700 0.709080 0.172500 -0.458197
O13   O     O_3   0.165730 0.334280 0.250810 -0.298895
O14   O     O_R   0.236190 0.958390 0.823150 -0.504543
O15   O     O_R   0.763810 0.958390 0.176850 -0.512450
O16   O     O_R   0.736190 0.458390 0.823150 -0.503859
O17   O     O_R   0.263810 0.458390 0.176850 -0.513154
O18   O     O_R   0.332090 0.075280 0.831290 -0.510594
O19   O     O_R   0.667910 0.075280 0.168710 -0.525670
O20   O     O_R   0.832090 0.575280 0.831290 -0.521170
O21   O     O_R   0.167910 0.575280 0.168710 -0.514147
O22   O     O_R   0.446280 0.918040 0.826620 -0.449364
O23   O     O_R   0.714300 0.209080 0.827500 -0.441241
O24   O     O_R   0.553720 0.918040 0.173380 -0.474327
O25   O     O_R   0.946280 0.418040 0.826620 -0.463368
O26   O     O_R   0.053720 0.418040 0.173380 -0.459736
O27   O     O_R   0.457080 0.716270 0.831760 -0.523812
O28   O     O_R   0.542920 0.716270 0.168240 -0.527117
O29   O     O_R   0.957080 0.216270 0.831760 -0.522631
O30   O     O_R   0.042920 0.216270 0.168240 -0.527982
O31   O     O_R   0.320980 0.624440 0.823040 -0.515731
O32   O     O_R   0.679020 0.624440 0.176960 -0.521147
O33   O     O_R   0.820980 0.124440 0.823040 -0.517136
O34   O     O_R   0.285700 0.209080 0.172500 -0.453584
O35   O     O_R   0.179020 0.124440 0.176960 -0.519334
O36   O     O_R   0.213880 0.710510 0.665560 -0.440123
O37   O     O_R   0.786120 0.710510 0.334440 -0.496974
O38   O     O_R   0.713880 0.210510 0.665560 -0.440845
O39   O     O_R   0.286120 0.210510 0.334440 -0.496534
O40   O     O_R   0.235800 0.959720 0.673040 -0.504147
O41   O     O_R   0.764200 0.959720 0.326960 -0.442982
O42   O     O_R   0.735800 0.459720 0.673040 -0.503446
O43   O     O_R   0.264200 0.459720 0.326960 -0.443978
O44   O     O_R   0.331670 0.076720 0.669350 -0.534842
O45   O     O_R   0.445900 0.919370 0.676500 -0.483781
O46   O     O_R   0.668330 0.076720 0.330650 -0.529227
O47   O     O_R   0.831670 0.576720 0.669350 -0.535302
O48   O     O_R   0.168330 0.576720 0.330650 -0.528645
O49   O     O_2   0.096364 0.534262 0.643709 -0.407752
O50   O     O_2   0.961894 0.759504 0.452534 -0.431105
O51   O     O_2   0.596355 0.034280 0.643706 -0.413694
O52   O     O_2   0.461894 0.259504 0.452541 -0.431279
O53   O     O_2   0.276802 0.346018 0.902953 -0.482310
O54   O     O_2   0.728623 0.338907 0.090612 -0.524855
O55   O     O_2   0.770973 0.838941 0.907913 -0.513818
O56   O     O_R   0.554100 0.919370 0.323500 -0.505705
O57   O     O_2   0.221967 0.846468 0.096588 -0.493714
O58   O     O_R   0.945900 0.419370 0.676500 -0.480935
O59   O     O_R   0.054100 0.419370 0.323500 -0.508907
O60   O     O_R   0.456660 0.717710 0.669820 -0.517535

loop_
_geom_bond_atom_site_label_1
_geom_bond_atom_site_label_2
_ccdc_geom_bond_type
C2    C35   A    
C4    O60   A    
C55   H39   S    
C14   F2    S    
C33   H52   S    
C34   C118  A    
C4    O45   A    
C65   C79   A    
C55   C59   S    
C35   C53   S    
C6    O58   A    
C27   H46   S    
C53   H37   S    
C14   C18   S    
C35   C39   A    
C113  F12   S    
C78   H45   S    
C32   C58   S    
C96   H25   S    
Cr9   O19   S    
C75   C83   S    
C76   C84   S    
C13   C41   S    
C40   C62   A    
C99   C125  A    
C26   O49   D    
Cr9   O46   S    
C23   C96   S    
C98   C124  A    
Cr2   O28   S    
C34   C51   S    
C101  C123  A    
C29   O52   D    
Cr10  O25   S    
C54   H38   S    
C71   O25   A    
C14   C21   S    
Cr3   O7    S    
C101  H6    S    
C16   F4    S    
C84   C86   S    
C51   C56   S    
C87   C91   A    
C120  O23   A    
Cr10  O58   S    
Cr9   O56   S    
Cr10  O11   S    
Cr12  O9    S    
C15   C25   S    
C61   C119  S    
C20   C25   S    
C5    O2    A    
C3    O48   A    
C39   C57   S    
C12   C22   S    
C45   C62   A    
C100  C104  A    
Cr5   O12   S    
C65   C73   A    
C105  H10   S    
C32   O55   D    
C126  O40   A    
C111  H16   S    
C22   C85   S    
C37   C42   A    
Cr2   O6    S    
Cr5   O10   S    
C116  F15   S    
C8    O5    A    
Cr3   O33   S    
C104  H9    S    
C56   H40   S    
Cr2   O32   S    
C1    O18   A    
C52   O16   A    
C47   C118  A    
C46   F8    S    
C6    O3    A    
C41   O19   A    
C20   H34   S    
C59   H43   S    
C102  H7    S    
Cr8   O22   S    
C12   C17   S    
Cr11  O21   S    
C128  O42   A    
Cr6   O23   S    
C102  C106  A    
C100  H5    S    
Cr4   O4    S    
C111  C115  S    
C87   C104  A    
C49   H29   S    
C26   H44   S    
C119  O32   A    
C110  C114  S    
C114  F13   S    
C62   C120  S    
C7    O4    A    
C51   H33   S    
C109  C113  S    
C63   O17   A    
C57   H41   S    
C110  H15   S    
C6    C68   S    
C112  H17   S    
C20   C96   S    
C38   C60   A    
C18   C74   S    
C29   H48   S    
C45   F7    S    
C108  H13   S    
Cr4   O13   S    
Cr11  O26   S    
C89   C93   A    
C73   C75   A    
Cr7   O34   S    
C70   O28   A    
C12   F16   S    
C82   F1    S    
C102  C124  A    
C5    O56   A    
Cr1   O40   S    
C92   C97   A    
C90   C94   A    
C3    O43   A    
C9    O6    A    
C101  C105  A    
C66   C78   A    
Cr7   O39   S    
C40   C58   S    
C15   C16   S    
Cr8   O9    S    
C107  H26   S    
C3    C87   S    
C111  H20   S    
C15   C19   S    
C128  O47   A    
C72   O30   A    
C36   C40   A    
Cr2   O10   S    
C76   C77   A    
Cr6   O42   S    
C31   H50   S    
Cr1   O9    S    
Cr3   O29   S    
C121  O35   A    
Cr5   O41   S    
C99   C116  S    
C48   H28   S    
C63   C118  S    
C18   H12   S    
C109  H18   S    
C52   O20   A    
C70   O24   A    
C2    C48   A    
C30   O53   D    
C110  H19   S    
C27   O50   D    
Cr3   O3    S    
Cr9   O10   S    
C82   C83   S    
Cr12  O27   S    
C17   C21   S    
C41   O15   A    
Cr12  O60   S    
C46   C64   A    
C91   C109  S    
C10   O38   A    
C34   C38   A    
Cr1   O14   S    
C19   C23   S    
C69   O22   A    
C78   C79   A    
C43   F5    S    
C28   C115  S    
C23   C71   S    
C63   O21   A    
C86   H2    S    
C44   F6    S    
C74   H22   S    
C1    O14   A    
C45   C49   A    
C16   C20   S    
Cr11  O48   S    
C11   O8    A    
C54   C58   S    
C24   C37   A    
C90   C126  S    
C127  O46   A    
C38   C56   S    
C60   C117  S    
C25   C72   S    
C88   C92   A    
C55   H32   S    
C32   H51   S    
C117  O1    A    
C53   H35   S    
C47   H27   S    
C71   O29   A    
C103  C108  A    
C2    C52   S    
C43   C60   A    
C13   C36   A    
C15   F3    S    
C117  O31   A    
C95   C122  A    
C5    C65   S    
C121  O34   A    
C81   H55   S    
C96   C107  S    
C93   C111  S    
C77   C86   S    
C67   C81   A    
C16   C23   S    
C54   H31   S    
C83   H4    S    
C115  F14   S    
C13   C49   A    
C89   C106  A    
C17   C85   S    
C120  O33   A    
Cr6   O38   S    
Cr5   O37   S    
Cr9   O24   S    
C68   C80   A    
C50   H30   S    
C19   H23   S    
C73   C82   S    
C112  C116  S    
C39   C61   A    
C17   H1    S    
C109  H14   S    
C25   C107  S    
C80   H54   S    
C89   C127  S    
Cr4   O30   S    
C68   C77   A    
C79   H53   S    
Cr10  O47   S    
C58   H42   S    
C53   C57   S    
Cr7   O13   S    
C33   O57   D    
C127  O41   A    
C28   H47   S    
Cr10  O20   S    
Cr8   O44   S    
Cr5   O15   S    
C12   C14   S    
C80   C81   A    
C42   C59   S    
C42   C64   A    
C29   C116  S    
C84   H56   S    
Cr4   O35   S    
C103  H8    S    
C44   C61   A    
C28   O51   D    
C126  O44   A    
C46   C50   A    
C10   C124  S    
C9    O37   A    
Cr11  O13   S    
Cr12  O31   S    
Cr7   O43   S    
C106  H11   S    
C31   C57   S    
C18   C22   S    
C69   O27   A    
C90   C108  A    
C97   C123  A    
C86   F11   S    
C4    C66   S    
C88   C105  A    
C30   H49   S    
C92   C110  S    
C98   C115  S    
Cr8   O18   S    
C94   C99   A    
C95   C113  S    
C85   H24   S    
Cr11  O59   S    
C66   C75   A    
C21   C74   S    
C94   C112  S    
C119  O12   A    
C9    C123  S    
C91   C95   A    
Cr2   O2    S    
C100  C122  A    
C84   F10   S    
C8    C122  S    
Cr1   O1    S    
C30   C56   S    
C103  C125  A    
C11   O39   A    
C26   C113  S    
C36   C54   S    
C24   C50   A    
C7    C67   S    
C7    O59   A    
C37   C55   S    
C27   C114  S    
C44   C48   A    
Cr12  O5    S    
C74   C85   S    
C11   C125  S    
C10   O7    A    
C8    O36   A    
C1    C24   S    
C88   C128  S    
Cr6   O11   S    
Cr7   O17   S    
C21   C69   S    
Cr8   O45   S    
C83   F9    S    
Cr3   O11   S    
C67   C76   A    
Cr4   O8    S    
C97   C114  S    
C33   C59   S    
C43   C47   A    
C93   C98   A    
C22   C70   S    
C82   H3    S    
C51   H36   S    
C64   C121  S    
C72   O26   A    
Cr6   O16   S    
C112  H21   S    
C31   O54   D    
Cr1   O36   S    
C19   C107  S    
