data_str_m3_o4_o5_f0_pcu.sym.176
_audit_creation_date              2013-03-05T16:45:22-0500
_audit_creation_method            fapswitch 2.2
_symmetry_space_group_name_H-M    P1
_symmetry_Int_Tables_number       1
_space_group_crystal_system       triclinic
_cell_length_a                    8.914426
_cell_length_b                    10.671753
_cell_length_c                    9.912786
_cell_angle_alpha                 88.849662
_cell_angle_beta                  89.71482
_cell_angle_gamma                 91.214183
_cell_volume                      942.613109877

loop_
_atom_site_label
_atom_site_type_symbol
_atom_site_description
_atom_site_fract_x
_atom_site_fract_y
_atom_site_fract_z
_atom_type_partial_charge
O1    O     O_R   0.500020 0.316790 0.614690 -0.617970
O2    O     O_R   0.500000 0.316760 0.385350 -0.597117
C1    C     C_R   0.513079 0.260554 0.500644 0.905491
O3    O     O_R   0.285350 0.500020 0.614650 -0.598297
O4    O     O_R   0.285340 0.499980 0.385310 -0.582255
C2    C     C_R   0.218841 0.499679 0.500251 0.925781
Zn1   Zn    Zn3+2 0.500010 0.500020 0.653130 0.997384
Zn2   Zn    Zn3+2 0.499990 0.499980 0.346870 1.079038
O5    O     O_R   0.500000 0.683240 0.614650 -0.627436
O6    O     O_R   0.499980 0.683210 0.385310 -0.585289
O7    O     O_R   0.714660 0.500020 0.614690 -0.622992
O8    O     O_R   0.714650 0.499980 0.385350 -0.544104
C3    C     C_R   0.504919 0.740272 0.498915 0.900056
C4    C     C_R   0.781176 0.500185 0.499822 0.937450
C5    C     C_1   0.065407 0.499791 0.500517 -0.061529
C6    C     C_1   0.934584 0.499955 0.499831 -0.063066
C7    C     C_R   0.545484 0.061478 0.622053 0.121235
C8    C     C_R   0.551562 0.130458 0.501204 -0.226527
C9    C     C_R   0.588857 0.068171 0.380537 0.285401
C10   C     C_R   0.572880 0.937943 0.379374 -0.217077
H1    H     H_    0.586854 0.889571 0.285569 0.244852
C11   C     C_R   0.533598 0.872165 0.498425 -0.173840
C12   C     C_R   0.537717 0.933805 0.620360 0.131984
C13   C     C_3   0.433396 0.924029 0.738321 -0.411924
C14   C     C_3   0.442076 0.065686 0.740885 -0.433672
H2    H     H_    0.486022 0.878343 0.827540 0.229364
C15   C     C_R   0.374725 0.462315 0.072750 0.090125
N1    N     N_R   0.499010 0.499140 0.142800 -0.171514
C16   C     C_R   0.618470 0.549619 0.068488 0.349986
C17   C     C_R   0.618014 0.547558 0.925170 -0.143266
N2    N     N_R   0.499010 0.499180 0.857150 -0.150964
C18   C     C_R   0.374436 0.463965 0.930201 0.110582
C19   C     C_3   0.296623 0.339335 0.925100 0.031401
C20   C     C_3   0.300357 0.334816 0.079229 -0.002435
H3    H     H_    0.374752 0.262105 0.122348 0.146342
N3    N     N_R   0.639201 0.134104 0.260089 0.226352
O9    O     O_R   0.740996 0.222856 0.268038 -0.308144
O10   O     O_R   0.604920 0.091221 0.141920 -0.400300
H4    H     H_    0.366404 0.268067 0.878280 0.101919
N4    N     N_R   0.151387 0.331762 0.142154 0.269899
O11   O     O_R   0.078091 0.225414 0.154710 -0.292526
O12   O     O_R   0.090732 0.433101 0.185800 -0.283832
H5    H     H_    0.320370 0.886332 0.711505 0.214644
H6    H     H_    0.333557 0.109942 0.716322 0.234386
H7    H     H_    0.501139 0.100255 0.831748 0.237419
N5    N     N_R   0.745489 0.606304 0.132672 0.234511
O13   O     O_R   0.725909 0.698868 0.213320 -0.388544
O14   O     O_R   0.878673 0.591342 0.082240 -0.294070
H8    H     H_    0.713089 0.585452 0.868384 0.203517
N6    N     N_R   0.146365 0.347056 0.866307 0.271242
O15   O     O_R   0.097719 0.258163 0.788953 -0.377291
O16   O     O_R   0.064489 0.445264 0.882797 -0.304378

loop_
_geom_bond_atom_site_label_1
_geom_bond_atom_site_label_2
_geom_bond_distance
_ccdc_geom_bond_type
O4    Zn2   1.949191 S    
N6    O16   1.302287 A    
C12   C13   1.491042 S    
C16   C17   1.421309 A    
C20   H3    1.111724 S    
N2    C18   1.364632 A    
C16   N5    1.430540 S    
Zn2   O8    1.953079 S    
C7    C14   1.494137 S    
C18   C19   1.488829 S    
N4    O12   1.300134 A    
C7    C8    1.393613 A    
C19   N6    1.466670 S    
C7    C12   1.363236 A    
C10   H1    1.080506 S    
Zn1   O7    1.949192 S    
C13   H2    1.111969 S    
N1    C16   1.385220 A    
C19   H4    1.100983 S    
O3    Zn1   1.953079 S    
C20   N4    1.463824 S    
O4    C2    1.281668 A    
C14   H6    1.111429 S    
N3    O10   1.301586 A    
N3    O9    1.301548 A    
C17   H8    1.081819 S    
O8    C4    1.282993 A    
C3    C11   1.425123 S    
C19   C20   1.528189 S    
O2    C1    1.286981 A    
C9    N3    1.438615 S    
O1    Zn1   1.999663 S    
C15   C20   1.500936 S    
C17   N2    1.358112 A    
Zn2   N1    2.023164 S    
O7    C4    1.281132 A    
C4    C6    1.367599 S    
Zn1   N2    2.022221 S    
C15   C18   1.412827 A    
C5    C6    1.166309 T    
N5    O14   1.300130 A    
C14   H7    1.111041 S    
C13   C14   1.512800 S    
C1    C8    1.437058 S    
O3    C2    1.282294 A    
C8    C9    1.421437 A    
C15   N1    1.365388 A    
Zn1   O5    1.984609 S    
C13   H5    1.112410 S    
O5    C3    1.287982 A    
N5    O13   1.297307 A    
N4    O11   1.300982 A    
N6    O15   1.300404 A    
C2    C5    1.367789 S    
C11   C12   1.387943 A    
Zn2   O6    1.999663 S    
O2    Zn2   1.984611 S    
C9    C10   1.394319 A    
C10   C11   1.400106 A    
O1    C1    1.296406 A    
O6    C3    1.291451 A    
