data_str_m4_o12_o15_f0_acs.sym.128
_audit_creation_date              2012-12-11T14:13:06-0500
_audit_creation_method            fapswitch 2.2
_symmetry_space_group_name_H-M    P1
_symmetry_Int_Tables_number       1
_space_group_crystal_system       triclinic
_cell_length_a                    11.833969
_cell_length_b                    18.450905
_cell_length_c                    10.114551
_cell_angle_alpha                 89.873938
_cell_angle_beta                  112.101669
_cell_angle_gamma                 90.267708
_cell_volume                      2046.17901072

loop_
_atom_site_label
_atom_site_type_symbol
_atom_type_description
_atom_site_fract_x
_atom_site_fract_y
_atom_site_fract_z
_atom_type_partial_charge
C1    C     C_R   0.083593 0.642334 0.143793 0.548303
C2    C     C_R   0.927184 0.354049 0.859961 0.531938
C3    C     C_R   0.928072 0.146977 0.859959 0.549493
C4    C     C_R   0.077639 0.855150 0.141010 0.532850
C5    C     C_R   0.389811 0.456213 0.489477 0.011987
C6    C     C_R   0.586956 0.530943 0.464535 0.024625
C7    C     C_R   0.611474 0.955806 0.513131 0.012807
C8    C     C_R   0.415237 0.028880 0.541473 0.020068
C9    C     C_2   0.362555 0.940459 0.003640 -0.131409
C10   C     C_2   0.594089 0.076574 0.086773 -0.120580
C11   C     C_2   0.638211 0.440634 0.993252 -0.121290
C12   C     C_2   0.403994 0.575570 0.915638 -0.128523
C13   C     C_2   0.464509 0.975457 0.080389 -0.146345
C14   C     C_2   0.480969 0.051164 0.047652 -0.167747
C15   C     C_2   0.533075 0.474279 0.923703 -0.154564
C16   C     C_2   0.517053 0.550275 0.954282 -0.155741
C17   C     C_2   0.027681 0.927545 0.118083 0.073317
C18   C     C_2   0.995210 0.079163 0.881216 0.040793
C19   C     C_2   0.990726 0.424079 0.882930 0.042862
C20   C     C_2   0.045851 0.566201 0.130071 0.063286
C21   C     C_2   0.056557 0.969903 0.027829 -0.150373
C22   C     C_2   0.023360 0.045843 0.007096 -0.173124
C23   C     C_2   0.048301 0.448187 0.016504 -0.166145
C24   C     C_2   0.082182 0.524424 0.044615 -0.143029
C25   C     C_R   0.469737 0.645750 0.439732 0.519849
C26   C     C_R   0.526316 0.350499 0.553571 0.519423
C27   C     C_R   0.530492 0.145306 0.561520 0.523096
C28   C     C_R   0.474261 0.850049 0.447090 0.517561
C29   C     C_R   0.375820 0.645071 0.963097 0.548416
C30   C     C_R   0.648882 0.361664 0.986882 0.574422
C31   C     C_R   0.623697 0.145320 0.037350 0.563215
C32   C     C_R   0.351539 0.861688 0.012516 0.561016
C33   C     C_R   0.485595 0.418081 0.471704 -0.042718
C34   C     C_R   0.496517 0.570404 0.496021 -0.035073
C35   C     C_R   0.516091 0.916901 0.531042 -0.038434
C36   C     C_R   0.504748 0.069255 0.508610 -0.036269
C37   C     C_R   0.283617 0.419824 0.484601 -0.078356
C38   C     C_R   0.688355 0.564757 0.449283 -0.035946
C39   C     C_R   0.716448 0.919906 0.514295 -0.054506
C40   C     C_R   0.313349 0.061439 0.556422 -0.060865
C41   C     C_R   0.202472 0.453360 0.533485 -0.105202
C42   C     C_R   0.745505 0.532079 0.368544 -0.135864
C43   C     C_R   0.795831 0.954100 0.462946 -0.063159
C44   C     C_R   0.252152 0.026078 0.630234 -0.118610
C45   C     C_R   0.224337 0.524046 0.584574 -0.107385
C46   C     C_R   0.726780 0.459074 0.334832 -0.113340
C47   C     C_R   0.775081 0.025632 0.416695 -0.099903
C48   C     C_R   0.269253 0.952972 0.660470 -0.075300
C49   C     C_R   0.322206 0.563276 0.575696 -0.060491
C50   C     C_R   0.641217 0.420681 0.369563 -0.055940
C51   C     C_R   0.677879 0.063877 0.427330 -0.073510
C52   C     C_R   0.358943 0.916695 0.631173 -0.043870
C53   C     C_R   0.403194 0.530925 0.520694 0.006062
C54   C     C_R   0.570917 0.456207 0.434956 0.013024
C55   C     C_R   0.597806 0.030600 0.483028 0.006768
C56   C     C_R   0.431210 0.953957 0.569459 0.017402
Cr1   Cr    Cr6+3 0.187610 0.750000 0.979860 1.046915
Cr2   Cr    Cr6+3 0.812390 0.250000 0.020140 1.036221
Cr3   Cr    Cr6+3 0.245810 0.750000 0.341640 1.056974
Cr4   Cr    Cr6+3 0.754190 0.250000 0.658360 1.063230
Cr5   Cr    Cr6+3 0.485760 0.750000 0.219910 1.018202
Cr6   Cr    Cr6+3 0.514240 0.250000 0.780090 1.015479
H1    H     H_    0.124880 0.423148 0.534401 0.175244
H2    H     H_    0.801470 0.564579 0.330064 0.161493
H3    H     H_    0.870864 0.923582 0.456199 0.163587
H4    H     H_    0.196059 0.056674 0.669235 0.158434
H5    H     H_    0.164889 0.548977 0.630404 0.149267
H6    H     H_    0.780017 0.431612 0.284756 0.195027
H7    H     H_    0.832740 0.051984 0.370028 0.151147
H8    H     H_    0.213004 0.924617 0.706469 0.181703
H9    H     H_    0.265695 0.364297 0.447605 0.128391
H10   H     H_    0.718812 0.618498 0.490174 0.157929
H11   H     H_    0.734180 0.864071 0.549192 0.136722
H12   H     H_    0.283025 0.115399 0.517802 0.142038
H13   H     H_    0.336772 0.617742 0.618231 0.141165
H14   H     H_    0.626107 0.364147 0.339012 0.137177
H15   H     H_    0.662741 0.118258 0.384394 0.137002
H16   H     H_    0.374312 0.860098 0.661004 0.135930
H17   H     H_    0.403483 0.083274 0.981176 0.151818
H18   H     H_    0.541251 0.946233 0.156419 0.178870
H19   H     H_    0.595134 0.583079 0.017840 0.157262
H20   H     H_    0.454025 0.443804 0.854729 0.173880
H21   H     H_    0.669710 0.041988 0.145631 0.164191
H22   H     H_    0.286550 0.970837 0.930396 0.099916
H23   H     H_    0.327356 0.540619 0.858811 0.106187
H24   H     H_    0.716980 0.472009 0.058520 0.143602
H25   H     H_    0.009749 0.073787 0.094304 0.173615
H26   H     H_    0.109081 0.947809 0.970295 0.175234
H27   H     H_    0.131245 0.548588 0.983579 0.167273
H28   H     H_    0.061112 0.412313 0.106168 0.180013
O1    O     O_R   0.267710 0.668200 0.902110 -0.512835
O2    O     O_R   0.732290 0.331800 0.097890 -0.513651
O3    O     O_R   0.732290 0.168200 0.097890 -0.503944
O4    O     O_R   0.267710 0.831800 0.902110 -0.524908
O5    O     O_R   0.099480 0.674460 0.038850 -0.502485
O6    O     O_R   0.900520 0.325540 0.961150 -0.525416
O7    O     O_R   0.900520 0.174460 0.961150 -0.519418
O8    O     O_R   0.099480 0.825540 0.038850 -0.527307
O9    O     O_R   0.116720 0.669210 0.267660 -0.452033
O10   O     O_R   0.883280 0.330790 0.732340 -0.451928
O11   O     O_R   0.883280 0.169210 0.732340 -0.447975
O12   O     O_R   0.116720 0.830790 0.267660 -0.460833
O13   O     O_R   0.366710 0.675440 0.427590 -0.507585
O14   O     O_R   0.633290 0.324560 0.572410 -0.499367
O15   O     O_R   0.633290 0.175440 0.572410 -0.503687
O16   O     O_R   0.366710 0.824560 0.427590 -0.499219
O17   O     O_R   0.534870 0.669390 0.371760 -0.525986
O18   O     O_R   0.465130 0.330610 0.628240 -0.528514
O19   O     O_R   0.465130 0.169390 0.628240 -0.525330
O20   O     O_R   0.534870 0.830610 0.371760 -0.531742
O21   O     O_R   0.453080 0.674480 0.075160 -0.486736
O22   O     O_R   0.546920 0.325520 0.924840 -0.503070
O23   O     O_R   0.546920 0.174480 0.924840 -0.488342
O24   O     O_R   0.453080 0.825520 0.075160 -0.489276
O25   O     O_3   0.306390 0.750000 0.180470 -0.290188
O26   O     O_3   0.693610 0.250000 0.819530 -0.281485
C57   C     C_2   0.007908 0.047252 0.751484 0.545046
O27   O     O_2   0.011987 0.981932 0.734787 -0.571214
O28   O     O_R   0.006890 0.094632 0.642725 -0.695687
H29   H     H_    0.004641 0.069946 0.553490 0.306600
C58   C     C_2   0.978965 0.957250 0.220067 0.546193
O29   O     O_2   0.879030 0.986124 0.178125 -0.570369
O30   O     O_R   0.051572 0.953817 0.364760 -0.684979
H30   H     H_    0.017732 0.982699 0.425071 0.313034
C59   C     C_2   0.995868 0.536654 0.234186 0.539082
O31   O     O_2   0.949815 0.476448 0.220262 -0.584235
O32   O     O_R   0.006209 0.578534 0.352859 -0.686923
H31   H     H_    0.991576 0.550321 0.429818 0.312287
C60   C     C_2   0.971839 0.469264 0.754043 0.557551
O33   O     O_2   0.954625 0.534611 0.753373 -0.540621
O34   O     O_R   0.967054 0.434744 0.629889 -0.695398
H32   H     H_    0.945694 0.468773 0.546733 0.322781

loop_
_geom_bond_atom_site_label_1
_geom_bond_atom_site_label_2
_ccdc_geom_bond_type
C19   C60   S    
C32   O4    A    
C4    O8    A    
C12   C29   S    
Cr3   O9    S    
C44   H4    S    
C7    C55   A    
C24   H27   S    
C1    O9    A    
O30   H30   S    
Cr1   O25   S    
Cr6   O26   S    
C50   C54   A    
C12   H23   S    
C5    C53   A    
Cr2   O3    S    
C38   C42   A    
C5    C37   A    
C57   O28   S    
C42   C46   A    
Cr6   O18   S    
C27   O15   A    
C11   H24   S    
C15   C16   S    
C10   H21   S    
C3    C18   S    
C8    C36   A    
C9    C13   D    
C47   H7    S    
Cr2   O6    S    
C9    C32   S    
C26   O14   A    
C11   C15   D    
C10   C31   S    
C20   C24   D    
C11   C30   S    
C28   O16   A    
C4    O12   A    
Cr5   O25   S    
C23   C24   S    
C6    C38   A    
C40   C44   A    
C43   H3    S    
C25   C34   S    
C3    O11   A    
C35   C56   A    
C13   H18   S    
C2    O10   A    
C13   C14   S    
Cr2   O26   S    
C8    C56   A    
Cr2   O7    S    
C6    C54   A    
C52   H16   S    
Cr5   O20   S    
C15   H20   S    
C38   H10   S    
Cr3   O16   S    
C58   O30   S    
C12   C16   D    
C44   C48   A    
C28   C35   S    
Cr6   O23   S    
C30   O2    A    
C10   C14   D    
C26   O18   A    
C25   O13   A    
C39   C43   A    
C28   O20   A    
C31   O3    A    
C17   C21   D    
C6    C34   A    
C30   O22   A    
C19   C23   D    
C51   H15   S    
C46   H6    S    
C50   H14   S    
C3    O7    A    
C26   C33   S    
C45   C49   A    
C1    O5    A    
C49   H13   S    
C23   H28   S    
C22   H25   S    
C18   C57   S    
C58   O29   D    
C4    C17   S    
C17   C58   S    
Cr1   O4    S    
C37   H9    S    
C59   O31   D    
Cr4   O26   S    
C41   H1    S    
Cr4   O11   S    
Cr5   O21   S    
C42   H2    S    
C29   O1    A    
C25   O17   A    
C60   O33   D    
C33   C54   A    
C1    C20   S    
C7    C39   A    
Cr1   O1    S    
C2    C19   S    
C18   C22   D    
Cr3   O12   S    
C7    C35   A    
C29   O21   A    
C48   H8    S    
Cr4   O10   S    
C47   C51   A    
O28   H29   S    
C45   H5    S    
C27   C36   S    
C46   C50   A    
Cr3   O13   S    
C2    O6    A    
C20   C59   S    
C36   C55   A    
Cr4   O14   S    
C57   O27   D    
Cr6   O19   S    
Cr2   O2    S    
C49   C53   A    
Cr1   O8    S    
C16   H19   S    
C40   H12   S    
C51   C55   A    
C5    C33   A    
C39   H11   S    
C37   C41   A    
O34   H32   S    
Cr5   O17   S    
C21   H26   S    
C14   H17   S    
C9    H22   S    
C52   C56   A    
C48   C52   A    
Cr6   O22   S    
C27   O19   A    
C34   C53   A    
Cr3   O25   S    
Cr1   O5    S    
Cr5   O24   S    
C59   O32   S    
C41   C45   A    
C8    C40   A    
C32   O24   A    
C21   C22   S    
C43   C47   A    
C31   O23   A    
Cr4   O15   S    
O32   H31   S    
C60   O34   S    
