data_str_m4_o17_o17_f0_acs.sym.22
_audit_creation_date              2012-12-11T14:30:11-0500
_audit_creation_method            fapswitch 2.2
_symmetry_space_group_name_H-M    P1
_symmetry_Int_Tables_number       1
_space_group_crystal_system       triclinic
_cell_length_a                    12.695756
_cell_length_b                    12.72913
_cell_length_c                    26.954259
_cell_angle_alpha                 90.058222
_cell_angle_beta                  90.003216
_cell_angle_gamma                 119.957234
_cell_volume                      3774.00085917

loop_
_atom_site_label
_atom_site_type_symbol
_atom_type_description
_atom_site_fract_x
_atom_site_fract_y
_atom_site_fract_z
_atom_type_partial_charge
C1    C     C_R   0.557823 0.455479 0.821858 0.527900
C2    C     C_R   0.455641 0.562306 0.176743 0.565650
C3    C     C_R   0.046429 0.328148 0.477010 0.013786
C4    C     C_R   0.282634 0.955957 0.022513 0.008830
C5    C     C_R   0.671698 0.726288 0.482808 0.039431
C6    C     C_R   0.291231 0.969532 0.528744 0.015277
C7    C     C_R   0.081138 0.365925 0.970765 0.010631
C8    C     C_R   0.660885 0.721697 0.535069 0.016266
C9    C     C_R   0.284716 0.936507 0.970638 0.004021
C10   C     C_R   0.039410 0.327632 0.529726 0.015908
C11   C     C_R   0.655422 0.720384 0.965680 0.012275
C12   C     C_3   0.088411 0.248974 0.045806 -0.348876
C13   C     C_R   0.442861 0.901569 0.321550 0.540281
C14   C     C_3   0.166254 0.929344 0.449770 -0.344931
C15   C     C_3   0.778243 0.829593 0.042176 -0.386920
C16   C     C_3   0.091034 0.251574 0.451106 -0.343817
C17   C     C_3   0.168865 0.946294 0.046018 -0.346855
C18   C     C_3   0.786169 0.825013 0.458429 -0.379485
C19   C     C_3   0.187148 0.966132 0.558328 -0.349195
C20   C     C_3   0.170731 0.340271 0.944043 -0.339473
C21   C     C_3   0.738333 0.835840 0.565282 -0.337449
C22   C     C_3   0.166109 0.867395 0.942384 -0.337535
C23   C     C_3   0.045192 0.228131 0.558913 -0.348854
C24   C     C_R   0.098631 0.541309 0.178492 0.535138
C25   C     C_3   0.727135 0.834868 0.935098 -0.333487
C26   C     C_R   0.983628 0.489268 0.975669 0.003601
C27   C     C_R   0.504355 0.019409 0.524415 0.006105
C28   C     C_R   0.523378 0.499847 0.973987 -0.001518
C29   C     C_R   0.987533 0.489304 0.525500 0.004842
C30   C     C_R   0.504471 0.017122 0.975383 0.004787
C31   C     C_R   0.513763 0.503931 0.527719 0.004895
C32   C     C_R   0.497032 0.010049 0.472330 0.005820
C33   C     C_R   0.898880 0.442503 0.678034 0.525142
C34   C     C_R   0.994157 0.491218 0.027632 0.007406
C35   C     C_R   0.512048 0.515096 0.475946 0.007886
C36   C     C_R   0.496297 0.008278 0.027494 0.008459
C37   C     C_R   0.997614 0.491599 0.473458 0.006666
C38   C     C_R   0.519044 0.512276 0.025504 0.007568
C39   C     C_R   0.893405 0.618621 0.982447 -0.128160
C40   C     C_R   0.720242 0.085717 0.519235 -0.126158
C41   C     C_R   0.407872 0.279949 0.984025 -0.130955
C42   C     C_R   0.923037 0.640418 0.520309 -0.119217
C43   C     C_R   0.723443 0.097724 0.981650 -0.125992
C44   C     C_R   0.544439 0.102418 0.822321 0.532031
C45   C     C_R   0.379925 0.285957 0.518941 -0.127310
C46   C     C_R   0.711063 0.068746 0.468130 -0.111252
C47   C     C_R   0.918667 0.632824 0.033169 -0.126728
C48   C     C_R   0.376319 0.297778 0.467825 -0.124364
C49   C     C_R   0.713150 0.079277 0.032741 -0.121145
C50   C     C_R   0.940554 0.647498 0.469198 -0.122875
C51   C     C_R   0.398411 0.293539 0.034838 -0.130801
C52   C     C_R   0.914355 0.545727 0.901963 -0.176008
C53   C     C_R   0.628509 0.075648 0.598925 -0.172115
C54   C     C_R   0.467608 0.368697 0.902411 -0.173059
C55   C     C_R   0.556693 0.456365 0.678596 0.528159
C56   C     C_R   0.929415 0.556004 0.599797 -0.160250
C57   C     C_R   0.630330 0.080164 0.901447 -0.174466
C58   C     C_R   0.449232 0.374001 0.599918 -0.164245
C59   C     C_R   0.586165 0.995981 0.394014 -0.131347
C60   C     C_R   0.001674 0.588387 0.106497 -0.173371
C61   C     C_R   0.422853 0.426314 0.395575 -0.188262
C62   C     C_R   0.586705 0.000486 0.106350 -0.134072
C63   C     C_R   0.010586 0.593353 0.395022 -0.176578
C64   C     C_R   0.430845 0.423923 0.105864 -0.188804
C65   C     C_R   0.033659 0.510639 0.130138 -0.016698
C66   C     C_R   0.897123 0.441570 0.822433 0.532236
C67   C     C_R   0.478250 0.967976 0.369698 -0.014342
C68   C     C_R   0.480105 0.540544 0.125568 0.017407
C69   C     C_R   0.036196 0.512230 0.370520 -0.017498
C70   C     C_R   0.476728 0.967242 0.130073 -0.005232
C71   C     C_R   0.480767 0.541909 0.374772 0.012410
C72   C     C_R   0.526154 0.046689 0.627939 -0.015857
C73   C     C_R   0.950319 0.478177 0.872504 -0.012800
C74   C     C_R   0.516527 0.475147 0.630165 -0.009090
C75   C     C_R   0.527516 0.047812 0.872101 -0.012922
C76   C     C_R   0.956003 0.480880 0.628687 -0.014791
C77   C     C_R   0.543876 0.101503 0.677823 0.526315
C78   C     C_R   0.521897 0.470627 0.871545 -0.014606
C79   C     C_R   0.931157 0.552245 0.953168 -0.002654
C80   C     C_R   0.617518 0.057900 0.547739 0.002565
C81   C     C_R   0.465428 0.382363 0.953333 -0.008668
C82   C     C_R   0.949035 0.564117 0.548773 0.009712
C83   C     C_R   0.619496 0.063220 0.952625 0.001280
C84   C     C_R   0.445475 0.387907 0.549046 0.005932
C85   C     C_R   0.599200 0.026512 0.444528 0.025117
C86   C     C_R   0.970043 0.570542 0.056064 0.011131
C87   C     C_R   0.437519 0.412420 0.446160 0.009016
C88   C     C_R   0.455650 0.563025 0.323476 0.563008
C89   C     C_R   0.599770 0.030831 0.055815 0.025903
C90   C     C_R   0.981366 0.576953 0.445644 0.011527
C91   C     C_R   0.449550 0.409246 0.055682 0.005380
C92   C     C_R   0.014485 0.425367 0.894154 0.219358
C93   C     C_R   0.409779 0.989145 0.605593 0.232648
C94   C     C_R   0.567793 0.588007 0.891244 0.225999
C95   C     C_R   0.014228 0.422480 0.606666 0.233700
C96   C     C_R   0.410535 0.985939 0.893600 0.224251
C97   C     C_R   0.569437 0.593112 0.610230 0.235080
C98   C     C_R   0.391756 0.988104 0.395262 0.229937
C99   C     C_R   0.442646 0.901430 0.178391 0.548326
C100  C     C_R   0.020352 0.407888 0.103570 0.236935
C101  C     C_R   0.562662 0.643571 0.404184 0.223785
C102  C     C_R   0.387517 0.982490 0.104024 0.229843
C103  C     C_R   0.018577 0.407308 0.396511 0.235365
C104  C     C_R   0.556192 0.642913 0.095673 0.223636
C105  C     C_R   0.027566 0.426802 0.946466 0.047060
C106  C     C_R   0.400110 0.991501 0.553140 0.053887
C107  C     C_R   0.581154 0.604610 0.943219 0.044701
C108  C     C_R   0.014613 0.412433 0.554207 0.053854
C109  C     C_R   0.398334 0.978252 0.946187 0.042086
C110  C     C_R   0.099375 0.541685 0.321756 0.530183
C111  C     C_R   0.580408 0.608381 0.558062 0.049588
C112  C     C_R   0.389711 0.986979 0.447740 0.051587
C113  C     C_R   0.024538 0.411329 0.051353 0.052987
C114  C     C_R   0.583779 0.628644 0.453987 0.044027
C115  C     C_R   0.387244 0.982441 0.051551 0.049055
C116  C     C_R   0.021778 0.408270 0.448913 0.052367
C117  C     C_R   0.582207 0.627831 0.046715 0.042635
C118  C     C_R   0.062005 0.342098 0.022336 0.005828
C119  C     C_R   0.285551 0.965418 0.475908 0.013115
C120  C     C_R   0.666311 0.727082 0.017856 0.036775
Cr1   Cr    Cr6+3 0.487630 0.241180 0.750000 1.043003
Cr2   Cr    Cr6+3 0.753550 0.512370 0.750000 1.042670
Cr3   Cr    Cr6+3 0.758820 0.246450 0.750000 1.045220
Cr4   Cr    Cr6+3 0.241180 0.487630 0.250000 1.051622
Cr5   Cr    Cr6+3 0.512370 0.753550 0.250000 1.027012
Cr6   Cr    Cr6+3 0.246450 0.758820 0.250000 1.047309
H1    H     H_    0.001202 0.661400 0.127039 0.128371
H2    H     H_    0.720181 0.125428 0.884893 0.159425
H3    H     H_    0.887909 0.603997 0.616584 0.148377
H4    H     H_    0.431670 0.278358 0.887041 0.159527
H5    H     H_    0.896891 0.691062 0.054684 0.103843
H6    H     H_    0.791618 0.089561 0.446966 0.117606
H7    H     H_    0.349993 0.214210 0.057834 0.124506
H8    H     H_    0.922187 0.707919 0.447700 0.098719
H9    H     H_    0.793911 0.103385 0.054355 0.113798
H10   H     H_    0.322809 0.217825 0.445393 0.127680
H11   H     H_    0.807210 0.118045 0.536758 0.108136
H12   H     H_    0.658553 0.992669 0.374048 0.148201
H13   H     H_    0.851702 0.666068 0.965553 0.115748
H14   H     H_    0.329697 0.197462 0.535232 0.112618
H15   H     H_    0.812471 0.136205 0.964650 0.123022
H16   H     H_    0.890895 0.695979 0.537697 0.107153
H17   H     H_    0.365335 0.189660 0.968347 0.126653
H18   H     H_    0.951215 0.293364 0.157203 0.329226
H19   H     H_    0.355510 0.059384 0.339169 0.331223
H20   H     H_    0.660368 0.788764 0.131079 0.325956
H21   H     H_    0.944683 0.296655 0.341519 0.331264
H22   H     H_    0.341499 0.049294 0.158326 0.327297
H23   H     H_    0.375318 0.345715 0.128954 0.121383
H24   H     H_    0.675683 0.780740 0.366395 0.325050
H25   H     H_    0.328289 0.907539 0.666735 0.335800
H26   H     H_    0.084291 0.407086 0.833333 0.330808
H27   H     H_    0.569088 0.667018 0.673388 0.333717
H28   H     H_    0.326809 0.911878 0.832214 0.332707
H29   H     H_    0.093287 0.420540 0.668316 0.335468
H30   H     H_    0.556689 0.657034 0.828339 0.330906
H31   H     H_    0.164601 0.293843 0.072628 0.182962
H32   H     H_    0.006032 0.177531 0.064522 0.169868
H33   H     H_    0.111266 0.198062 0.018664 0.092062
H34   H     H_    0.014053 0.668784 0.374967 0.124439
H35   H     H_    0.148151 0.860001 0.420997 0.184186
H36   H     H_    0.086721 0.886734 0.474498 0.097312
H37   H     H_    0.168667 0.009875 0.432835 0.160223
H38   H     H_    0.799544 0.800439 0.077699 0.110358
H39   H     H_    0.860189 0.858042 0.018855 0.102056
H40   H     H_    0.764995 0.907495 0.049071 0.160833
H41   H     H_    0.157159 0.304761 0.421545 0.187673
H42   H     H_    0.141407 0.223523 0.476034 0.104123
H43   H     H_    0.013196 0.168647 0.435243 0.157364
H44   H     H_    0.122686 0.863838 0.069437 0.177207
H45   H     H_    0.660636 0.001268 0.126776 0.133237
H46   H     H_    0.191350 0.027704 0.068338 0.171010
H47   H     H_    0.103273 0.946192 0.018973 0.083989
H48   H     H_    0.806734 0.792250 0.423689 0.113449
H49   H     H_    0.776538 0.904462 0.450126 0.160467
H50   H     H_    0.867206 0.852702 0.482217 0.096650
H51   H     H_    0.220890 0.026997 0.591055 0.180902
H52   H     H_    0.138487 0.003883 0.537360 0.078240
H53   H     H_    0.122152 0.871859 0.570016 0.176565
H54   H     H_    0.123267 0.249548 0.926185 0.169007
H55   H     H_    0.224989 0.412220 0.916598 0.177194
H56   H     H_    0.362767 0.348513 0.373032 0.126618
H57   H     H_    0.239928 0.345403 0.970189 0.129297
H58   H     H_    0.678851 0.860253 0.586582 0.198173
H59   H     H_    0.799594 0.821933 0.590418 0.166652
H60   H     H_    0.796076 0.917071 0.542730 0.093177
H61   H     H_    0.166657 0.795310 0.919352 0.185914
H62   H     H_    0.087800 0.816634 0.966834 0.114842
H63   H     H_    0.149440 0.930217 0.919557 0.175234
H64   H     H_    0.979973 0.195918 0.590268 0.179006
H65   H     H_    0.014986 0.144392 0.536789 0.078008
H66   H     H_    0.139071 0.261239 0.572636 0.179230
H67   H     H_    0.717978 0.117083 0.615810 0.145582
H68   H     H_    0.663771 0.854702 0.914226 0.198485
H69   H     H_    0.782812 0.917304 0.957439 0.101861
H70   H     H_    0.789790 0.824287 0.909521 0.168149
H71   H     H_    0.866353 0.587544 0.885483 0.151835
H72   H     H_    0.406179 0.283340 0.615472 0.144890
O1    O     O_R   0.460870 0.120930 0.805240 -0.483239
O2    O     O_R   0.120930 0.460870 0.194760 -0.484645
O3    O     O_R   0.539130 0.660060 0.305240 -0.504612
O4    O     O_R   0.339940 0.879070 0.194760 -0.484129
O5    O     O_R   0.498910 0.350470 0.801870 -0.505005
O6    O     O_R   0.851560 0.501090 0.698130 -0.500820
O7    O     O_R   0.649530 0.148440 0.801870 -0.502303
O8    O     O_R   0.498910 0.350470 0.698130 -0.504579
O9    O     O_R   0.851560 0.501090 0.801870 -0.505465
O10   O     O_R   0.649530 0.148440 0.698130 -0.500373
O11   O     O_R   0.350470 0.498910 0.301870 -0.496206
O12   O     O_R   0.660060 0.539130 0.694760 -0.487498
O13   O     O_R   0.501090 0.851560 0.198130 -0.484006
O14   O     O_R   0.148440 0.649530 0.301870 -0.496083
O15   O     O_R   0.350470 0.498910 0.198130 -0.491910
O16   O     O_R   0.501090 0.851560 0.301870 -0.482444
O17   O     O_R   0.148440 0.649530 0.198130 -0.491673
O18   O     O_3   0.666667 0.333333 0.750000 -0.250130
O19   O     O_3   0.333333 0.666667 0.250000 -0.245515
O20   O     O_3   0.003866 0.305732 0.128044 -0.718722
O21   O     O_3   0.313464 0.014190 0.369626 -0.721731
O22   O     O_3   0.585641 0.757803 0.110739 -0.683349
O23   O     O_R   0.879070 0.339940 0.805240 -0.482412
O24   O     O_3   0.992571 0.302333 0.371509 -0.719198
O25   O     O_3   0.300670 0.995394 0.129540 -0.718516
O26   O     O_3   0.604016 0.759939 0.387553 -0.688462
O27   O     O_3   0.306103 0.927100 0.634151 -0.712191
O28   O     O_3   0.053967 0.362598 0.865052 -0.710298
O29   O     O_3   0.613431 0.692368 0.641402 -0.718551
O30   O     O_3   0.309272 0.941334 0.863501 -0.717379
O31   O     O_3   0.074032 0.379110 0.635660 -0.713778
O32   O     O_3   0.601915 0.685807 0.860038 -0.720357
O33   O     O_R   0.460870 0.120930 0.694760 -0.495335
O34   O     O_R   0.660060 0.539130 0.805240 -0.488626
O35   O     O_R   0.879070 0.339940 0.694760 -0.494949
O36   O     O_R   0.120930 0.460870 0.305240 -0.489161
O37   O     O_R   0.539130 0.660060 0.194760 -0.509341
O38   O     O_R   0.339940 0.879070 0.305240 -0.491573

loop_
_geom_bond_atom_site_label_1
_geom_bond_atom_site_label_2
_ccdc_geom_bond_type
C36   C89   A    
C21   H58   S    
C4    C9    A    
C56   C76   A    
C5    C114  A    
C43   C83   A    
C4    C115  A    
C10   C108  A    
C42   C82   A    
C59   H12   S    
Cr5   O37   S    
C57   H2    S    
C23   H65   S    
Cr5   O13   S    
C17   H46   S    
C21   H60   S    
C20   H54   S    
C37   C116  A    
C99   O13   A    
Cr6   O4    S    
C34   C113  A    
C40   C46   A    
C6    C19   S    
Cr3   O23   S    
Cr5   O3    S    
C61   H56   S    
C37   C90   A    
Cr1   O33   S    
C64   C68   A    
H22   O25   S    
C16   H42   S    
C41   H17   S    
C2    C68   S    
C3    C116  A    
C103  O24   S    
C46   H6    S    
C97   C111  A    
C24   O17   A    
C9    C22   S    
C63   C90   A    
Cr4   O11   S    
C11   C25   S    
C16   H41   S    
C62   C89   A    
C30   C83   A    
C53   H67   S    
C15   C120  S    
C62   C70   A    
C35   C114  A    
C34   C86   A    
Cr2   O6    S    
C22   H61   S    
C104  O22   S    
C102  C115  A    
C61   C87   A    
C67   C98   A    
C59   C67   A    
Cr3   O35   S    
C55   C74   S    
C35   C87   A    
C16   H43   S    
C26   C34   A    
Cr1   O1    S    
C63   C69   A    
C50   C90   A    
C42   H16   S    
C40   C80   A    
C29   C108  A    
C94   O32   S    
C12   H31   S    
C52   C79   A    
Cr6   O38   S    
C19   H51   S    
C56   H3    S    
C25   H69   S    
Cr6   O19   S    
C33   O6    A    
C46   C85   A    
Cr4   O36   S    
C18   H49   S    
C61   C71   A    
C49   H9    S    
C92   O28   S    
C22   H62   S    
C98   O21   S    
C51   C91   A    
C101  C114  A    
C38   C117  A    
C7    C118  A    
Cr1   O8    S    
C66   O23   A    
C11   C120  A    
C26   C105  A    
C23   H66   S    
C17   H47   S    
C75   C96   A    
C74   C97   A    
Cr4   O15   S    
C69   C103  A    
C9    C109  A    
C54   H4    S    
C39   H13   S    
C94   C107  A    
C77   O33   A    
C98   C112  A    
C30   C109  A    
C1    C78   S    
Cr1   O18   S    
C95   O31   S    
C15   H38   S    
C53   C80   A    
Cr1   O5    S    
C27   C80   A    
C50   H8    S    
C117  C120  A    
C60   C86   A    
C17   H44   S    
C43   C49   A    
C5    C18   S    
Cr3   O7    S    
C66   C73   S    
C38   C91   A    
H29   O31   S    
C45   H14   S    
C31   C84   A    
C71   C88   S    
C47   H5    S    
C39   C79   A    
C13   O16   A    
C14   H36   S    
C44   C75   S    
C47   C86   A    
H18   O20   S    
C72   C77   S    
C62   H45   S    
C58   C84   A    
C93   C106  A    
C5    C8    A    
Cr5   O16   S    
C92   C105  A    
C33   C76   S    
H19   O21   S    
C28   C38   A    
C41   C81   A    
C40   H11   S    
C57   C83   A    
C8    C21   S    
C6    C106  A    
C48   C87   A    
C15   H40   S    
C22   H63   S    
C56   C82   A    
H21   O24   S    
C19   H52   S    
C7    C20   S    
C25   H70   S    
C24   C65   S    
C42   C50   A    
Cr2   O12   S    
H26   O28   S    
C72   C93   A    
C18   H48   S    
C101  O26   S    
C66   O9    A    
H25   O27   S    
C69   C110  S    
C60   C65   A    
C52   C73   A    
C88   O11   A    
C13   O38   A    
C99   O4    A    
C11   C107  A    
C88   O3    A    
C12   C118  S    
C8    C111  A    
C45   C84   A    
C4    C17   S    
C29   C37   A    
C1    O5    A    
C19   H53   S    
C6    C119  A    
C33   O35   A    
C70   C99   S    
C58   C74   A    
C39   C47   A    
C104  C117  A    
C13   C67   S    
C45   C48   A    
C55   O8    A    
Cr4   O19   S    
C58   H72   S    
C32   C112  A    
C97   O29   S    
C27   C32   A    
H24   O26   S    
Cr2   O9    S    
C48   H10   S    
C60   H1    S    
C110  O14   A    
C100  C113  A    
C68   C104  A    
C73   C92   A    
C49   C89   A    
C65   C100  A    
C14   H37   S    
C112  C119  A    
C96   O30   S    
C70   C102  A    
C21   H59   S    
C44   O1    A    
C10   C23   S    
Cr2   O34   S    
C96   C109  A    
Cr4   O2    S    
H27   O29   S    
C63   H34   S    
C26   C79   A    
C27   C106  A    
C30   C36   A    
C64   H23   S    
C57   C75   A    
C14   H35   S    
C103  C116  A    
C28   C81   A    
H20   O22   S    
C29   C82   A    
C76   C95   A    
C3    C10   A    
Cr6   O14   S    
C55   O12   A    
C102  O25   S    
C51   H7    S    
C1    O34   A    
C78   C94   A    
C53   C72   A    
C32   C85   A    
C31   C35   A    
C44   O7    A    
Cr2   O18   S    
Cr3   O10   S    
C20   H57   S    
C23   H64   S    
C12   H33   S    
C71   C101  A    
C43   H15   S    
C95   C108  A    
C3    C16   S    
Cr6   O17   S    
C100  O20   S    
C113  C118  A    
H30   O32   S    
C2    O37   A    
C77   O10   A    
C24   O2    A    
C2    O15   A    
C14   C119  S    
C7    C105  A    
H28   O30   S    
C31   C111  A    
C15   H39   S    
C52   H71   S    
C28   C107  A    
C64   C91   A    
C12   H32   S    
C93   O27   S    
Cr3   O18   S    
C36   C115  A    
C59   C85   A    
C41   C51   A    
C54   C81   A    
C25   H68   S    
C110  O36   A    
C18   H50   S    
C20   H55   S    
C54   C78   A    
Cr5   O19   S    
