data_str_m9_o16_o25_f0_sra.sym.8
_audit_creation_date              2012-12-11T15:14:50-0500
_audit_creation_method            fapswitch 2.2
_symmetry_space_group_name_H-M    P1
_symmetry_Int_Tables_number       1
_space_group_crystal_system       triclinic
_cell_length_a                    22.336373
_cell_length_b                    7.229416
_cell_length_c                    19.268707
_cell_angle_alpha                 90.001772
_cell_angle_beta                  98.973798
_cell_angle_gamma                 89.999927
_cell_volume                      3073.40489685

loop_
_atom_site_label
_atom_site_type_symbol
_atom_type_description
_atom_site_fract_x
_atom_site_fract_y
_atom_site_fract_z
_atom_type_partial_charge
O1    O     O_R   0.448470 0.506130 0.415700 -0.533108
O2    O     O_R   0.551530 0.006130 0.584300 -0.533110
O3    O     O_R   0.436320 0.174490 0.555800 -0.533278
O4    O     O_R   0.563680 0.674490 0.444200 -0.533280
C1    C     C_R   0.421629 0.344239 0.575654 0.700413
C2    C     C_R   0.578370 0.844236 0.424345 0.700413
O5    O     O_R   0.441350 0.176340 0.414480 -0.534736
O6    O     O_R   0.558650 0.676340 0.585520 -0.534733
O7    O     O_R   0.556600 0.007100 0.441970 -0.530675
O8    O     O_R   0.443400 0.507100 0.558030 -0.530679
C3    C     C_R   0.427264 0.344774 0.389167 0.681617
C4    C     C_R   0.572736 0.844779 0.610833 0.681617
O9    O     O_3   0.537810 0.339550 0.509190 -0.372976
O10   O     O_3   0.462190 0.839550 0.490810 -0.372976
V1    V     V_3+5 0.492990 0.064280 0.498300 1.439097
V2    V     V_3+5 0.507010 0.564280 0.501700 1.439096
C5    C     C_R   0.863841 0.028833 0.700368 -0.177253
C6    C     C_R   0.136164 0.528894 0.299630 -0.177254
H1    H     H_    0.948665 0.067931 0.766620 0.130562
H2    H     H_    0.051343 0.568008 0.233376 0.130569
H3    H     H_    0.883115 0.081383 0.656232 0.122073
H4    H     H_    0.116892 0.581473 0.343764 0.122074
C7    C     C_R   0.882943 0.945329 0.823198 -0.117076
C8    C     C_R   0.117059 0.445345 0.176801 -0.117085
C9    C     C_R   0.588735 0.823915 0.739511 -0.147560
C10   C     C_R   0.411262 0.323864 0.260489 -0.147562
C11   C     C_R   0.623806 0.840610 0.806177 0.151108
C12   C     C_R   0.376191 0.340549 0.193823 0.151114
C13   C     C_R   0.685951 0.877117 0.811141 -0.146784
C14   C     C_R   0.314048 0.377071 0.188860 -0.146781
C15   C     C_R   0.715020 0.889718 0.751054 0.070219
C16   C     C_R   0.284979 0.389703 0.248947 0.070218
C17   C     C_R   0.677523 0.888881 0.684047 0.003631
C18   C     C_R   0.322477 0.388881 0.315954 0.003630
C19   C     C_R   0.779383 0.916257 0.755781 0.037846
C20   C     C_R   0.220617 0.416258 0.244219 0.037848
C21   C     C_R   0.802461 0.975714 0.694339 0.020758
C22   C     C_R   0.197541 0.475746 0.305661 0.020759
C23   C     C_R   0.764230 0.981009 0.627962 0.133744
C24   C     C_R   0.235772 0.481045 0.372038 0.133743
C25   C     C_R   0.703121 0.929528 0.623908 -0.173057
C26   C     C_R   0.296880 0.429552 0.376093 -0.173059
C27   C     C_R   0.821754 0.884504 0.819018 0.293203
C28   C     C_R   0.178245 0.384493 0.180984 0.293201
C29   C     C_R   0.902379 0.019884 0.763992 -0.189752
C30   C     C_R   0.097625 0.519938 0.236005 -0.189742
C31   C     C_R   0.614310 0.852158 0.678673 -0.110903
C32   C     C_R   0.385689 0.352141 0.321327 -0.110904
H5    H     H_    0.540672 0.795446 0.733942 0.123847
H6    H     H_    0.459324 0.295381 0.266057 0.123851
H7    H     H_    0.709868 0.905739 0.863015 0.174411
H8    H     H_    0.290130 0.405680 0.136985 0.174407
H9    H     H_    0.674129 0.927696 0.573614 0.121784
H10   H     H_    0.325873 0.427729 0.426386 0.121787
C33   C     C_3   0.776361 0.851510 0.314364 -0.245822
C34   C     C_3   0.223638 0.351486 0.685635 -0.245884
C35   C     C_3   0.788825 0.030983 0.273594 -0.293653
C36   C     C_3   0.211167 0.530964 0.726403 -0.293615
H11   H     H_    0.820846 0.142986 0.293763 0.152284
H12   H     H_    0.179142 0.642951 0.706234 0.152281
H13   H     H_    0.799091 0.810629 0.367524 0.142267
H14   H     H_    0.200910 0.310584 0.632476 0.142261
C37   C     C_1   0.874918 0.940325 0.120453 -0.158673
C38   C     C_1   0.125081 0.440316 0.879547 -0.158676
C39   C     C_1   0.623416 0.853250 0.377736 -0.179870
C40   C     C_1   0.376583 0.353260 0.622262 -0.179872
C41   C     C_3   0.777766 0.738732 0.246471 0.378496
C42   C     C_3   0.222240 0.238723 0.753530 0.378497
C43   C     C_3   0.790577 0.914094 0.206202 0.075649
C44   C     C_3   0.209422 0.414090 0.793797 0.075646
C45   C     C_3   0.708546 0.760438 0.223932 -0.298137
C46   C     C_3   0.291459 0.260461 0.776068 -0.298068
C47   C     C_3   0.707105 0.878120 0.291238 0.048039
C48   C     C_3   0.292893 0.378127 0.708759 0.048037
C49   C     C_3   0.721846 0.939275 0.184898 0.292785
C50   C     C_3   0.278152 0.439302 0.815099 0.292761
C51   C     C_3   0.719694 0.054040 0.251199 0.353796
C52   C     C_3   0.280297 0.554052 0.748796 0.353795
C53   C     C_1   0.836740 0.929471 0.158843 0.074490
C54   C     C_1   0.163260 0.429463 0.841157 0.074488
C55   C     C_1   0.661016 0.863367 0.338618 0.040037
C56   C     C_1   0.338983 0.363378 0.661380 0.040034
H15   H     H_    0.676331 0.649470 0.203166 0.150352
H16   H     H_    0.323679 0.149509 0.796834 0.150353
O11   O     O_R   0.056650 0.288730 0.942060 -0.533184
O12   O     O_R   0.943350 0.788730 0.057940 -0.533181
O13   O     O_R   0.058660 0.616870 0.085540 -0.532611
O14   O     O_R   0.941340 0.116870 0.914460 -0.532610
C57   C     C_R   0.073308 0.448836 0.110525 0.671044
C58   C     C_R   0.926692 0.948832 0.889474 0.671042
O15   O     O_R   0.063700 0.618520 0.944220 -0.531290
O16   O     O_R   0.936300 0.118520 0.055780 -0.531292
O17   O     O_R   0.948460 0.787610 0.915680 -0.537056
O18   O     O_R   0.051540 0.287610 0.084320 -0.537055
C59   C     C_R   0.078964 0.449997 0.924839 0.701423
C60   C     C_R   0.921035 0.950000 0.075161 0.701420
O19   O     O_3   0.962230 0.453430 0.990860 -0.371441
O20   O     O_3   0.037770 0.953430 0.009140 -0.371442
V3    V     V_3+5 0.007010 0.728750 0.001700 1.462274
V4    V     V_3+5 0.992990 0.228750 0.998300 1.462271
O21   O     O_3   0.687833 0.219857 0.253268 -0.644389
H17   H     H_    0.703306 0.302280 0.218996 0.299517
O22   O     O_3   0.312152 0.719882 0.746723 -0.644391
H18   H     H_    0.296681 0.802298 0.781001 0.299548
O23   O     O_3   0.693836 0.989361 0.117534 -0.634805
H19   H     H_    0.649867 0.993302 0.120048 0.296685
O24   O     O_3   0.306161 0.489415 0.882462 -0.634804
H20   H     H_    0.350129 0.493384 0.879945 0.296683
O25   O     O_3   0.809366 0.572716 0.243669 -0.639454
H21   H     H_    0.794663 0.490741 0.278633 0.288835
O26   O     O_3   0.190648 0.072693 0.756338 -0.639458
H22   H     H_    0.205320 0.990758 0.721339 0.288840
C61   C     C_3   0.789773 0.040336 0.562119 -0.363501
C62   C     C_3   0.746253 0.034597 0.492558 -0.749658
H23   H     H_    0.730302 0.890825 0.480992 0.220540
H24   H     H_    0.707202 0.128873 0.494049 0.233540
H25   H     H_    0.770339 0.081187 0.449423 0.227385
H26   H     H_    0.806690 0.184680 0.569603 0.183752
H27   H     H_    0.828628 0.948909 0.556004 0.179770
C63   C     C_3   0.210229 0.540385 0.437881 -0.363503
C64   C     C_3   0.253746 0.534615 0.507445 -0.749652
H28   H     H_    0.269691 0.390836 0.519003 0.220541
H29   H     H_    0.292801 0.628881 0.505963 0.233539
H30   H     H_    0.229659 0.581201 0.550581 0.227389
H31   H     H_    0.193322 0.684738 0.430402 0.183750
H32   H     H_    0.171368 0.448979 0.443990 0.179770
O27   O     O_3   0.803535 0.783544 0.873039 -0.658761
H33   H     H_    0.836254 0.776293 0.913819 0.288101
O28   O     O_3   0.196460 0.283499 0.126966 -0.658759
H34   H     H_    0.163741 0.276244 0.086187 0.288108
C65   C     C_3   0.597579 0.824328 0.874085 -0.348443
C66   C     C_3   0.529666 0.782965 0.865855 -0.746627
H35   H     H_    0.503150 0.896022 0.836515 0.229399
H36   H     H_    0.519260 0.648964 0.838397 0.228710
H37   H     H_    0.515806 0.772964 0.918626 0.224090
H38   H     H_    0.622076 0.712403 0.906419 0.197961
H39   H     H_    0.606236 0.955854 0.903856 0.188977
C67   C     C_3   0.402418 0.324241 0.125914 -0.348458
C68   C     C_3   0.470332 0.282889 0.134144 -0.746629
H40   H     H_    0.496845 0.395953 0.163485 0.229405
H41   H     H_    0.480738 0.148893 0.161602 0.228713
H42   H     H_    0.484191 0.272884 0.081372 0.224092
H43   H     H_    0.377923 0.212301 0.093584 0.197962
H44   H     H_    0.393759 0.455755 0.096138 0.188982

loop_
_geom_bond_atom_site_label_1
_geom_bond_atom_site_label_2
_ccdc_geom_bond_type
C14   C16   A    
O21   H17   S    
C7    C29   A    
C11   C13   A    
C11   C65   S    
C51   O21   S    
O26   H22   S    
O1    C3    A    
C46   C50   S    
O2    C4    A    
C8    C57   S    
C2    O7    A    
C62   H23   S    
C23   C25   A    
C37   C53   T    
O17   V3    S    
O5    C3    A    
O14   V4    S    
O12   V3    S    
C16   C20   A    
C19   C21   A    
C5    C29   A    
O28   H34   S    
C67   H43   S    
C10   H6    S    
C68   H42   S    
C63   H32   S    
C35   H11   S    
C36   H12   S    
O16   C60   A    
C7    C27   A    
C57   O18   A    
C64   H30   S    
C61   H27   S    
C41   O25   S    
C2    C39   S    
C66   H35   S    
C23   C61   S    
C18   C26   A    
O24   H20   S    
C15   C17   A    
C19   C27   A    
C9    C31   A    
O13   V3    S    
C10   C32   A    
C34   H14   S    
C24   C26   A    
O6    V2    S    
C22   C24   A    
C13   C15   A    
C38   C54   T    
C3    C32   S    
C48   C56   S    
C4    C31   S    
C6    C30   A    
C47   C55   S    
C45   H15   S    
C34   C48   S    
C44   C54   S    
C35   C51   S    
C12   C67   S    
C46   C48   S    
C65   H38   S    
C27   O27   S    
C45   C47   S    
C63   H31   S    
C36   C44   S    
C28   O28   S    
C34   C42   S    
C37   C60   S    
C5    H3    S    
C42   C46   S    
C41   C43   S    
C42   O26   S    
C16   C18   A    
O4    V2    S    
C65   H39   S    
C40   C56   T    
C39   C55   T    
O18   V4    S    
O6    C4    A    
C7    C58   S    
O1    V2    S    
C5    C21   A    
C68   H41   S    
O2    V1    S    
C49   C51   S    
C25   H9    S    
C64   H28   S    
C46   H16   S    
O12   C60   A    
C66   H36   S    
O4    C2    A    
C24   C63   S    
O14   C58   A    
C49   O23   S    
C50   O24   S    
C33   C35   S    
C44   C50   S    
C17   C31   A    
C15   C19   A    
C43   C53   S    
C18   C32   A    
O27   H33   S    
O19   V4    S    
O3    V1    S    
C63   C64   S    
O16   V4    S    
C58   O17   A    
C61   C62   S    
C13   H7    S    
C62   H24   S    
C14   H8    S    
C52   O22   S    
C6    H4    S    
C38   C59   S    
C50   C52   S    
C1    C40   S    
O3    C1    A    
C33   C41   S    
C68   H40   S    
H1    C29   S    
C9    C11   A    
O23   H19   S    
C10   C12   A    
C8    C30   A    
C12   C14   A    
C6    C22   A    
C17   C25   A    
C1    O8    A    
C21   C23   A    
O11   V4    S    
O8    V2    S    
O25   H21   S    
C26   H10   S    
C20   C22   A    
C45   C49   S    
O11   C59   A    
C66   H37   S    
C8    C28   A    
C33   H13   S    
O5    V1    S    
C34   C36   S    
C43   C49   S    
C41   C45   S    
O7    V1    S    
C9    H5    S    
C64   H29   S    
C62   H25   S    
C20   C28   A    
C67   C68   S    
C36   C52   S    
O15   C59   A    
C61   H26   S    
C33   C47   S    
C42   C44   S    
O20   V3    S    
C48   C52   S    
O9    V2    S    
O22   H18   S    
O13   C57   A    
C47   C51   S    
O10   V1    S    
C67   H44   S    
C35   C43   S    
O15   V3    S    
H2    C30   S    
C65   C66   S    
