data_str_m4_o1_o14_f0_acs.sym.34
_audit_creation_date              2012-12-11T14:44:10-0500
_audit_creation_method            fapswitch 2.2
_symmetry_space_group_name_H-M    P1
_symmetry_Int_Tables_number       1
_space_group_crystal_system       triclinic
_cell_length_a                    19.301163
_cell_length_b                    10.951578
_cell_length_c                    18.859382
_cell_angle_alpha                 89.924568
_cell_angle_beta                  90.275048
_cell_angle_gamma                 90.045636
_cell_volume                      3986.41143829

loop_
_atom_site_label
_atom_site_type_symbol
_atom_type_description
_atom_site_fract_x
_atom_site_fract_y
_atom_site_fract_z
_atom_type_partial_charge
C1    C     C_R   0.731072 0.383223 0.147379 0.552232
C2    C     C_R   0.019424 0.988876 0.030701 0.071003
C3    C     C_R   0.020035 0.768234 0.031173 0.020866
C4    C     C_R   0.515016 0.046632 0.033049 -0.144515
C5    C     C_R   0.485623 0.046597 0.966897 -0.144647
C6    C     C_R   0.015019 0.546631 0.033049 -0.144155
C7    C     C_R   0.985627 0.546596 0.966895 -0.144217
C8    C     C_R   0.480339 0.488835 0.969196 0.070473
C9    C     C_R   0.519423 0.488878 0.030702 0.071109
C10   C     C_R   0.679517 0.945837 0.026576 -0.179577
C11   C     C_R   0.320659 0.946511 0.973485 -0.179763
C12   C     C_R   0.179514 0.445840 0.026574 -0.179932
C13   C     C_R   0.820662 0.446516 0.973487 -0.180127
C14   C     C_R   0.685906 0.918888 0.954637 -0.164476
C15   C     C_R   0.314240 0.919490 0.045447 -0.163948
C16   C     C_R   0.185903 0.418890 0.954635 -0.164163
C17   C     C_R   0.268940 0.383153 0.852625 0.552697
C18   C     C_R   0.814243 0.419492 0.045449 -0.163685
C19   C     C_R   0.745654 0.950702 0.917832 -0.011446
C20   C     C_R   0.254422 0.950968 0.082156 -0.011245
C21   C     C_R   0.245650 0.450709 0.917828 -0.010916
C22   C     C_R   0.754425 0.450973 0.082159 -0.010836
C23   C     C_R   0.789734 0.038517 0.949491 0.378223
C24   C     C_R   0.210342 0.038647 0.050382 0.378181
C25   C     C_R   0.289727 0.538529 0.949486 0.378756
C26   C     C_R   0.710348 0.538658 0.050386 0.378466
C27   C     C_R   0.786120 0.065046 0.022774 0.262728
C28   C     C_R   0.231071 0.883222 0.147379 0.551524
C29   C     C_R   0.213930 0.065113 0.977061 0.262488
C30   C     C_R   0.286115 0.565057 0.022770 0.263610
C31   C     C_R   0.713936 0.565123 0.977065 0.263461
C32   C     C_R   0.731429 0.010801 0.062666 -0.067344
C33   C     C_R   0.268667 0.011068 0.937273 -0.067896
C34   C     C_R   0.231425 0.510809 0.062663 -0.067361
C35   C     C_R   0.768671 0.511075 0.937276 -0.067548
C36   C     C_R   0.520826 0.054792 0.469353 -0.137402
C37   C     C_R   0.514066 0.057669 0.541688 -0.142432
C38   C     C_R   0.030894 0.557171 0.472146 -0.128715
C39   C     C_R   0.768941 0.883151 0.852625 0.551438
C40   C     C_R   0.022115 0.560422 0.544471 -0.128966
C41   C     C_R   0.496023 0.166423 0.575532 0.023680
C42   C     C_R   0.514391 0.162165 0.429111 0.022778
C43   C     C_R   0.998976 0.667390 0.576933 0.039352
C44   C     C_R   0.018910 0.661942 0.430772 0.014132
C45   C     C_R   0.559598 0.150883 0.138550 0.515301
C46   C     C_R   0.440586 0.150771 0.861466 0.514643
C47   C     C_R   0.059599 0.650883 0.138551 0.515364
C48   C     C_R   0.940588 0.650771 0.861466 0.514476
C49   C     C_R   0.490677 0.275278 0.536195 -0.117190
C50   C     C_R   0.457223 0.380908 0.942160 -0.071023
C51   C     C_R   0.500802 0.273368 0.463022 -0.123927
C52   C     C_R   0.991444 0.774831 0.536797 -0.073285
C53   C     C_R   0.001413 0.772101 0.463695 -0.115428
C54   C     C_R   0.814818 0.943686 0.459255 0.352493
C55   C     C_R   0.184456 0.922128 0.543804 0.358249
C56   C     C_R   0.287921 0.528687 0.474900 0.363807
C57   C     C_R   0.708194 0.521316 0.526240 0.365767
C58   C     C_R   0.818496 0.937996 0.531803 -0.100517
C59   C     C_R   0.178437 0.910773 0.471355 -0.094941
C60   C     C_R   0.288944 0.513817 0.547280 -0.086268
C61   C     C_R   0.542788 0.381055 0.057720 -0.070586
C62   C     C_R   0.707959 0.508672 0.453841 -0.084982
C63   C     C_R   0.760601 0.903187 0.571885 -0.027435
C64   C     C_R   0.237673 0.897083 0.429008 -0.018531
C65   C     C_R   0.249869 0.421267 0.578384 -0.030186
C66   C     C_R   0.749323 0.420210 0.422064 -0.031504
C67   C     C_R   0.698240 0.874296 0.537905 -0.110507
C68   C     C_R   0.303139 0.889218 0.460220 -0.097818
C69   C     C_R   0.203780 0.351455 0.537092 -0.160608
C70   C     C_R   0.796806 0.352650 0.462973 -0.150680
C71   C     C_R   0.693588 0.884140 0.464551 -0.177467
C72   C     C_R   0.957224 0.880906 0.942161 -0.069910
C73   C     C_R   0.309517 0.902241 0.533139 -0.172790
C74   C     C_R   0.201251 0.368123 0.464159 -0.203073
C75   C     C_R   0.799264 0.368503 0.536011 -0.191396
C76   C     C_R   0.751348 0.922919 0.425138 0.029244
C77   C     C_R   0.250277 0.922897 0.574890 0.027327
C78   C     C_R   0.245137 0.453705 0.432370 0.029104
C79   C     C_R   0.753511 0.450249 0.568347 0.029547
C80   C     C_R   0.727828 0.022637 0.140713 0.558837
C81   C     C_R   0.272218 0.022682 0.859214 0.559542
C82   C     C_R   0.227827 0.522640 0.140713 0.558331
C83   C     C_R   0.042790 0.881053 0.057720 -0.069518
C84   C     C_R   0.772219 0.522685 0.859215 0.558033
C85   C     C_R   0.729860 0.378849 0.351847 0.548644
C86   C     C_R   0.270034 0.379114 0.648263 0.548000
C87   C     C_R   0.227207 0.873300 0.354312 0.549030
C88   C     C_R   0.772144 0.875148 0.646173 0.548885
C89   C     C_R   0.534899 0.156573 0.355035 0.561177
C90   C     C_R   0.467525 0.157479 0.646558 0.560013
C91   C     C_R   0.036548 0.656345 0.355911 0.566128
C92   C     C_R   0.968164 0.657590 0.646973 0.566995
C93   C     C_R   0.741398 0.970686 0.354021 0.578397
C94   C     C_R   0.980339 0.988832 0.969197 0.070286
C95   C     C_R   0.258933 0.971250 0.645848 0.584315
C96   C     C_R   0.239373 0.479930 0.357140 0.571133
C97   C     C_R   0.760146 0.478398 0.643316 0.571539
C98   C     C_R   0.467366 0.156545 0.933829 0.003104
C99   C     C_R   0.533042 0.156643 0.066095 0.002728
C100  C     C_R   0.967369 0.656544 0.933828 0.003374
C101  C     C_R   0.033044 0.656642 0.066094 0.002596
C102  C     C_R   0.480209 0.268167 0.968700 0.020980
C103  C     C_R   0.520032 0.268235 0.031174 0.020707
C104  C     C_R   0.980211 0.768165 0.968700 0.021258
Cr1   Cr    Cr6+3 0.772000 0.169640 0.250110 1.110875
Cr2   Cr    Cr6+3 0.383330 0.010620 0.749160 1.043982
Cr3   Cr    Cr6+3 0.116670 0.510620 0.250840 1.045595
Cr4   Cr    Cr6+3 0.883330 0.510620 0.749160 1.046328
Cr5   Cr    Cr6+3 0.228000 0.169640 0.749890 1.105532
Cr6   Cr    Cr6+3 0.272000 0.669640 0.250110 1.117196
Cr7   Cr    Cr6+3 0.728000 0.669640 0.749890 1.116151
Cr8   Cr    Cr6+3 0.614960 0.323350 0.249260 1.052992
Cr9   Cr    Cr6+3 0.385040 0.323350 0.750740 1.052663
Cr10  Cr    Cr6+3 0.114960 0.823350 0.249260 1.059406
Cr11  Cr    Cr6+3 0.885040 0.823350 0.750740 1.060453
Cr12  Cr    Cr6+3 0.616670 0.010620 0.250840 1.041662
F1    F     F_    0.872803 0.975612 0.423084 -0.638371
F2    F     F_    0.126210 0.937279 0.582960 -0.627553
F3    F     F_    0.329173 0.616953 0.447170 -0.630211
F4    F     F_    0.663644 0.603850 0.554285 -0.634983
F5    F     F_    0.840011 0.091256 0.909767 -0.606633
F6    F     F_    0.160056 0.091218 0.090029 -0.606272
F7    F     F_    0.340002 0.591269 0.909761 -0.606600
F8    F     F_    0.660064 0.591230 0.090035 -0.606809
H1    H     H_    0.523419 0.958940 0.058123 0.164842
H2    H     H_    0.348960 0.875021 0.428321 0.173722
H3    H     H_    0.172986 0.279120 0.560312 0.169960
H4    H     H_    0.829145 0.283109 0.439288 0.179884
H5    H     H_    0.644163 0.866740 0.439193 0.147934
H6    H     H_    0.361077 0.903069 0.556082 0.156414
H7    H     H_    0.166317 0.312692 0.432606 0.147121
H8    H     H_    0.835825 0.315696 0.567176 0.151526
H9    H     H_    0.420479 0.391187 0.901781 0.200316
H10   H     H_    0.579551 0.391459 0.098082 0.200351
H11   H     H_    0.920479 0.891184 0.901782 0.200119
H12   H     H_    0.477278 0.958902 0.941902 0.165132
H13   H     H_    0.079552 0.891456 0.098081 0.200175
H14   H     H_    0.970553 0.071286 0.939670 0.232150
H15   H     H_    0.029074 0.071318 0.060202 0.232089
H16   H     H_    0.470554 0.571289 0.939669 0.231902
H17   H     H_    0.529073 0.571321 0.060202 0.231675
H18   H     H_    0.636077 0.908350 0.055070 0.195140
H19   H     H_    0.364184 0.909374 0.945077 0.194885
H20   H     H_    0.136076 0.408349 0.055069 0.195112
H21   H     H_    0.864186 0.409376 0.945078 0.194873
H22   H     H_    0.644629 0.871797 0.928630 0.230707
H23   H     H_    0.023421 0.458940 0.058123 0.164870
H24   H     H_    0.355564 0.872630 0.071523 0.230370
H25   H     H_    0.144628 0.371791 0.928629 0.230762
H26   H     H_    0.855565 0.372624 0.071524 0.230470
H27   H     H_    0.532742 0.967591 0.445397 0.142401
H28   H     H_    0.518950 0.972384 0.570492 0.142923
H29   H     H_    0.047835 0.471904 0.448925 0.148148
H30   H     H_    0.029642 0.476831 0.574342 0.144006
H31   H     H_    0.476090 0.360259 0.561335 0.155929
H32   H     H_    0.497538 0.357696 0.433129 0.152902
H33   H     H_    0.975008 0.859093 0.561309 0.165690
H34   H     H_    0.977283 0.458901 0.941900 0.165100
H35   H     H_    0.995035 0.855019 0.433040 0.188536
H36   H     H_    0.920308 0.199404 0.150711 0.350944
H37   H     H_    0.079528 0.198925 0.849050 0.350367
H38   H     H_    0.420310 0.699427 0.150695 0.349382
H39   H     H_    0.579526 0.698946 0.849066 0.349434
H40   H     H_    0.867984 0.958254 0.556214 0.156470
H41   H     H_    0.126880 0.911460 0.448525 0.158612
H42   H     H_    0.324014 0.569721 0.578457 0.162396
H43   H     H_    0.671486 0.562624 0.423163 0.162615
H44   H     H_    0.653509 0.844785 0.567869 0.187287
O1    O     O_R   0.787540 0.042690 0.170470 -0.385536
O2    O     O_R   0.454130 0.051100 0.669160 -0.520331
O3    O     O_R   0.045870 0.551100 0.330840 -0.514850
O4    O     O_R   0.954130 0.551100 0.669160 -0.517337
O5    O     O_R   0.681340 0.959300 0.325510 -0.522496
O6    O     O_R   0.318660 0.959300 0.674490 -0.519424
O7    O     O_R   0.181340 0.459300 0.325510 -0.518798
O8    O     O_R   0.818660 0.459300 0.674490 -0.514083
O9    O     O_3   0.667880 0.167870 0.250070 -0.324478
O10   O     O_3   0.332120 0.167870 0.749930 -0.323772
O11   O     O_3   0.167880 0.667870 0.250070 -0.331036
O12   O     O_R   0.212460 0.042690 0.829530 -0.383906
O13   O     O_3   0.832120 0.667870 0.749930 -0.328075
O14   O     O_R   0.765660 0.292160 0.175050 -0.467370
O15   O     O_R   0.234340 0.292160 0.824950 -0.467533
O16   O     O_R   0.265660 0.792160 0.175050 -0.468840
O17   O     O_R   0.734340 0.792160 0.824950 -0.468762
O18   O     O_R   0.670190 0.408980 0.168550 -0.490167
O19   O     O_R   0.329810 0.408980 0.831450 -0.489862
O20   O     O_R   0.170190 0.908980 0.168550 -0.488740
O21   O     O_R   0.829810 0.908980 0.831450 -0.489282
O22   O     O_R   0.556580 0.251450 0.175160 -0.505431
O23   O     O_R   0.287540 0.542690 0.170470 -0.390119
O24   O     O_R   0.443420 0.251450 0.824840 -0.505810
O25   O     O_R   0.056580 0.751450 0.175160 -0.501599
O26   O     O_R   0.943420 0.751450 0.824840 -0.502656
O27   O     O_R   0.545920 0.049510 0.170320 -0.510447
O28   O     O_R   0.454080 0.049510 0.829680 -0.511512
O29   O     O_R   0.045920 0.549510 0.170320 -0.508881
O30   O     O_R   0.954080 0.549510 0.829680 -0.511334
O31   O     O_R   0.681390 0.957840 0.176710 -0.499128
O32   O     O_R   0.318610 0.957840 0.823290 -0.497660
O33   O     O_R   0.181390 0.457840 0.176710 -0.498578
O34   O     O_R   0.712460 0.542690 0.829530 -0.390162
O35   O     O_R   0.818610 0.457840 0.823290 -0.498822
O36   O     O_R   0.787500 0.044280 0.330990 -0.429801
O37   O     O_R   0.212500 0.044280 0.669010 -0.438942
O38   O     O_R   0.287500 0.544280 0.330990 -0.429390
O39   O     O_R   0.712500 0.544280 0.669010 -0.426895
O40   O     O_R   0.765610 0.293630 0.323860 -0.499125
O41   O     O_R   0.234390 0.293630 0.676140 -0.503170
O42   O     O_R   0.265610 0.793630 0.323860 -0.468280
O43   O     O_R   0.734390 0.793630 0.676140 -0.474915
O44   O     O_R   0.670140 0.410570 0.329080 -0.516680
O45   O     O_R   0.556540 0.252920 0.323970 -0.489980
O46   O     O_R   0.329860 0.410570 0.670920 -0.516883
O47   O     O_R   0.170140 0.910570 0.329080 -0.524074
O48   O     O_R   0.829860 0.910570 0.670920 -0.525633
O49   O     O_2   0.897497 0.997709 0.083501 -0.318959
O50   O     O_2   0.907247 0.188681 0.010561 -0.324443
O51   O     O_3   0.870508 0.198696 0.137653 -0.493251
O52   O     O_2   0.102476 0.997264 0.916592 -0.318063
O53   O     O_2   0.092800 0.188277 0.989180 -0.324759
O54   O     O_3   0.129348 0.198367 0.862023 -0.493610
O55   O     O_2   0.397491 0.497712 0.083492 -0.321797
O56   O     O_R   0.443460 0.252920 0.676030 -0.492395
O57   O     O_2   0.407242 0.688686 0.010554 -0.323944
O58   O     O_3   0.370507 0.698699 0.137647 -0.494785
O59   O     O_2   0.602482 0.497268 0.916603 -0.321261
O60   O     O_2   0.592805 0.688283 0.989188 -0.324321
O61   O     O_3   0.629349 0.698369 0.862028 -0.494561
O62   O     O_R   0.056540 0.752920 0.323970 -0.492356
O63   O     O_R   0.943460 0.752920 0.676030 -0.490586
O64   O     O_R   0.545870 0.051100 0.330840 -0.519898
S1    S     S_3+6 0.865460 0.117054 0.062854 -0.005283
S2    S     S_3+6 0.134522 0.116748 0.936955 -0.005072
S3    S     S_3+6 0.365455 0.617060 0.062847 -0.006497
S4    S     S_3+6 0.634527 0.616754 0.936962 -0.006289

loop_
_geom_bond_atom_site_label_1
_geom_bond_atom_site_label_2
_ccdc_geom_bond_type
C3    C104  A    
C45   O27   A    
C5    H12   S    
C99   C103  A    
C85   O44   A    
C95   O37   A    
C16   C21   A    
C47   C101  S    
C96   O7    A    
C55   C59   A    
C63   C88   S    
C57   C79   A    
Cr7   O39   S    
C36   C42   A    
C86   O41   A    
C13   H21   S    
C58   H40   S    
C81   O32   A    
C56   C78   A    
C57   C62   A    
C23   F5    S    
C7    H34   S    
Cr3   O3    S    
C1    O18   A    
C52   C53   A    
C90   O56   A    
O59   S4    D    
C59   C64   A    
Cr1   O1    S    
C4    H1    S    
C67   H44   S    
C9    C61   A    
C2    H15   S    
Cr8   O44   S    
O52   S2    D    
C36   C37   A    
C61   C103  A    
C95   O6    A    
C92   O4    A    
Cr3   O33   S    
Cr4   O35   S    
C28   O20   A    
Cr8   O18   S    
C15   H24   S    
C82   O23   A    
C43   C52   A    
H36   O51   S    
C32   C80   S    
C84   O34   A    
Cr9   O19   S    
C29   C33   A    
Cr6   O23   S    
C100  C104  A    
Cr10  O20   S    
C13   C18   A    
C10   H18   S    
C6    C101  A    
C93   O36   A    
O51   S1    S    
C24   C29   A    
Cr11  O13   S    
Cr12  O27   S    
C11   C15   A    
C44   C53   A    
C40   C43   A    
C12   C16   A    
C78   C96   S    
C8    C9    A    
C49   C51   A    
C88   O43   A    
C16   H25   S    
C23   C27   A    
C30   S3    S    
C64   C87   S    
Cr11  O63   S    
C49   H31   S    
C59   H41   S    
C74   C78   A    
C42   C51   A    
Cr3   O11   S    
Cr5   O15   S    
C74   H7    S    
Cr9   O10   S    
C46   C98   S    
Cr6   O16   S    
C1    C22   S    
C97   O8    A    
Cr12  O9    S    
Cr12  O64   S    
C5    C98   A    
Cr4   O30   S    
Cr2   O2    S    
C40   H30   S    
C2    C83   A    
Cr6   O42   S    
C26   F8    S    
Cr9   O46   S    
C66   C85   S    
Cr5   O41   S    
Cr5   O10   S    
Cr7   O34   S    
C41   C49   A    
H38   O58   S    
C79   C97   S    
C61   H10   S    
C80   O1    A    
C2    C94   A    
C15   C20   A    
C48   C100  S    
C63   C67   A    
C51   H32   S    
C53   H35   S    
Cr7   O17   S    
C7    C100  A    
C30   C34   A    
C91   O62   A    
C102  C103  A    
O57   S3    D    
C20   C24   A    
C65   C86   S    
C81   O12   A    
C45   C99   S    
O49   S1    D    
Cr3   O29   S    
Cr12  O31   S    
C62   C66   A    
C25   C30   A    
Cr1   O36   S    
Cr2   O28   S    
C72   C104  A    
C92   O63   A    
C68   C73   A    
C98   C102  A    
C80   O31   A    
C77   C95   S    
C60   H42   S    
O58   S3    S    
C12   H20   S    
C48   O30   A    
Cr11  O21   S    
C19   C23   A    
C86   O46   A    
Cr9   O56   S    
C38   C44   A    
C76   C93   S    
C71   H5    S    
C17   O15   A    
C96   O38   A    
C38   C40   A    
C11   C33   A    
C35   C84   S    
H37   O54   S    
C90   O2    A    
C87   O47   A    
C24   F6    S    
Cr2   O6    S    
C69   C74   A    
Cr6   O38   S    
Cr8   O45   S    
C97   O39   A    
Cr5   O37   S    
C25   F7    S    
O53   S2    D    
C44   C91   S    
C19   C39   S    
C57   F4    S    
C54   C76   A    
Cr12  O5    S    
C84   O35   A    
Cr1   O9    S    
Cr11  O26   S    
C60   C65   A    
C50   C102  A    
Cr2   O32   S    
Cr4   O4    S    
C55   C77   A    
C10   C14   A    
C94   H14   S    
C87   O42   A    
C31   C35   A    
C54   F1    S    
C75   C79   A    
C37   H28   S    
C12   C34   A    
C64   C68   A    
C68   H2    S    
C83   H13   S    
C75   H8    S    
Cr1   O40   S    
C89   O45   A    
C54   C58   A    
Cr10  O25   S    
C70   H4    S    
C52   H33   S    
Cr9   O24   S    
C21   C25   A    
C73   H6    S    
O54   S2    S    
C9    H17   S    
C88   O48   A    
C48   O26   A    
C27   C32   A    
C18   C22   A    
C14   C19   A    
C47   O25   A    
C58   C63   A    
O50   S1    D    
C46   O24   A    
C4    C5    A    
H39   O61   S    
C50   H9    S    
Cr10  O62   S    
C82   O33   A    
C1    O14   A    
C36   H27   S    
C13   C35   A    
C6    C7    A    
C20   C28   S    
C31   S4    S    
C14   H22   S    
C43   C92   S    
Cr7   O13   S    
C91   O3    A    
C8    H16   S    
C42   C89   S    
O61   S4    S    
C28   O16   A    
C72   C94   A    
C3    C83   A    
C6    H23   S    
Cr5   O12   S    
C3    C101  A    
C71   C76   A    
C72   H11   S    
Cr3   O7    S    
Cr6   O11   S    
C17   O19   A    
C65   C69   A    
Cr4   O8    S    
C93   O5    A    
C56   F3    S    
Cr11  O48   S    
C62   H43   S    
C8    C50   A    
C67   C71   A    
C89   O64   A    
C37   C41   A    
O55   S3    D    
Cr10  O47   S    
Cr7   O43   S    
C29   S2    S    
O60   S4    D    
C11   H19   S    
C27   S1    S    
Cr8   O22   S    
C39   O17   A    
C10   C32   A    
C45   O22   A    
C26   C31   A    
C56   C60   A    
C66   C70   A    
C69   H3    S    
Cr10  O11   S    
C22   C26   A    
C4    C99   A    
Cr4   O13   S    
C46   O28   A    
C39   O21   A    
C73   C77   A    
C47   O29   A    
C70   C75   A    
C34   C82   S    
C38   H29   S    
C18   H26   S    
Cr1   O14   S    
C33   C81   S    
Cr2   O10   S    
C85   O40   A    
C41   C90   S    
Cr8   O9    S    
C55   F2    S    
C17   C21   S    
