data_str_m3_o16_o24_f0_pcu.sym.273
_audit_creation_date              2012-12-10T18:11:44-0500
_audit_creation_method            fapswitch 2.2
_symmetry_space_group_name_H-M    P1
_symmetry_Int_Tables_number       1
_space_group_crystal_system       triclinic
_cell_length_a                    10.507098
_cell_length_b                    12.621947
_cell_length_c                    13.005742
_cell_angle_alpha                 81.56664
_cell_angle_beta                  90.561646
_cell_angle_gamma                 103.451516
_cell_volume                      1658.83640916

loop_
_atom_site_label
_atom_site_type_symbol
_atom_type_description
_atom_site_fract_x
_atom_site_fract_y
_atom_site_fract_z
_atom_type_partial_charge
C1    C     C_R   0.486728 0.438151 0.691893 0.845706
C2    C     C_3   0.067592 0.583844 0.427745 -0.211890
C3    C     C_3   0.992746 0.597051 0.523908 0.465421
C4    C     C_3   0.879158 0.505059 0.500085 -0.084187
C5    C     C_R   0.731767 0.682053 0.070572 -0.199214
C6    C     C_R   0.557882 0.603004 0.199575 -0.171900
C7    C     C_R   0.374943 0.305424 0.840781 -0.196885
C8    C     C_R   0.342192 0.281765 0.946493 -0.118541
C9    C     C_R   0.400659 0.354981 0.013189 -0.091395
C10   C     C_R   0.496104 0.451216 0.974924 0.110414
C11   C     C_R   0.545253 0.463175 0.872582 0.086210
C12   C     C_R   0.742758 0.501758 0.500224 0.851486
C13   C     C_R   0.548642 0.533638 0.036342 -0.051412
C14   C     C_R   0.669987 0.608282 0.005347 0.085768
C15   C     C_R   0.727282 0.609676 0.908744 -0.171453
C16   C     C_R   0.663766 0.540002 0.841717 -0.198911
C17   C     C_R   0.484405 0.546110 0.126595 0.336790
C18   C     C_R   0.679583 0.677769 0.169885 -0.001564
C19   C     C_R   0.473998 0.398095 0.803108 -0.114062
C20   C     C_R   0.318714 0.089609 0.343153 0.295985
C21   C     C_R   0.651255 0.799280 0.632272 0.105979
C22   C     C_R   0.683331 0.903808 0.660684 -0.200903
C23   C     C_R   0.520375 0.562347 0.308405 0.923162
C24   C     C_R   0.626528 0.985507 0.609790 -0.196936
C25   C     C_R   0.536566 0.962658 0.529738 0.049771
C26   C     C_R   0.508356 0.854796 0.503359 0.208893
C27   C     C_R   0.473481 0.041864 0.475463 -0.047033
C28   C     C_R   0.383569 0.011870 0.395820 0.050988
C29   C     C_R   0.360702 0.905139 0.370944 -0.129465
C30   C     C_R   0.421502 0.828520 0.424051 -0.231340
C31   C     C_R   0.496171 0.150388 0.497188 -0.052995
C32   C     C_R   0.345591 0.194820 0.370481 -0.089318
C33   C     C_R   0.257745 0.498895 0.498484 0.921213
C34   C     C_3   0.935089 0.418225 0.568914 -0.206689
C35   C     C_3   0.050147 0.511535 0.593382 -0.270705
C36   C     C_3   0.122352 0.497021 0.496983 -0.060258
C37   C     C_3   0.010350 0.403402 0.472514 -0.089833
C38   C     C_3   0.952262 0.490314 0.403613 -0.219594
H1    H     H_    0.094020 0.520363 0.670602 0.173836
H2    H     H_    0.320309 0.253637 0.788190 0.170936
H3    H     H_    0.372788 0.334850 0.094661 0.202209
H4    H     H_    0.267261 0.209319 0.976003 0.203837
H5    H     H_    0.709998 0.544186 0.766711 0.174012
H6    H     H_    0.297699 0.256172 0.332661 0.223136
H7    H     H_    0.295378 0.878637 0.310261 0.234933
H8    H     H_    0.563344 0.180838 0.554898 0.138694
H9    H     H_    0.693459 0.735099 0.672387 0.176700
H10   H     H_    0.877396 0.351093 0.626675 0.156194
H11   H     H_    0.654602 0.064940 0.635243 0.141796
H12   H     H_    0.751476 0.921315 0.722360 0.169459
H13   H     H_    0.399263 0.749051 0.400284 0.220129
H14   H     H_    0.022028 0.324108 0.451207 0.168398
H15   H     H_    0.908551 0.482176 0.326252 0.167023
H16   H     H_    0.125553 0.651376 0.370463 0.192195
H17   H     H_    0.819567 0.666620 0.883904 0.186291
H18   H     H_    0.822936 0.740560 0.045316 0.167599
N1    N     N_R   0.432930 0.222190 0.444670 -0.130314
N2    N     N_R   0.566370 0.776980 0.554790 -0.143559
O1    O     O_R   0.467970 0.366730 0.627150 -0.614367
O2    O     O_R   0.510820 0.544830 0.662520 -0.611701
O3    O     O_R   0.664630 0.410960 0.482340 -0.622082
O4    O     O_R   0.707470 0.589060 0.517710 -0.586881
O5    O     O_R   0.489180 0.455170 0.337480 -0.588884
O6    O     O_R   0.532030 0.633270 0.372850 -0.645468
O7    O     O_R   0.292530 0.410940 0.482290 -0.601333
O8    O     O_R   0.335370 0.589040 0.517660 -0.641807
Zn1   Zn    Zn3+2 0.471390 0.381080 0.476380 0.963510
Zn2   Zn    Zn3+2 0.528610 0.618920 0.523620 0.956875
S1    S     S_3+6 0.311044 0.528371 0.134850 0.006209
O9    O     O_2   0.281632 0.624570 0.177994 -0.328340
O10   O     O_2   0.252276 0.523882 0.029266 -0.266960
O11   O     O_3   0.242690 0.412504 0.214969 -0.580841
H19   H     H_    0.152595 0.418776 0.229547 0.386156
S2    S     S_3+6 0.205452 0.059334 0.243397 0.001904
O12   O     O_2   0.096560 0.962944 0.285396 -0.254408
O13   O     O_2   0.148479 0.156167 0.204630 -0.299998
O14   O     O_3   0.281391 0.025892 0.143873 -0.544339
H20   H     H_    0.361515 0.085731 0.128866 0.332867
S3    S     S_3+6 0.991356 0.727588 0.560189 0.031746
O15   O     O_2   0.914937 0.787153 0.483370 -0.271876
O16   O     O_2   0.930002 0.711484 0.666839 -0.352952
O17   O     O_3   0.145664 0.803403 0.560985 -0.505422
H21   H     H_    0.193804 0.755529 0.604785 0.351248
C39   C     C_3   0.751566 0.758633 0.238080 -0.338160
C40   C     C_3   0.685756 0.855772 0.233796 -0.342138
C41   C     C_3   0.750570 0.937319 0.305076 -0.723584
H22   H     H_    0.749876 0.895238 0.386192 0.284997
H23   H     H_    0.852872 0.976102 0.278300 0.312277
H24   H     H_    0.696000 0.003039 0.303537 0.224681
H25   H     H_    0.691721 0.899775 0.152760 0.231760
H26   H     H_    0.580658 0.825329 0.256408 0.243992
H27   H     H_    0.756548 0.717400 0.318862 0.237143
H28   H     H_    0.855051 0.791388 0.210364 0.231373

loop_
_geom_bond_atom_site_label_1
_geom_bond_atom_site_label_2
_ccdc_geom_bond_type
O8    Zn2   S    
C30   H13   S    
C17   S1    S    
C34   C37   S    
C5    H18   S    
C35   C36   S    
C3    S3    S    
C40   H26   S    
C33   O7    A    
C7    C8    A    
O14   H20   S    
C11   C19   A    
C29   C30   A    
S2    O13   D    
O6    Zn2   S    
C36   C37   S    
C8    H4    S    
C1    O1    A    
C41   H23   S    
C15   C16   A    
C33   C36   S    
C34   C35   S    
S1    O10   D    
C2    C38   S    
O1    Zn1   S    
C8    C9    A    
O7    Zn1   S    
S2    O14   S    
C18   C39   S    
C7    H2    S    
C4    C12   S    
C9    C10   A    
C22   H12   S    
C23   O5    A    
C21   C22   A    
C32   N1    A    
N1    Zn1   S    
C33   O8    A    
C4    C34   S    
C6    C18   A    
O5    Zn1   S    
C1    C19   S    
S2    O12   D    
C27   C31   A    
C24   C25   A    
C2    H16   S    
C1    O2    A    
S3    O16   D    
C37   H14   S    
C41   H22   S    
C5    C18   A    
C20   C28   A    
C25   C26   A    
C40   C41   S    
C10   C13   A    
C29   H7    S    
C15   H17   S    
S1    O11   S    
C35   H1    S    
C37   C38   S    
C12   O4    A    
C11   C16   A    
O3    Zn1   S    
C3    C35   S    
C32   H6    S    
C20   S2    S    
C39   C40   S    
C26   N2    A    
C16   H5    S    
O2    Zn2   S    
C5    C14   A    
N2    Zn2   S    
C23   O6    A    
C4    C38   S    
C26   C30   A    
C7    C19   A    
C22   C24   A    
C34   H10   S    
C3    C4    S    
C20   C32   A    
C2    C36   S    
C24   H11   S    
C6    C17   A    
C28   C29   A    
O11   H19   S    
C41   H24   S    
S3    O17   S    
C40   H25   S    
C13   C17   A    
C25   C27   A    
C9    H3    S    
O4    Zn2   S    
C31   N1    A    
C2    C3    S    
C21   N2    A    
C12   O3    A    
C38   H15   S    
C6    C23   S    
C39   H28   S    
S1    O9    D    
C10   C11   A    
S3    O15   D    
C31   H8    S    
O17   H21   S    
C27   C28   A    
C14   C15   A    
C39   H27   S    
C13   C14   A    
C21   H9    S    
