data_str_m9_o13_o2_f0_sra.sym.13
_audit_creation_date              2012-12-11T14:57:52-0500
_audit_creation_method            fapswitch 2.2
_symmetry_space_group_name_H-M    P1
_symmetry_Int_Tables_number       1
_space_group_crystal_system       triclinic
_cell_length_a                    6.939089
_cell_length_b                    16.728655
_cell_length_c                    17.079011
_cell_angle_alpha                 100.34666
_cell_angle_beta                  91.575986
_cell_angle_gamma                 89.686183
_cell_volume                      1949.58312726

loop_
_atom_site_label
_atom_site_type_symbol
_atom_type_description
_atom_site_fract_x
_atom_site_fract_y
_atom_site_fract_z
_atom_type_partial_charge
O1    O     O_R   0.506180 0.438940 0.579430 -0.540441
O2    O     O_R   0.170520 0.406230 0.413590 -0.538362
O3    O     O_R   0.005180 0.561060 0.420570 -0.541404
C1    C     C_R   0.338755 0.383044 0.385272 0.691496
O4    O     O_R   0.176140 0.429310 0.578370 -0.540728
O5    O     O_R   0.010830 0.584300 0.586530 -0.536284
C2    C     C_R   0.347828 0.414234 0.605285 0.697566
O6    O     O_R   0.500520 0.415700 0.413470 -0.535095
O7    O     O_3   0.340830 0.550820 0.502480 -0.366597
V1    V     V_3+5 0.064040 0.490570 0.499540 1.418802
O8    O     O_R   0.681400 0.593770 0.586410 -0.538583
C3    C     C_R   0.851940 0.616652 0.614265 0.701112
O9    O     O_R   0.675790 0.570690 0.421630 -0.541516
C4    C     C_R   0.841568 0.586931 0.395178 0.705304
V2    V     V_3+5 0.564650 0.509430 0.500460 1.423357
O10   O     O_3   0.837730 0.449180 0.497520 -0.367245
C5    C     C_R   0.928477 0.863500 0.169183 -0.134686
C6    C     C_R   0.838100 0.640087 0.333913 -0.108255
C7    C     C_R   0.664913 0.687786 0.224148 0.182833
C8    C     C_R   0.682580 0.634541 0.278807 -0.217051
C9    C     C_R   0.979099 0.699855 0.333269 -0.236589
C10   C     C_R   0.963211 0.755162 0.279463 0.081675
C11   C     C_R   0.802998 0.749614 0.224986 0.113892
C12   C     C_R   0.785042 0.805324 0.171890 -0.234603
C13   C     C_R   0.085996 0.868525 0.223289 -0.188811
C14   C     C_R   0.103409 0.816252 0.279202 0.207252
H1    H     H_    0.663262 0.801717 0.130351 0.168483
H2    H     H_    0.196491 0.913788 0.222038 0.121514
H3    H     H_    0.573276 0.588332 0.278039 0.129878
H4    H     H_    0.097666 0.704342 0.376403 0.158687
C15   C     C_R   0.818415 0.911720 0.720377 0.170014
C16   C     C_R   0.791454 0.924163 0.641799 -0.159287
C17   C     C_R   0.793107 0.859728 0.578658 -0.136987
C18   C     C_R   0.817784 0.781346 0.592754 -0.131999
C19   C     C_R   0.846144 0.765528 0.670985 0.027914
C20   C     C_R   0.853902 0.831534 0.736928 0.047448
C21   C     C_R   0.867733 0.684673 0.683003 -0.141590
C22   C     C_R   0.907067 0.667962 0.760015 0.032368
C23   C     C_R   0.921240 0.732299 0.827259 0.028765
C24   C     C_R   0.896424 0.814998 0.815500 -0.181669
C25   C     C_R   0.931162 0.586506 0.770620 -0.229158
C26   C     C_R   0.968769 0.567347 0.844954 -0.128004
C27   C     C_R   0.980594 0.627978 0.911645 0.220726
C28   C     C_R   0.955499 0.710341 0.904073 0.135620
H5    H     H_    0.765939 0.984854 0.629858 0.117178
H6    H     H_    0.771784 0.870414 0.518335 0.132335
H7    H     H_    0.815320 0.733229 0.541100 0.100736
H8    H     H_    0.920990 0.535907 0.721380 0.124747
H9    H     H_    0.986907 0.504294 0.850815 0.144676
H10   H     H_    0.061899 0.460022 0.141398 0.128253
C29   C     C_R   0.509085 0.228557 0.404006 -0.127941
C30   C     C_R   0.601195 0.156955 0.414776 -0.120517
C31   C     C_R   0.632466 0.095568 0.349921 -0.124371
C32   C     C_R   0.571631 0.105204 0.273753 -0.151088
C33   C     C_R   0.478996 0.177439 0.260680 0.068640
C34   C     C_R   0.447150 0.240648 0.327315 0.071922
C35   C     C_R   0.414526 0.186511 0.183190 -0.184895
C36   C     C_R   0.318153 0.259272 0.172784 0.073075
C37   C     C_R   0.287128 0.322636 0.239367 0.068994
C38   C     C_R   0.351672 0.313564 0.316851 -0.187324
C39   C     C_R   0.254159 0.271003 0.096226 -0.135190
C40   C     C_R   0.162095 0.342607 0.085446 -0.105087
C41   C     C_R   0.132587 0.404324 0.150191 -0.120283
C42   C     C_R   0.194662 0.394907 0.226283 -0.155450
H11   H     H_    0.484985 0.273740 0.456653 0.099802
H12   H     H_    0.647421 0.148863 0.473915 0.112541
H13   H     H_    0.703226 0.039884 0.358700 0.118191
H14   H     H_    0.597594 0.055203 0.225535 0.109906
H15   H     H_    0.276111 0.225452 0.043694 0.096592
H16   H     H_    0.114423 0.350412 0.026389 0.129626
H17   H     H_    0.169608 0.445064 0.274453 0.112427
C43   C     C_R   0.398573 0.139788 0.834583 -0.115769
C44   C     C_R   0.370462 0.365340 0.669150 -0.059183
C45   C     C_R   0.545941 0.341316 0.788402 -0.151491
C46   C     C_R   0.506498 0.389673 0.731168 -0.187952
C47   C     C_R   0.273640 0.291212 0.665117 -0.230124
C48   C     C_R   0.316345 0.240901 0.721404 0.108402
C49   C     C_R   0.453163 0.266029 0.784184 0.157388
C50   C     C_R   0.494532 0.215448 0.841007 0.119442
C51   C     C_R   0.269452 0.115107 0.770243 -0.210678
C52   C     C_R   0.227387 0.165019 0.714755 -0.185061
H18   H     H_    0.201727 0.056139 0.762791 0.129610
H19   H     H_    0.651778 0.362744 0.835128 0.160665
H20   H     H_    0.125323 0.144009 0.666357 0.124034
H21   H     H_    0.583859 0.446412 0.735041 0.125488
H22   H     H_    0.171402 0.271275 0.616458 0.116003
O11   O     O_R   0.265840 0.084300 0.086750 -0.538280
O12   O     O_R   0.589750 0.070740 0.921690 -0.534373
O13   O     O_R   0.755020 0.915730 0.913400 -0.520133
C53   C     C_R   0.418353 0.087717 0.896318 0.695062
O14   O     O_R   0.595830 0.093740 0.086480 -0.541280
O15   O     O_R   0.761150 0.938890 0.079360 -0.541054
C54   C     C_R   0.427602 0.117017 0.114796 0.682469
O16   O     O_R   0.259710 0.061140 0.920790 -0.537719
O17   O     O_3   0.425260 0.949200 0.997610 -0.367842
V3    V     V_3+5 0.702060 0.009430 0.000450 1.439637
O18   O     O_R   0.090530 0.929220 0.078150 -0.537706
C55   C     C_R   0.925128 0.915303 0.106613 0.738170
O19   O     O_R   0.084440 0.906220 0.913360 -0.534977
C56   C     C_R   0.913725 0.883767 0.884343 0.881247
V4    V     V_3+5 0.201450 0.990520 0.999290 1.439293
O20   O     O_3   0.928380 0.050800 0.002390 -0.369098
N1    N     N_3   0.957657 0.770233 0.975081 -0.686403
H23   H     H_    0.845432 0.757422 0.010320 0.218027
H24   H     H_    0.089171 0.767175 0.005733 0.234753
N2    N     N_3   0.629570 0.242428 0.905400 -0.688107
H25   H     H_    0.745553 0.201897 0.900821 0.249305
H26   H     H_    0.561920 0.242082 0.959260 0.222286
N3    N     N_3   0.507195 0.678097 0.167191 -0.698580
H27   H     H_    0.516773 0.620028 0.132542 0.234292
H28   H     H_    0.378449 0.680910 0.197919 0.230067
N4    N     N_3   0.262566 0.825536 0.335923 -0.676828
H29   H     H_    0.345025 0.876481 0.331101 0.229621
H30   H     H_    0.352817 0.775174 0.321508 0.228640
N5    N     N_3   0.016536 0.604402 0.987430 -0.683380
H31   H     H_    0.902275 0.624177 0.024691 0.235420
H32   H     H_    0.143575 0.632153 0.012856 0.235110
N6    N     N_3   0.797017 0.981095 0.781935 -0.664616
H33   H     H_    0.891776 0.026271 0.772285 0.211196
H34   H     H_    0.657443 0.003357 0.776003 0.227748

loop_
_geom_bond_atom_site_label_1
_geom_bond_atom_site_label_2
_ccdc_geom_bond_type
C33   C34   A    
O12   V3    S    
C25   C26   A    
V4    O20   S    
H10   C41   S    
V3    O20   S    
C6    C9    A    
C16   H5    S    
C4    C6    S    
O2    C1    A    
O17   V3    S    
C12   H1    S    
C45   H19   S    
C1    O6    A    
N4    H30   S    
O18   C55   A    
O15   C55   A    
C2    C44   S    
C31   C32   A    
C13   H2    S    
C37   C42   A    
C21   C22   A    
C19   C21   A    
C18   C19   A    
C43   C50   A    
N3    H28   S    
O5    C3    A    
C22   C23   A    
C32   H14   S    
N2    H25   S    
N5    H31   S    
O15   V3    S    
C40   H16   S    
C29   C34   A    
C29   H11   S    
C42   H17   S    
C3    C21   S    
N6    H33   S    
C27   N5    S    
O14   V3    S    
O11   V4    S    
O8    V2    S    
C46   H21   S    
C7    C8    A    
O16   V4    S    
N5    H32   S    
C11   C12   A    
O1    V2    S    
C5    C55   S    
C15   C20   A    
C36   C39   A    
C37   C38   A    
C35   C54   S    
O9    C4    A    
C17   H6    S    
C44   C46   A    
N4    H29   S    
C28   N1    S    
C53   O16   A    
C8    H3    S    
C7    N3    S    
C5    C12   A    
C45   C46   A    
O13   C56   A    
C29   C30   A    
C20   C24   A    
C47   C48   A    
C22   C25   A    
C51   H18   S    
C23   C24   A    
O4    C2    A    
C49   C50   A    
C13   C14   A    
C48   C49   A    
C34   C38   A    
C50   N2    S    
C19   C20   A    
C7    C11   A    
C27   C28   A    
C15   N6    S    
O5    V1    S    
C40   C41   A    
O14   C54   A    
C43   C53   S    
O19   C56   A    
C48   C52   A    
C1    C38   S    
C17   C18   A    
N1    H24   S    
O3    C4    A    
O19   V4    S    
O12   C53   A    
O6    V2    S    
C33   C35   A    
C45   C49   A    
C44   C47   A    
C26   C27   A    
O2    V1    S    
C14   N4    S    
C52   H20   S    
C30   H12   S    
C30   C31   A    
O7    V1    S    
C39   H15   S    
C32   C33   A    
O1    C2    A    
C15   C16   A    
C51   C52   A    
C24   C56   S    
O8    C3    A    
C23   C28   A    
C9    H4    S    
C5    C13   A    
C16   C17   A    
O13   V3    S    
O9    V2    S    
C36   C37   A    
O4    V1    S    
C43   C51   A    
O3    V1    S    
V1    O10   S    
N3    H27   S    
C35   C36   A    
N2    H26   S    
V2    O10   S    
O11   C54   A    
C25   H8    S    
C6    C8    A    
O7    V2    S    
C39   C40   A    
C31   H13   S    
N6    H34   S    
C26   H9    S    
C41   C42   A    
C10   C14   A    
C47   H22   S    
N1    H23   S    
C10   C11   A    
C18   H7    S    
C9    C10   A    
O18   V4    S    
O17   V4    S    
