data_str_m9_o18_o19_f0_sra.sym.95
_audit_creation_date              2012-12-11T15:27:45-0500
_audit_creation_method            fapswitch 2.2
_symmetry_space_group_name_H-M    P1
_symmetry_Int_Tables_number       1
_space_group_crystal_system       triclinic
_cell_length_a                    23.39553
_cell_length_b                    7.301114
_cell_length_c                    15.110996
_cell_angle_alpha                 90.013357
_cell_angle_beta                  108.64485
_cell_angle_gamma                 89.960194
_cell_volume                      2445.69714335

loop_
_atom_site_label
_atom_site_type_symbol
_atom_type_description
_atom_site_fract_x
_atom_site_fract_y
_atom_site_fract_z
_atom_type_partial_charge
O1    O     O_R   0.711000 0.648610 0.341170 -0.522384
O2    O     O_R   0.289000 0.351390 0.658830 -0.522386
O3    O     O_R   0.789000 0.148610 0.158830 -0.538895
O4    O     O_R   0.211000 0.851390 0.841170 -0.538899
O5    O     O_R   0.829650 0.322030 0.336650 -0.539560
O6    O     O_R   0.170350 0.677970 0.663350 -0.539568
O7    O     O_R   0.670350 0.822030 0.163350 -0.526778
O8    O     O_R   0.329650 0.177970 0.836650 -0.526778
C1    C     C_R   0.854295 0.485725 0.356762 0.728829
C2    C     C_R   0.145705 0.514275 0.643238 0.728842
C3    C     C_R   0.645705 0.985789 0.143244 0.730380
C4    C     C_R   0.354295 0.014211 0.856756 0.730383
O9    O     O_R   0.713950 0.319280 0.352070 -0.543567
O10   O     O_R   0.286050 0.680720 0.647930 -0.543566
O11   O     O_R   0.786050 0.819280 0.147930 -0.527072
O12   O     O_R   0.213950 0.180720 0.852070 -0.527062
O13   O     O_R   0.672470 0.142870 0.174360 -0.534614
O14   O     O_R   0.327530 0.857130 0.825640 -0.534612
O15   O     O_R   0.827530 0.642870 0.325640 -0.521931
O16   O     O_R   0.172470 0.357130 0.674360 -0.521930
C5    C     C_R   0.701329 0.487404 0.375157 0.740954
C6    C     C_R   0.298671 0.512596 0.624842 0.740955
C7    C     C_R   0.798613 0.987359 0.124783 0.741563
C8    C     C_R   0.201385 0.012642 0.875215 0.741552
O17   O     O_3   0.736530 0.478650 0.191680 -0.380525
O18   O     O_3   0.263470 0.521350 0.808320 -0.380520
O19   O     O_3   0.763470 0.978650 0.308320 -0.380953
O20   O     O_3   0.236530 0.021350 0.691680 -0.380959
V1    V     V_3+5 0.752500 0.206170 0.260820 1.491365
V2    V     V_3+5 0.247500 0.793830 0.739180 1.491353
V3    V     V_3+5 0.747500 0.706170 0.239180 1.530449
V4    V     V_3+5 0.252500 0.293830 0.760820 1.530459
C9    C     C_R   0.829757 0.995326 0.055304 -0.059997
C10   C     C_R   0.170244 0.004681 0.944699 -0.060009
C11   C     C_R   0.670243 0.495032 0.444740 -0.060547
C12   C     C_R   0.329757 0.504969 0.555260 -0.060546
C13   C     C_R   0.823885 0.015796 0.893478 -0.151639
C14   C     C_R   0.176120 0.984174 0.106528 -0.151645
C15   C     C_R   0.676150 0.505659 0.606819 -0.152413
C16   C     C_R   0.323849 0.494339 0.393181 -0.152413
C17   C     C_R   0.796034 0.024130 0.961897 -0.222471
C18   C     C_R   0.203967 0.975814 0.038102 -0.222451
C19   C     C_R   0.704151 0.484033 0.539143 -0.223446
C20   C     C_R   0.295849 0.515960 0.460856 -0.223448
C21   C     C_R   0.892588 0.968406 0.081828 0.173272
C22   C     C_R   0.107417 0.031673 0.918184 0.173258
C23   C     C_R   0.607171 0.517035 0.417011 0.172743
C24   C     C_R   0.392829 0.482974 0.582988 0.172744
C25   C     C_R   0.922700 0.992755 0.014241 0.038152
C26   C     C_R   0.077306 0.007322 0.985771 0.038166
C27   C     C_R   0.577237 0.505459 0.485471 0.036957
C28   C     C_R   0.422763 0.494551 0.514529 0.036956
C29   C     C_R   0.886608 0.996453 0.918708 0.101830
C30   C     C_R   0.113399 0.003581 0.081303 0.101828
C31   C     C_R   0.613253 0.520024 0.580736 0.101330
C32   C     C_R   0.386746 0.479983 0.419264 0.101330
C33   C     C_R   0.986690 0.007206 0.036307 0.065346
C34   C     C_R   0.013317 0.992888 0.963705 0.065355
C35   C     C_R   0.513436 0.486225 0.464221 0.064353
C36   C     C_R   0.486563 0.513789 0.535778 0.064352
C37   C     C_R   0.975323 0.954530 0.872636 -0.114593
C38   C     C_R   0.024687 0.045563 0.127375 -0.114595
C39   C     C_R   0.524016 0.569566 0.624511 -0.116026
C40   C     C_R   0.475984 0.430451 0.375487 -0.116027
C41   C     C_R   0.913195 0.970470 0.849286 -0.177429
C42   C     C_R   0.086815 0.029582 0.150724 -0.177429
C43   C     C_R   0.586295 0.558763 0.648536 -0.177095
C44   C     C_R   0.413704 0.441249 0.351463 -0.177097
H1    H     H_    0.885625 0.954662 0.776876 0.129863
H2    H     H_    0.114385 0.045368 0.223134 0.129868
H3    H     H_    0.613602 0.588347 0.719827 0.130335
H4    H     H_    0.386397 0.411665 0.280172 0.130335
H5    H     H_    0.252429 0.957739 0.058455 0.118193
H6    H     H_    0.747569 0.042142 0.941538 0.118186
H7    H     H_    0.247236 0.530517 0.439688 0.118238
H8    H     H_    0.752763 0.469469 0.560312 0.118239
H9    H     H_    0.796384 0.024366 0.820696 0.124950
H10   H     H_    0.203623 0.975565 0.179307 0.124950
H11   H     H_    0.703657 0.510887 0.679688 0.125290
H12   H     H_    0.296342 0.489107 0.320312 0.125290
H13   H     H_    0.992818 0.909653 0.818423 0.177402
H14   H     H_    0.007194 0.090460 0.181587 0.177415
H15   H     H_    0.505953 0.624250 0.676248 0.177803
H16   H     H_    0.494046 0.375771 0.323749 0.177803
C45   C     C_1   0.416797 0.007001 0.918700 -0.133293
C46   C     C_1   0.583203 0.992999 0.081300 -0.133293
C47   C     C_1   0.083203 0.507144 0.581292 -0.134014
C48   C     C_1   0.916797 0.492856 0.418708 -0.134011
C49   C     C_1   0.469154 0.002418 0.969935 0.045123
C50   C     C_1   0.530846 0.997582 0.030065 0.045122
C51   C     C_1   0.030846 0.502481 0.530061 0.043334
C52   C     C_1   0.969154 0.497519 0.469938 0.043336
Br1   Br    Br    0.069580 0.149759 0.798488 -0.584874
Br2   Br    Br    0.930430 0.850422 0.201547 -0.584884
Br3   Br    Br    0.431803 0.388526 0.707998 -0.583944
Br4   Br    Br    0.568198 0.611496 0.292004 -0.583943

loop_
_geom_bond_atom_site_label_1
_geom_bond_atom_site_label_2
_ccdc_geom_bond_type
O17   V3    S    
O1    C5    A    
C24   Br3   S    
C47   C51   T    
O19   V1    S    
C9    C21   A    
O3    C7    A    
C10   C18   A    
O15   V3    S    
C25   C33   A    
C33   C38   A    
O7    C3    A    
C35   C40   A    
C26   C30   A    
C4    C45   S    
C36   C39   A    
C40   C44   A    
O9    V1    S    
C14   C18   A    
C1    C48   S    
O4    C8    A    
C25   C29   A    
C3    C46   S    
O1    V3    S    
O13   V1    S    
O2    V4    S    
O3    V1    S    
C40   H16   S    
C28   C36   A    
C17   H6    S    
C1    O15   A    
C15   C31   A    
C48   C52   T    
C2    O16   A    
C7    C9    S    
O2    C6    A    
C23   Br4   S    
C16   H12   S    
C10   C22   A    
C11   C19   A    
C16   C20   A    
C43   H3    S    
C44   H4    S    
C13   C29   A    
C34   C37   A    
O11   C7    A    
C38   H14   S    
C11   C23   A    
C35   C36   A    
O12   C8    A    
O10   V2    S    
C21   Br2   S    
O5    V1    S    
C39   C43   A    
C2    C47   S    
O7    V3    S    
C38   C42   A    
O8    V4    S    
C46   C50   T    
C51   C52   S    
C45   C49   T    
O18   V4    S    
C23   C27   A    
C14   H10   S    
C16   C32   A    
C32   C44   A    
C13   H9    S    
C8    C10   S    
C39   H15   S    
C26   C34   A    
C20   H7    S    
O5    C1    A    
C31   C43   A    
C14   C30   A    
C21   C25   A    
O8    C4    A    
O9    C5    A    
O14   V2    S    
O6    V2    S    
C12   C20   A    
C27   C35   A    
C29   C41   A    
O16   V4    S    
C19   H8    S    
C3    O13   A    
C18   H5    S    
O6    C2    A    
C15   C19   A    
O11   V3    S    
C5    C11   S    
O12   V4    S    
C6    C12   S    
C22   C26   A    
C9    C17   A    
O10   C6    A    
O20   V2    S    
C37   H13   S    
C33   C34   A    
C42   H2    S    
C22   Br1   S    
C41   H1    S    
C12   C24   A    
C27   C31   A    
C13   C17   A    
C37   C41   A    
C24   C28   A    
C4    O14   A    
C49   C50   S    
C30   C42   A    
O4    V2    S    
C28   C32   A    
C15   H11   S    
