data_str_m3_o10_o14_f0_pcu.sym.52
_audit_creation_date              2012-12-10T16:50:10-0500
_audit_creation_method            fapswitch 2.2
_symmetry_space_group_name_H-M    P1
_symmetry_Int_Tables_number       1
_space_group_crystal_system       triclinic
_cell_length_a                    7.798774
_cell_length_b                    8.568751
_cell_length_c                    10.675334
_cell_angle_alpha                 91.165238
_cell_angle_beta                  87.289454
_cell_angle_gamma                 93.527132
_cell_volume                      711.130622037

loop_
_atom_site_label
_atom_site_type_symbol
_atom_type_description
_atom_site_fract_x
_atom_site_fract_y
_atom_site_fract_z
_atom_type_partial_charge
C1    C     C_R   0.545504 0.794466 0.496964 0.960189
C2    C     C_R   0.454497 0.205530 0.503233 0.957134
C3    C     C_R   0.496711 0.513257 0.260580 0.888815
C4    C     C_R   0.233744 0.326281 0.891742 -0.142977
C5    C     C_R   0.075293 0.300604 0.956423 -0.198717
C6    C     C_R   0.038743 0.388648 0.064452 -0.170838
C7    C     C_R   0.166167 0.490899 0.114238 0.141779
C8    C     C_R   0.337897 0.486567 0.064214 0.073582
C9    C     C_R   0.362610 0.429013 0.942370 0.037435
C10   C     C_R   0.511632 0.483976 0.873165 -0.134082
C11   C     C_R   0.651699 0.560439 0.933094 0.095596
C12   C     C_R   0.639986 0.579253 0.061843 -0.257023
C13   C     C_R   0.486736 0.536843 0.128021 -0.169957
C14   C     C_2   0.569389 0.957998 0.495240 -0.380719
C15   C     C_2   0.430623 0.041979 0.505286 -0.382376
C16   C     C_R   0.503512 0.492763 0.739694 0.886400
H1    H     H_    0.255011 0.266418 0.802551 0.147063
H2    H     H_    0.982473 0.753103 0.488266 0.194277
H3    H     H_    0.889005 0.678260 0.628202 0.246290
H4    H     H_    0.062502 0.584070 0.274483 0.212276
H5    H     H_    0.212490 0.705835 0.200587 0.196456
H6    H     H_    0.976280 0.222811 0.917207 0.152172
H7    H     H_    0.908964 0.383956 0.105201 0.163482
H8    H     H_    0.750842 0.626448 0.110818 0.175325
H9    H     H_    0.700580 0.008731 0.485617 0.176194
H10   H     H_    0.299442 0.991216 0.514956 0.180313
H11   H     H_    0.005435 0.361038 0.427377 0.176934
H12   H     H_    0.882468 0.690261 0.920754 0.191988
H13   H     H_    0.875031 0.521646 0.838365 0.215643
N1    N     N_2   0.950330 0.457950 0.466250 -0.176862
N2    N     N_2   0.049670 0.542050 0.533750 -0.047528
N3    N     N_3   0.804463 0.618018 0.863957 -0.451440
N4    N     N_3   0.998527 0.689374 0.568907 -0.353881
N5    N     N_3   0.110920 0.622556 0.187561 -0.472572
O1    O     O_R   0.389250 0.738570 0.508280 -0.598899
O2    O     O_R   0.678390 0.711630 0.486650 -0.660033
O3    O     O_R   0.355400 0.513470 0.694050 -0.603060
O4    O     O_R   0.644540 0.486530 0.672420 -0.622691
O5    O     O_R   0.321610 0.288370 0.513350 -0.641466
O6    O     O_R   0.610750 0.261430 0.491720 -0.611152
O7    O     O_R   0.355460 0.513470 0.327580 -0.640026
O8    O     O_R   0.644600 0.486530 0.305950 -0.620144
Zn1   Zn    Zn3+2 0.306930 0.517990 0.514440 0.945719
Zn2   Zn    Zn3+2 0.693070 0.482010 0.485560 0.921381

loop_
_geom_bond_atom_site_label_1
_geom_bond_atom_site_label_2
_ccdc_geom_bond_type
O3    Zn1   S    
C11   C12   A    
N2    N4    S    
C3    O8    A    
O4    Zn2   S    
C6    C7    A    
C1    C14   S    
O1    Zn1   S    
C9    C10   A    
C12   H8    S    
C3    C13   S    
H12   N3    S    
C16   O3    A    
H4    N5    S    
C8    C9    A    
O8    Zn2   S    
C7    C8    A    
C10   C16   S    
H11   N1    S    
C2    C15   S    
O7    Zn1   S    
N1    Zn2   S    
C5    C6    A    
N2    Zn1   S    
C4    H1    S    
H2    N4    S    
C11   N3    S    
H13   N3    S    
C14   H9    S    
N1    N2    D    
C7    N5    S    
O2    Zn2   S    
C10   C11   A    
C6    H7    S    
C8    C13   A    
C2    O6    A    
O6    Zn2   S    
C12   C13   A    
C1    O1    A    
H3    N4    S    
C14   C15   D    
C3    O7    A    
C15   H10   S    
O5    Zn1   S    
H5    N5    S    
C4    C9    A    
C2    O5    A    
C5    H6    S    
C1    O2    A    
C16   O4    A    
C4    C5    A    
