data_str_m4_o17_o17_f0_acs.sym.119
_audit_creation_date              2012-12-11T14:30:00-0500
_audit_creation_method            fapswitch 2.2
_symmetry_space_group_name_H-M    P1
_symmetry_Int_Tables_number       1
_space_group_crystal_system       monoclinic
_cell_length_a                    12.741827
_cell_length_b                    12.741827
_cell_length_c                    27.036561
_cell_angle_alpha                 90.0
_cell_angle_beta                  90.0
_cell_angle_gamma                 120.000202
_cell_volume                      3801.4090603

loop_
_atom_site_label
_atom_site_type_symbol
_atom_type_description
_atom_site_fract_x
_atom_site_fract_y
_atom_site_fract_z
_atom_type_partial_charge
C1    C     C_R   0.558375 0.455738 0.822185 0.542275
C2    C     C_R   0.897537 0.441200 0.677732 0.542501
C3    C     C_R   0.544262 0.102637 0.822185 0.542275
C4    C     C_R   0.558800 0.456337 0.677732 0.542501
C5    C     C_R   0.897363 0.441625 0.822185 0.542275
C6    C     C_R   0.543663 0.102463 0.677732 0.542501
C7    C     C_R   0.455738 0.558375 0.322185 0.542275
C8    C     C_R   0.441200 0.897537 0.177732 0.542501
C9    C     C_R   0.102637 0.544262 0.322185 0.542275
C10   C     C_R   0.456337 0.558800 0.177732 0.542501
C11   C     C_R   0.441625 0.897363 0.322185 0.542274
C12   C     C_R   0.102463 0.543663 0.177732 0.542501
C13   C     C_R   0.991605 0.495377 0.974012 0.048443
C14   C     C_R   0.500207 0.004405 0.525733 0.049085
C15   C     C_R   0.504623 0.496228 0.974012 0.048443
C16   C     C_R   0.995594 0.495802 0.525733 0.049085
C17   C     C_R   0.503772 0.008395 0.974012 0.048443
C18   C     C_R   0.504198 0.499793 0.525733 0.049085
C19   C     C_R   0.495377 0.991605 0.474012 0.048443
C20   C     C_R   0.004405 0.500207 0.025733 0.049085
C21   C     C_R   0.496228 0.504623 0.474012 0.048443
C22   C     C_R   0.495801 0.995594 0.025733 0.049085
C23   C     C_R   0.008395 0.503772 0.474012 0.048443
C24   C     C_R   0.499793 0.504198 0.025733 0.049085
C25   C     C_R   0.950736 0.662555 0.977527 -0.120022
C26   C     C_R   0.669956 0.967807 0.528666 -0.124211
C27   C     C_R   0.337444 0.288181 0.977527 -0.120022
C28   C     C_R   0.032193 0.702150 0.528666 -0.124211
C29   C     C_R   0.711818 0.049263 0.977527 -0.120022
C30   C     C_R   0.297850 0.330043 0.528666 -0.124211
C31   C     C_R   0.662555 0.950737 0.477527 -0.120022
C32   C     C_R   0.967806 0.669956 0.028666 -0.124211
C33   C     C_R   0.288181 0.337444 0.477527 -0.120022
C34   C     C_R   0.702150 0.032193 0.028666 -0.124211
C35   C     C_R   0.049262 0.711818 0.477527 -0.120022
C36   C     C_R   0.330043 0.297849 0.028666 -0.124211
C37   C     C_R   0.943389 0.566965 0.898743 -0.124674
C38   C     C_R   0.603588 0.022682 0.603983 -0.131747
C39   C     C_R   0.433035 0.376424 0.898743 -0.124674
C40   C     C_R   0.977317 0.580906 0.603983 -0.131748
C41   C     C_R   0.623576 0.056611 0.898743 -0.124674
C42   C     C_R   0.419093 0.396411 0.603983 -0.131747
C43   C     C_R   0.566965 0.943389 0.398743 -0.124674
C44   C     C_R   0.022682 0.603588 0.103983 -0.131748
C45   C     C_R   0.376424 0.433035 0.398743 -0.124674
C46   C     C_R   0.580906 0.977318 0.103983 -0.131748
C47   C     C_R   0.056611 0.623576 0.398743 -0.124674
C48   C     C_R   0.396412 0.419093 0.103983 -0.131748
C49   C     C_R   0.048164 0.521331 0.127943 -0.008717
C50   C     C_R   0.477509 0.951847 0.371641 -0.010130
C51   C     C_R   0.478669 0.526833 0.127943 -0.008717
C52   C     C_R   0.048153 0.525661 0.371641 -0.010130
C53   C     C_R   0.473167 0.951835 0.127943 -0.008717
C54   C     C_R   0.474338 0.522491 0.371641 -0.010130
C55   C     C_R   0.521331 0.048164 0.627943 -0.008717
C56   C     C_R   0.951847 0.477509 0.871641 -0.010130
C57   C     C_R   0.526833 0.478669 0.627943 -0.008717
C58   C     C_R   0.525661 0.048153 0.871641 -0.010130
C59   C     C_R   0.951836 0.473167 0.627943 -0.008717
C60   C     C_R   0.522491 0.474338 0.871641 -0.010130
C61   C     C_R   0.963892 0.576867 0.949827 0.014410
C62   C     C_R   0.591231 0.997245 0.553057 0.014623
C63   C     C_R   0.423132 0.387024 0.949827 0.014410
C64   C     C_R   0.002755 0.593986 0.553057 0.014623
C65   C     C_R   0.612975 0.036108 0.949827 0.014410
C66   C     C_R   0.406013 0.408768 0.553057 0.014623
C67   C     C_R   0.576867 0.963892 0.449827 0.014410
C68   C     C_R   0.997245 0.591231 0.053057 0.014623
C69   C     C_R   0.387024 0.423132 0.449827 0.014410
C70   C     C_R   0.593986 0.002755 0.053057 0.014623
C71   C     C_R   0.036107 0.612975 0.449827 0.014409
C72   C     C_R   0.408768 0.406013 0.053057 0.014623
C73   C     C_R   0.989817 0.404357 0.895218 -0.127832
C74   C     C_R   0.422645 0.039641 0.601397 -0.122247
C75   C     C_R   0.595643 0.585460 0.895218 -0.127832
C76   C     C_R   0.960359 0.383004 0.601397 -0.122247
C77   C     C_R   0.414540 0.010183 0.895218 -0.127832
C78   C     C_R   0.616996 0.577355 0.601397 -0.122247
C79   C     C_R   0.404357 0.989816 0.395218 -0.127832
C80   C     C_R   0.039641 0.422645 0.101397 -0.122247
C81   C     C_R   0.585460 0.595644 0.395218 -0.127832
C82   C     C_R   0.383004 0.960359 0.101397 -0.122247
C83   C     C_R   0.010183 0.414540 0.395218 -0.127832
C84   C     C_R   0.577355 0.616996 0.101397 -0.122247
C85   C     C_R   0.005126 0.408433 0.946555 -0.015165
C86   C     C_R   0.413541 0.023212 0.550222 -0.015781
C87   C     C_R   0.591567 0.596693 0.946555 -0.015165
C88   C     C_R   0.976788 0.390329 0.550222 -0.015781
C89   C     C_R   0.403307 0.994874 0.946555 -0.015165
C90   C     C_R   0.609671 0.586459 0.550222 -0.015781
C91   C     C_R   0.408433 0.005126 0.446555 -0.015165
C92   C     C_R   0.023212 0.413541 0.050222 -0.015781
C93   C     C_R   0.596693 0.591567 0.446555 -0.015165
C94   C     C_R   0.390329 0.976788 0.050222 -0.015781
C95   C     C_R   0.994874 0.403307 0.446555 -0.015165
C96   C     C_R   0.586459 0.609671 0.050222 -0.015781
C97   C     C_R   0.029678 0.322229 0.023083 -0.027069
C98   C     C_R   0.323008 0.026419 0.471171 -0.029872
C99   C     C_R   0.677772 0.707450 0.023083 -0.027069
C100  C     C_R   0.973580 0.296588 0.471171 -0.029872
C101  C     C_R   0.292551 0.970322 0.023083 -0.027069
C102  C     C_R   0.703412 0.676993 0.471171 -0.029872
C103  C     C_R   0.322229 0.029678 0.523083 -0.027069
C104  C     C_R   0.026420 0.323008 0.971171 -0.029872
C105  C     C_R   0.707449 0.677772 0.523084 -0.027069
C106  C     C_R   0.296588 0.973580 0.971171 -0.029872
C107  C     C_R   0.970322 0.292551 0.523084 -0.027069
C108  C     C_R   0.676992 0.703412 0.971171 -0.029872
Cr1   Cr    Cr6+3 0.487630 0.241180 0.750000 1.035059
Cr2   Cr    Cr6+3 0.753550 0.512370 0.750000 1.035059
Cr3   Cr    Cr6+3 0.758820 0.246450 0.750000 1.035059
Cr4   Cr    Cr6+3 0.241180 0.487630 0.250000 1.035059
Cr5   Cr    Cr6+3 0.512370 0.753550 0.250000 1.035059
Cr6   Cr    Cr6+3 0.246450 0.758820 0.250000 1.035059
H1    H     H_    0.026606 0.678740 0.124368 0.134177
H2    H     H_    0.623952 0.913980 0.380770 0.142976
H3    H     H_    0.321259 0.347865 0.124368 0.134177
H4    H     H_    0.086019 0.709971 0.380770 0.142976
H5    H     H_    0.652134 0.973394 0.124367 0.134177
H6    H     H_    0.290028 0.376047 0.380770 0.142976
H7    H     H_    0.678740 0.026606 0.624368 0.134177
H8    H     H_    0.913980 0.623952 0.880770 0.142976
H9    H     H_    0.347865 0.321259 0.624367 0.134177
H10   H     H_    0.709971 0.086019 0.880770 0.142976
H11   H     H_    0.973393 0.652134 0.624367 0.134177
H12   H     H_    0.376048 0.290028 0.880770 0.142976
H13   H     H_    0.956384 0.736097 0.049291 0.161737
H14   H     H_    0.723906 0.927316 0.459602 0.153748
H15   H     H_    0.263901 0.220285 0.049290 0.161738
H16   H     H_    0.072683 0.796589 0.459602 0.153748
H17   H     H_    0.779714 0.043615 0.049290 0.161737
H18   H     H_    0.203410 0.276093 0.459602 0.153748
H19   H     H_    0.736098 0.956385 0.549291 0.161737
H20   H     H_    0.927315 0.723905 0.959602 0.153747
H21   H     H_    0.220286 0.263901 0.549290 0.161738
H22   H     H_    0.796590 0.072684 0.959602 0.153748
H23   H     H_    0.043614 0.779713 0.549290 0.161737
H24   H     H_    0.276094 0.203409 0.959602 0.153748
H25   H     H_    0.056407 0.357581 0.120216 0.158326
H26   H     H_    0.336930 0.997615 0.373721 0.153621
H27   H     H_    0.642419 0.698825 0.120217 0.158326
H28   H     H_    0.002385 0.339314 0.373721 0.153621
H29   H     H_    0.301175 0.943594 0.120217 0.158327
H30   H     H_    0.660685 0.663071 0.373721 0.153621
H31   H     H_    0.357581 0.056406 0.620217 0.158326
H32   H     H_    0.997615 0.336931 0.873720 0.153621
H33   H     H_    0.698825 0.642419 0.620217 0.158326
H34   H     H_    0.339314 0.002385 0.873721 0.153621
H35   H     H_    0.943594 0.301175 0.620217 0.158326
H36   H     H_    0.663071 0.660686 0.873721 0.153621
O1    O     O_R   0.460870 0.120930 0.805240 -0.516195
O2    O     O_R   0.660060 0.539130 0.694760 -0.517593
O3    O     O_R   0.879070 0.339940 0.805240 -0.516194
O4    O     O_R   0.460870 0.120930 0.694760 -0.517593
O5    O     O_R   0.660060 0.539130 0.805240 -0.516194
O6    O     O_R   0.879070 0.339940 0.694760 -0.517593
O7    O     O_R   0.120930 0.460870 0.305240 -0.516194
O8    O     O_R   0.539130 0.660060 0.194760 -0.517593
O9    O     O_R   0.339940 0.879070 0.305240 -0.516194
O10   O     O_R   0.120930 0.460870 0.194760 -0.517593
O11   O     O_R   0.539130 0.660060 0.305240 -0.516194
O12   O     O_R   0.339940 0.879070 0.194760 -0.517593
O13   O     O_R   0.498910 0.350470 0.801870 -0.499400
O14   O     O_R   0.851560 0.501090 0.698130 -0.496806
O15   O     O_R   0.649530 0.148440 0.801870 -0.499400
O16   O     O_R   0.498910 0.350470 0.698130 -0.496806
O17   O     O_R   0.851560 0.501090 0.801870 -0.499400
O18   O     O_R   0.649530 0.148440 0.698130 -0.496805
O19   O     O_R   0.350470 0.498910 0.301870 -0.499400
O20   O     O_R   0.501090 0.851560 0.198130 -0.496806
O21   O     O_R   0.148440 0.649530 0.301870 -0.499400
O22   O     O_R   0.350470 0.498910 0.198130 -0.496805
O23   O     O_R   0.501090 0.851560 0.301870 -0.499401
O24   O     O_R   0.148440 0.649530 0.198130 -0.496805
O25   O     O_3   0.666667 0.333333 0.750000 -0.244846
O26   O     O_3   0.333333 0.666667 0.250000 -0.244846
C109  C     C_1   0.036480 0.225826 0.048564 0.167286
N1    N     N_1   0.040779 0.149072 0.069550 -0.262771
C110  C     C_1   0.234307 0.042452 0.443528 0.175551
N2    N     N_1   0.163784 0.055113 0.421339 -0.261971
C111  C     C_1   0.774175 0.810654 0.048564 0.167286
N3    N     N_1   0.850929 0.891707 0.069551 -0.262770
C112  C     C_1   0.957548 0.191854 0.443529 0.175550
N4    N     N_1   0.944888 0.108671 0.421339 -0.261971
C113  C     C_1   0.189346 0.963520 0.048564 0.167286
N5    N     N_1   0.108294 0.959222 0.069551 -0.262771
C114  C     C_1   0.808146 0.765694 0.443529 0.175550
N6    N     N_1   0.891329 0.836218 0.421339 -0.261970
C115  C     C_1   0.225826 0.036479 0.548564 0.167286
N7    N     N_1   0.149072 0.040778 0.569550 -0.262771
C116  C     C_1   0.042453 0.234307 0.943528 0.175551
N8    N     N_1   0.055113 0.163784 0.921339 -0.261971
C117  C     C_1   0.810654 0.774175 0.548564 0.167286
N9    N     N_1   0.891707 0.850929 0.569551 -0.262770
C118  C     C_1   0.191854 0.957547 0.943529 0.175550
N10   N     N_1   0.108671 0.944887 0.921339 -0.261971
C119  C     C_1   0.963521 0.189347 0.548564 0.167286
N11   N     N_1   0.959222 0.108294 0.569551 -0.262771
C120  C     C_1   0.765694 0.808146 0.943528 0.175551
N12   N     N_1   0.836217 0.891330 0.921339 -0.261970

loop_
_geom_bond_atom_site_label_1
_geom_bond_atom_site_label_2
_ccdc_geom_bond_type
C44   C49   A    
C82   C94   A    
C18   C21   A    
C5    C56   S    
C6    C55   S    
C50   C79   A    
C12   C49   S    
C97   C104  A    
C11   O9    A    
C111  N3    T    
C78   C90   A    
C105  C117  S    
C99   C108  A    
C20   C92   A    
C77   C89   A    
Cr3   O25   S    
C84   H27   S    
C32   H13   S    
Cr5   O23   S    
Cr1   O1    S    
C41   C58   A    
Cr2   O2    S    
C24   C96   A    
C44   C68   A    
Cr6   O12   S    
C26   C31   A    
C10   C51   S    
C75   H36   S    
C10   O22   A    
C98   C103  A    
C14   C62   A    
C96   C99   A    
C41   H10   S    
C102  C105  A    
C84   C96   A    
C1    O5    A    
C100  C112  S    
Cr2   O5    S    
C74   H31   S    
C58   C77   A    
C37   C56   A    
C48   C51   A    
C38   C55   A    
C94   C101  A    
C4    O16   A    
C89   C106  A    
C42   H9    S    
C3    O15   A    
C19   C67   A    
C103  C115  S    
Cr5   O8    S    
Cr3   O6    S    
C34   C70   A    
C79   C91   A    
C13   C20   A    
C33   C69   A    
C32   C68   A    
C25   C32   A    
Cr6   O26   S    
C79   H26   S    
C35   C71   A    
C120  N12   T    
C40   C59   A    
C22   C94   A    
C119  N11   T    
C9    C52   S    
C31   H14   S    
C48   C72   A    
C101  C113  S    
C86   C103  A    
C14   C19   A    
C42   C57   A    
C8    O20   A    
C92   C97   A    
C81   H30   S    
Cr6   O21   S    
C4    O2    A    
C6    O18   A    
C11   O23   A    
C27   H24   S    
C46   C70   A    
Cr4   O7    S    
C87   C108  A    
C45   C69   A    
C116  N8    T    
C18   C90   A    
C23   C71   A    
C17   C89   A    
C14   C86   A    
Cr1   O13   S    
C1    C60   S    
C2    O14   A    
C107  C119  S    
C88   C107  A    
Cr2   O14   S    
C95   C100  A    
C41   C65   A    
Cr2   O25   S    
C104  C116  S    
C29   C34   A    
C44   H1    S    
C12   O10   A    
C76   C88   A    
C118  N10   T    
C21   C69   A    
C53   C82   A    
C47   H4    S    
C80   C92   A    
C52   C83   A    
C31   C67   A    
C112  N4    T    
C25   H20   S    
C43   H2    S    
C81   C93   A    
Cr2   O17   S    
C97   C109  S    
Cr4   O19   S    
C77   H34   S    
C9    O7    A    
C83   C95   A    
C25   C61   A    
C74   C86   A    
C7    O11   A    
Cr1   O4    S    
Cr3   O3    S    
C35   H16   S    
C47   C71   A    
C30   C66   A    
C85   C104  A    
C27   C63   A    
C78   H33   S    
C109  N1    T    
Cr5   O26   S    
Cr3   O15   S    
C39   C60   A    
C28   C64   A    
C45   H6    S    
C75   C87   A    
C15   C24   A    
Cr4   O26   S    
C34   H17   S    
C30   H21   S    
C16   C23   A    
C11   C50   S    
C7    O19   A    
C29   C65   A    
C9    O21   A    
C13   C85   A    
C24   C72   A    
C12   O24   A    
C73   C85   A    
C101  C106  A    
C28   C35   A    
C10   O8    A    
C33   H18   S    
C100  C107  A    
C2    O6    A    
C56   C73   A    
Cr4   O10   S    
C30   C33   A    
C2    C59   S    
C93   C102  A    
C3    O1    A    
C57   C78   A    
C20   C68   A    
C42   C66   A    
C28   H23   S    
C102  C114  S    
C90   C105  A    
C82   H29   S    
C8    C53   S    
C45   C54   A    
C83   H28   S    
C37   C61   A    
Cr1   O25   S    
C43   C50   A    
Cr5   O20   S    
C48   H3    S    
C27   C36   A    
C18   C66   A    
C80   H25   S    
C39   C63   A    
C60   C75   A    
C17   C65   A    
C17   C22   A    
C40   C64   A    
C49   C80   A    
C73   H32   S    
C108  C120  S    
C26   C62   A    
C106  C118  S    
C114  N6    T    
C55   C74   A    
C26   H19   S    
C8    O12   A    
C36   H15   S    
C6    O4    A    
C113  N5    T    
Cr4   O22   S    
C21   C93   A    
C76   H35   S    
C5    O3    A    
C40   H11   S    
C59   C76   A    
C46   C53   A    
C23   C95   A    
C46   H5    S    
C5    O17   A    
C91   C98   A    
C115  N7    T    
Cr6   O9    S    
C99   C111  S    
C38   H7    S    
C19   C91   A    
Cr1   O16   S    
Cr5   O11   S    
C37   H8    S    
C3    C58   S    
Cr6   O24   S    
C29   H22   S    
C13   C61   A    
C1    O13   A    
C43   C67   A    
C117  N9    T    
C15   C87   A    
C47   C52   A    
C39   H12   S    
C110  N2    T    
C15   C63   A    
Cr3   O18   S    
C16   C64   A    
C7    C54   S    
C98   C110  S    
C51   C84   A    
C22   C70   A    
C54   C81   A    
C16   C88   A    
C36   C72   A    
C4    C57   S    
C38   C62   A    
