data_str_m9_o2_o23_f0_sra.sym.46
_audit_creation_date              2012-12-11T16:31:29-0500
_audit_creation_method            fapswitch 2.2
_symmetry_space_group_name_H-M    P1
_symmetry_Int_Tables_number       1
_space_group_crystal_system       triclinic
_cell_length_a                    6.948291
_cell_length_b                    18.260647
_cell_length_c                    20.258972
_cell_angle_alpha                 68.286007
_cell_angle_beta                  90.517656
_cell_angle_gamma                 90.70727
_cell_volume                      2387.86029021

loop_
_atom_site_label
_atom_site_type_symbol
_atom_type_description
_atom_site_fract_x
_atom_site_fract_y
_atom_site_fract_z
_atom_type_partial_charge
O1    O     O_R   0.488990 0.443920 0.942160 -0.532235
O2    O     O_R   0.823840 0.406530 0.087600 -0.544320
O3    O     O_R   0.999650 0.556080 0.057840 -0.524412
C1    C     C_R   0.654555 0.381177 0.113054 0.798041
O4    O     O_R   0.818390 0.434590 0.944530 -0.530502
O5    O     O_R   0.994160 0.584350 0.913750 -0.531968
C2    C     C_R   0.648986 0.420496 0.924073 0.697590
O6    O     O_R   0.494480 0.415650 0.086250 -0.531911
O7    O     O_3   0.662600 0.549100 0.990070 -0.357876
V1    V     V_3+5 0.935320 0.490890 0.001840 1.583616
O8    O     O_R   0.324240 0.593470 0.912400 -0.530425
C3    C     C_R   0.155317 0.616817 0.885157 0.946062
O9    O     O_R   0.329690 0.565410 0.055470 -0.508309
C4    C     C_R   0.161961 0.578939 0.076528 0.823638
V2    V     V_3+5 0.435990 0.509110 0.998160 1.613365
O10   O     O_3   0.158840 0.450900 0.009930 -0.385668
C5    C     C_3   0.931979 0.746923 0.204869 0.687425
C6    C     C_3   0.185768 0.655868 0.287984 -0.057320
C7    C     C_3   0.165159 0.704399 0.338200 0.708090
H1    H     H_    0.811801 0.780036 0.290133 0.280940
H2    H     H_    0.341404 0.642427 0.288307 0.206397
C8    C     C_1   0.111384 0.878271 0.376157 -0.076260
C9    C     C_3   0.135648 0.708410 0.208452 0.013150
C10   C     C_3   0.931429 0.798771 0.251490 -0.527749
C11   C     C_3   0.126249 0.793729 0.291286 -0.033942
C12   C     C_3   0.290505 0.824741 0.234010 0.719176
C13   C     C_3   0.290885 0.775309 0.185141 -0.528894
C14   C     C_1   0.118447 0.841298 0.337333 0.096420
C15   C     C_1   0.146603 0.662234 0.160713 0.056520
C16   C     C_1   0.154655 0.624584 0.122129 -0.087075
H3    H     H_    0.271066 0.813176 0.128278 0.184605
H4    H     H_    0.435183 0.748714 0.187580 0.246061
H5    H     H_    0.898432 0.861263 0.219213 0.168725
H6    H     H_    0.107018 0.519458 0.688800 0.168775
C17   C     C_R   0.166264 0.780608 0.876802 0.469177
C18   C     C_R   0.170798 0.858303 0.873441 0.654268
C19   C     C_R   0.159337 0.920459 0.808465 -0.247428
C20   C     C_R   0.142698 0.905707 0.746104 -0.277837
C21   C     C_R   0.137778 0.827659 0.747213 0.000870
C22   C     C_R   0.150253 0.763330 0.813850 -0.131508
C23   C     C_R   0.119454 0.813871 0.682979 -0.085203
C24   C     C_R   0.114229 0.735158 0.684785 -0.103998
C25   C     C_R   0.128359 0.670221 0.751397 -0.124420
C26   C     C_R   0.145556 0.684461 0.815893 -0.126570
C27   C     C_R   0.096593 0.718945 0.621418 0.599062
C28   C     C_R   0.093403 0.641863 0.623732 -0.241382
C29   C     C_R   0.108369 0.579107 0.687954 -0.273025
C30   C     C_R   0.125950 0.592151 0.751175 0.569295
H7    H     H_    0.162837 0.980618 0.806283 0.209618
H8    H     H_    0.133220 0.956494 0.697035 0.145302
H9    H     H_    0.079981 0.630680 0.574986 0.177051
C31   C     C_R   0.671454 0.220395 0.124551 -0.151717
C32   C     C_R   0.675336 0.143468 0.126855 -0.190127
C33   C     C_R   0.659044 0.080920 0.191288 -0.175392
C34   C     C_R   0.639820 0.094382 0.254274 0.572122
C35   C     C_R   0.638295 0.172817 0.254138 -0.046011
C36   C     C_R   0.652510 0.236676 0.187333 -0.010927
C37   C     C_R   0.622280 0.188462 0.318066 -0.152246
C38   C     C_R   0.617836 0.269142 0.314463 -0.019309
C39   C     C_R   0.626150 0.332145 0.246077 -0.097052
C40   C     C_R   0.645148 0.315476 0.183397 -0.133373
C41   C     C_R   0.606907 0.291194 0.375785 0.118155
C42   C     C_R   0.589145 0.370371 0.367768 -0.188186
C43   C     C_R   0.591742 0.429870 0.301534 0.036521
C44   C     C_R   0.616293 0.411794 0.241590 0.558201
H10   H     H_    0.683072 0.266957 0.072729 0.096830
H11   H     H_    0.689876 0.132335 0.078233 0.172410
H12   H     H_    0.660722 0.021122 0.192539 0.162283
H13   H     H_    0.574218 0.386384 0.413948 0.145746
O11   O     O_R   0.770890 0.084490 0.414040 -0.532288
O12   O     O_R   0.445980 0.065450 0.555510 -0.554678
O13   O     O_R   0.270670 0.915620 0.586180 -0.541073
C45   C     C_R   0.614655 0.076243 0.578870 0.687235
O14   O     O_R   0.441480 0.093500 0.412450 -0.539051
O15   O     O_R   0.266140 0.943870 0.442100 -0.511603
C46   C     C_R   0.611042 0.119500 0.386947 0.832927
O16   O     O_R   0.775410 0.056240 0.558120 -0.548920
O17   O     O_3   0.602660 0.950990 0.510100 -0.345119
V3    V     V_3+5 0.329740 0.009100 0.498130 1.509245
O18   O     O_R   0.936120 0.934420 0.444240 -0.506602
C47   C     C_R   0.103919 0.922100 0.422687 0.845322
O19   O     O_R   0.940610 0.906370 0.587310 -0.532378
C48   C     C_R   0.109544 0.882621 0.614314 0.805260
V4    V     V_3+5 0.829110 0.990690 0.501470 1.564103
O20   O     O_3   0.106080 0.049010 0.489880 -0.399649
C49   C     C_3   0.829200 0.205550 0.742607 0.476935
C50   C     C_3   0.585664 0.298311 0.662697 -0.072976
C51   C     C_3   0.588428 0.347667 0.712203 -0.089257
H14   H     H_    0.949181 0.296057 0.778699 0.006254
H15   H     H_    0.938755 0.232274 0.700554 -0.041907
H16   H     H_    0.702247 0.319927 0.622444 0.148405
H17   H     H_    0.443004 0.372764 0.712325 0.190167
C52   C     C_1   0.639503 0.375229 0.878366 -0.115634
C53   C     C_3   0.627736 0.209277 0.707166 0.049369
C54   C     C_3   0.830555 0.251674 0.793888 0.502578
C55   C     C_3   0.634277 0.293094 0.790944 0.034538
C56   C     C_3   0.475149 0.228014 0.814385 -0.339220
C57   C     C_3   0.477061 0.177053 0.767591 -0.299538
C58   C     C_1   0.635755 0.338058 0.839419 0.042423
C59   C     C_1   0.626893 0.160972 0.661566 0.033629
C60   C     C_1   0.623654 0.122074 0.624114 -0.161231
H18   H     H_    0.511829 0.115115 0.801504 0.222047
H19   H     H_    0.330952 0.175379 0.745387 0.179328
H20   H     H_    0.496060 0.189296 0.871068 0.223328
H21   H     H_    0.331294 0.255546 0.810370 0.168489
C61   C     C_3   0.866807 0.796289 0.128310 -0.607945
H22   H     H_    0.720781 0.819955 0.129114 0.211603
H23   H     H_    0.963909 0.847243 0.102336 0.176509
H24   H     H_    0.858918 0.759506 0.095305 0.228228
F1    F     F_    0.466479 0.815241 0.268751 -0.626182
F2    F     F_    0.177271 0.723416 0.942403 -0.704376
F3    F     F_    0.186115 0.873401 0.934018 -0.637962
F4    F     F_    0.082541 0.776689 0.556231 -0.715783
F5    F     F_    0.795247 0.687796 0.231722 -0.694630
F6    F     F_    0.142241 0.527040 0.811371 -0.711595
C62   C     C_3   0.569011 0.514165 0.293419 -0.637337
H25   H     H_    0.555104 0.521218 0.345327 0.193320
H26   H     H_    0.694666 0.548569 0.264673 0.283374
H27   H     H_    0.439551 0.537803 0.260554 0.214209
F7    F     F_    0.620667 0.029229 0.314313 -0.696291
C63   C     C_3   0.615446 0.234703 0.451213 -0.783213
H28   H     H_    0.748044 0.199301 0.459826 0.200193
H29   H     H_    0.623190 0.264588 0.490021 0.192278
H30   H     H_    0.481521 0.199135 0.463065 0.209234
F8    F     F_    0.630986 0.474435 0.179157 -0.699935
C64   C     C_3   0.396097 0.311391 0.619822 -0.777896
H31   H     H_    0.383079 0.374751 0.585722 0.214975
H32   H     H_    0.393246 0.277279 0.584469 0.214643
H33   H     H_    0.269254 0.294435 0.655353 0.209809
C65   C     C_3   0.725610 0.419332 0.682545 -0.823724
H34   H     H_    0.676017 0.458120 0.628815 0.234049
H35   H     H_    0.726541 0.454811 0.716746 0.238495
H36   H     H_    0.874743 0.400905 0.677753 0.194478
F9    F     F_    0.881618 0.127773 0.779004 -0.632372
F10   F     F_    0.868764 0.200830 0.862896 -0.628400
C66   C     C_3   0.088339 0.573380 0.316139 -0.766399
H37   H     H_    0.933796 0.576466 0.326505 0.265397
H38   H     H_    0.103397 0.542435 0.278641 0.215050
H39   H     H_    0.158415 0.535929 0.366659 0.207681
C67   C     C_3   0.012732 0.669935 0.397706 -0.682022
H40   H     H_    0.055950 0.610364 0.434441 0.203244
H41   H     H_    0.002050 0.706479 0.430724 0.225256
H42   H     H_    0.867573 0.665305 0.376442 0.218576
F11   F     F_    0.339114 0.699852 0.373839 -0.623675
C68   C     C_3   0.276525 0.913507 0.188264 -0.713861
H43   H     H_    0.146355 0.927311 0.154052 0.168010
H44   H     H_    0.276505 0.949447 0.222059 0.214818
H45   H     H_    0.403754 0.932114 0.152870 0.218781

loop_
_geom_bond_atom_site_label_1
_geom_bond_atom_site_label_2
_ccdc_geom_bond_type
C50   C51   S    
C51   C55   S    
C7    F11   S    
C43   C62   S    
C50   H16   S    
C6    H2    S    
C23   C24   A    
O2    C1    A    
C54   C55   S    
C67   H42   S    
C51   C65   S    
O18   V4    S    
C55   C58   S    
O12   V3    S    
C56   C57   S    
C37   C46   S    
C21   C23   A    
C32   C33   A    
C35   C36   A    
C11   C14   S    
C12   C13   S    
C15   C16   T    
O14   C46   A    
C9    C15   S    
C18   C19   A    
C67   H41   S    
O13   V3    S    
O5    C3    A    
C20   C21   A    
C34   C35   A    
C33   H12   S    
C61   H22   S    
C53   C57   S    
C57   H19   S    
C23   C48   S    
C50   C53   S    
C62   H25   S    
C6    C7    S    
C63   H30   S    
C49   C53   S    
C28   C29   A    
O8    V2    S    
C49   F9    S    
C42   H13   S    
C35   C37   A    
C7    C67   S    
C18   F3    S    
C6    C66   S    
O1    V2    S    
C9    C13   S    
O11   V4    S    
C25   C30   A    
C12   F1    S    
C1    O6    A    
C56   H21   S    
C45   C60   S    
C38   C39   A    
C8    C14   T    
O9    C4    A    
C4    C16   S    
C66   H39   S    
C32   H11   S    
C68   H44   S    
C5    F5    S    
C68   H43   S    
C34   F7    S    
C67   H40   S    
C2    C52   S    
C5    C10   S    
C13   H3    S    
C6    C9    S    
C56   H20   S    
C8    C47   S    
H1    C10   S    
C10   C11   S    
C66   H38   S    
C49   H15   S    
C21   C22   A    
O12   C45   A    
O17   V3    S    
O15   C47   A    
C64   H33   S    
C11   C12   S    
C57   H18   S    
C28   H9    S    
C39   C40   A    
C17   C18   A    
C44   F8    S    
H14   C54   S    
C12   C68   S    
C65   H35   S    
C25   C26   A    
C19   C20   A    
C27   F4    S    
C19   H7    S    
C29   C30   A    
C5    C9    S    
C53   C59   S    
C55   C56   S    
C41   C42   A    
C54   F10   S    
C51   H17   S    
V4    O20   S    
C63   H28   S    
O3    C4    A    
C30   F6    S    
C39   C44   A    
O6    V2    S    
O19   V4    S    
O14   V3    S    
O9    V2    S    
O11   C46   A    
C27   C28   A    
C65   H36   S    
C24   C25   A    
O2    V1    S    
V3    O20   S    
C68   H45   S    
C17   F2    S    
C31   C32   A    
O4    C2    A    
O7    V1    S    
C52   C58   T    
C33   C34   A    
C38   C41   A    
C64   H32   S    
C13   H4    S    
O1    C2    A    
O18   C47   A    
O5    V1    S    
O8    C3    A    
C36   C40   A    
C20   H8    S    
C10   H5    S    
O16   V4    S    
C62   H27   S    
C43   C44   A    
C17   C22   A    
C37   C38   A    
O4    V1    S    
C3    C26   S    
O3    V1    S    
V1    O10   S    
C5    C61   S    
C61   H23   S    
C49   C54   S    
C64   H31   S    
C1    C40   S    
C59   C60   T    
C62   H26   S    
C65   H34   S    
C41   C63   S    
O7    V2    S    
C7    C11   S    
C63   H29   S    
O13   C48   A    
C31   C36   A    
C42   C43   A    
O17   V4    S    
C22   C26   A    
C31   H10   S    
O19   C48   A    
C45   O16   A    
C66   H37   S    
H6    C29   S    
O15   V3    S    
C24   C27   A    
C50   C64   S    
V2    O10   S    
C61   H24   S    
