data_str_m2_o14_o14_f0_pcu.sym.178
_audit_creation_date              2013-03-05T15:50:12-0500
_audit_creation_method            fapswitch 2.2
_symmetry_space_group_name_H-M    P1
_symmetry_Int_Tables_number       1
_space_group_crystal_system       triclinic
_cell_length_a                    14.780066
_cell_length_b                    15.875506
_cell_length_c                    9.630648
_cell_angle_alpha                 88.983805
_cell_angle_beta                  88.269451
_cell_angle_gamma                 89.816055
_cell_volume                      2258.35112904

loop_
_atom_site_label
_atom_site_type_symbol
_atom_site_description
_atom_site_fract_x
_atom_site_fract_y
_atom_site_fract_z
_atom_type_partial_charge
O1    O     O_R   0.409820 0.909830 0.618810 -0.601294
O2    O     O_R   0.409820 0.090170 0.618810 -0.595672
O3    O     O_R   0.909820 0.409830 0.618810 -0.601313
O4    O     O_R   0.909820 0.590170 0.618810 -0.595682
O5    O     O_R   0.409840 0.909830 0.381240 -0.586476
O6    O     O_R   0.409840 0.090170 0.381240 -0.575519
O7    O     O_R   0.909840 0.409830 0.381240 -0.586481
O8    O     O_R   0.909840 0.590170 0.381240 -0.575516
C1    C     C_R   0.380796 0.880860 0.503421 0.793223
C2    C     C_R   0.381909 0.120008 0.501347 0.791684
C3    C     C_R   0.880797 0.380859 0.503421 0.793184
C4    C     C_R   0.881912 0.620010 0.501347 0.791677
Cu1   Cu    Cu3+1 0.499990 0.000000 0.640660 0.927412
Cu2   Cu    Cu3+1 0.999990 0.500000 0.640660 0.927478
Cu3   Cu    Cu3+1 0.500010 0.000000 0.359340 0.956065
Cu4   Cu    Cu3+1 0.000010 0.500000 0.359340 0.956076
O9    O     O_R   0.590170 0.090170 0.618760 -0.625268
O10   O     O_R   0.590170 0.909830 0.618760 -0.590732
O11   O     O_R   0.090170 0.590170 0.618760 -0.625270
O12   O     O_R   0.090170 0.409830 0.618760 -0.590545
O13   O     O_R   0.590190 0.090180 0.381190 -0.559097
O14   O     O_R   0.590190 0.909820 0.381190 -0.607230
O15   O     O_R   0.090190 0.590180 0.381190 -0.559089
O16   O     O_R   0.090190 0.409820 0.381190 -0.607256
C5    C     C_R   0.611663 0.124102 0.498452 0.808918
C6    C     C_R   0.609977 0.874594 0.501141 0.818107
C7    C     C_R   0.111663 0.624103 0.498452 0.808920
C8    C     C_R   0.109972 0.374591 0.501140 0.818215
H1    H     H_    0.286164 0.174239 0.286536 0.184911
H2    H     H_    0.332970 0.786982 0.292648 0.159921
H3    H     H_    0.786161 0.674238 0.286544 0.184908
H4    H     H_    0.832974 0.286978 0.292649 0.159921
C9    C     C_R   0.325248 0.215512 0.759287 -0.227380
C10   C     C_R   0.273415 0.823939 0.768646 -0.298481
C11   C     C_R   0.825281 0.715530 0.759284 -0.227381
C12   C     C_R   0.773418 0.323934 0.768647 -0.298472
H5    H     H_    0.395916 0.199669 0.761440 0.142986
H6    H     H_    0.339228 0.844947 0.796383 0.163233
H7    H     H_    0.895944 0.699673 0.761430 0.142974
H8    H     H_    0.839231 0.344941 0.796382 0.163229
C13   C     C_R   0.284084 0.239735 0.884800 0.080660
C14   C     C_R   0.208193 0.816950 0.877319 0.054579
C15   C     C_R   0.784129 0.739762 0.884801 0.080705
C16   C     C_R   0.708197 0.316943 0.877321 0.054577
C17   C     C_R   0.692816 0.762929 0.887598 -0.074783
C18   C     C_R   0.623122 0.284337 0.850357 -0.088404
C19   C     C_R   0.192766 0.262889 0.887585 -0.074766
C20   C     C_R   0.123119 0.784342 0.850354 -0.088361
H9    H     H_    0.657744 0.777275 0.984768 0.134108
H10   H     H_    0.570314 0.280953 0.930729 0.174501
H11   H     H_    0.157686 0.277231 0.984751 0.134104
H12   H     H_    0.070311 0.780960 0.930725 0.174497
C21   C     C_R   0.648345 0.774540 0.762975 -0.149978
C22   C     C_R   0.607882 0.249247 0.722248 -0.197809
C23   C     C_R   0.148302 0.274501 0.762954 -0.149790
C24   C     C_R   0.107882 0.749249 0.722247 -0.197807
H13   H     H_    0.578181 0.794057 0.768613 0.149315
H14   H     H_    0.542292 0.222390 0.706005 0.150808
H15   H     H_    0.078139 0.294022 0.768576 0.149265
H16   H     H_    0.042293 0.722390 0.706002 0.150797
C25   C     C_R   0.695263 0.763614 0.634168 0.125703
C26   C     C_R   0.676376 0.248347 0.617145 0.089733
C27   C     C_R   0.195234 0.263589 0.634157 0.125789
C28   C     C_R   0.176376 0.748348 0.617146 0.089720
C29   C     C_R   0.278156 0.219863 0.633429 0.098875
C30   C     C_R   0.254935 0.797229 0.632449 0.104401
C31   C     C_R   0.778181 0.719882 0.633432 0.098891
C32   C     C_R   0.754936 0.297227 0.632449 0.104403
C33   C     C_R   0.310795 0.184750 0.506265 -0.125776
C34   C     C_R   0.310738 0.815043 0.511063 -0.115224
C35   C     C_R   0.810806 0.684758 0.506268 -0.125754
C36   C     C_R   0.810739 0.315041 0.511063 -0.115218
C37   C     C_R   0.266012 0.203554 0.383220 -0.124778
C38   C     C_R   0.292432 0.775019 0.386482 -0.172275
C39   C     C_R   0.766017 0.703558 0.383227 -0.124777
C40   C     C_R   0.792435 0.275016 0.386482 -0.172266
H17   H     H_    0.668376 0.780819 0.283691 0.166499
H18   H     H_    0.714182 0.184416 0.286097 0.182118
H19   H     H_    0.168376 0.280821 0.283681 0.166531
H20   H     H_    0.214176 0.684421 0.286096 0.182119
C41   C     C_R   0.696637 0.762357 0.382053 -0.168297
C42   C     C_R   0.723776 0.216700 0.381102 -0.100751
C43   C     C_R   0.196630 0.262352 0.382044 -0.168310
C44   C     C_R   0.223773 0.716704 0.381102 -0.100756
C45   C     C_R   0.664588 0.797112 0.506306 -0.135811
C46   C     C_R   0.668568 0.199444 0.497232 -0.125414
C47   C     C_R   0.164573 0.297101 0.506298 -0.135833
C48   C     C_R   0.168567 0.699446 0.497233 -0.125439
H21   H     H_    0.360380 0.979342 0.135916 0.147278
H22   H     H_    0.860382 0.479336 0.135915 0.147283
C49   C     C_R   0.661884 0.042578 0.131980 0.022333
C50   C     C_R   0.161883 0.542578 0.131985 0.022347
C51   C     C_R   0.719011 0.098754 0.058337 -0.208117
C52   C     C_R   0.219009 0.598758 0.058351 -0.208102
H23   H     H_    0.779469 0.123005 0.104242 0.170213
H24   H     H_    0.279469 0.623005 0.104257 0.170219
C53   C     C_R   0.717486 0.100941 0.915538 -0.250102
C54   C     C_R   0.217481 0.600959 0.915554 -0.250388
H25   H     H_    0.774854 0.129059 0.859298 0.155768
H26   H     H_    0.274846 0.629085 0.859318 0.155745
C55   C     C_R   0.661700 0.044568 0.850314 0.042306
C56   C     C_R   0.161697 0.544589 0.850322 0.042276
C57   C     C_R   0.580275 0.016884 0.921048 0.166484
C58   C     C_R   0.080274 0.516891 0.921049 0.166628
C59   C     C_R   0.580041 0.017158 0.070216 0.080438
C60   C     C_R   0.080041 0.517161 0.070217 0.080427
N1    N     N_R   0.501200 0.000000 0.147910 -0.196007
N2    N     N_R   0.001200 0.500000 0.147910 -0.196013
C61   C     C_R   0.423479 0.987881 0.077746 -0.065685
C62   C     C_R   0.923479 0.487877 0.077746 -0.065685
C63   C     C_R   0.423461 0.988131 0.930216 -0.106570
C64   C     C_R   0.923462 0.488127 0.930216 -0.106595
N3    N     N_R   0.501270 0.000000 0.852040 -0.202576
N4    N     N_R   0.001270 0.500000 0.852040 -0.202575
C65   C     C_2   0.714372 0.992326 0.752301 0.459117
H27   H     H_    0.729804 0.014207 0.647016 0.095481
O17   O     O_2   0.751500 0.928623 0.794183 -0.552260
C66   C     C_2   0.214366 0.492380 0.752259 0.459414
H28   H     H_    0.229937 0.514366 0.647074 0.095268
O18   O     O_2   0.251345 0.428575 0.794023 -0.552299
H29   H     H_    0.360171 0.980452 0.878723 0.137232
H30   H     H_    0.860173 0.480444 0.878723 0.137237
C67   C     C_2   0.338839 0.244004 0.009886 0.332436
H31   H     H_    0.401602 0.208548 0.015951 0.070764
O19   O     O_2   0.316803 0.290512 0.104571 -0.559017
C68   C     C_2   0.230739 0.841362 0.019406 0.315716
H32   H     H_    0.300206 0.854869 0.043366 0.040408
O20   O     O_2   0.172416 0.845532 0.111601 -0.533555
C69   C     C_2   0.838891 0.744019 0.009883 0.332536
H33   H     H_    0.901657 0.708566 0.015929 0.070730
O21   O     O_2   0.816855 0.790511 0.104590 -0.558971
C70   C     C_2   0.730745 0.341353 0.019408 0.315697
H34   H     H_    0.800212 0.354858 0.043367 0.040415
O22   O     O_2   0.672423 0.345523 0.111605 -0.533568
C71   C     C_2   0.711910 0.984797 0.222692 0.492670
H35   H     H_    0.707230 0.917668 0.206831 0.104978
O23   O     O_2   0.763024 0.011190 0.309196 -0.571303
C72   C     C_2   0.211908 0.484795 0.222693 0.492618
H36   H     H_    0.207228 0.417667 0.206827 0.105003
O24   O     O_2   0.263022 0.511186 0.309200 -0.571292

loop_
_geom_bond_atom_site_label_1
_geom_bond_atom_site_label_2
_geom_bond_distance
_ccdc_geom_bond_type
C43   C47   1.395806 A    
C27   C29   1.406479 A    
C68   H32   1.082062 S    
C23   H15   1.081444 S    
C63   H29   1.080146 S    
C49   C59   1.426535 A    
O10   C6    1.297350 A    
H20   C44   1.069985 S    
C50   C72   1.468865 S    
C10   C30   1.420205 A    
C58   C60   1.436564 A    
C9    C29   1.416359 A    
C67   H31   1.086053 S    
C64   H30   1.080146 S    
C59   N1    1.390719 A    
Cu1   O10   1.962568 S    
C57   N3    1.390059 A    
C61   C63   1.420758 A    
H2    C38   1.083344 S    
C67   O19   1.219485 D    
H1    C37   1.081674 S    
C52   C54   1.375918 A    
C65   H27   1.083910 S    
H21   C61   1.080974 S    
C71   O23   1.221790 D    
Cu3   N1    2.035754 S    
O2    Cu1   1.965605 S    
H18   C42   1.069992 S    
C66   H28   1.083905 S    
C12   H8    1.072236 S    
O6    Cu3   1.962467 S    
C21   C25   1.415868 A    
Cu3   O14   1.965821 S    
Cu1   N3    2.036386 S    
C70   H34   1.082061 S    
C65   O17   1.217345 D    
C23   C27   1.415858 A    
Cu4   O16   1.965821 S    
C34   C38   1.401504 A    
C24   C28   1.410010 A    
C33   C37   1.401792 A    
Cu4   N2    2.035754 S    
H17   C41   1.082124 S    
O4    C4    1.296995 A    
O11   C7    1.300114 A    
C56   C66   1.471087 S    
C36   C40   1.401504 A    
C52   H24   1.083632 S    
C71   H35   1.082010 S    
C17   C21   1.394812 A    
O8    Cu4   1.962467 S    
N1    C61   1.366054 A    
C64   N4    1.367091 A    
C53   H25   1.085208 S    
C16   C18   1.394691 A    
O7    C3    1.316034 A    
C62   C64   1.420756 A    
C10   C14   1.404479 A    
Cu2   O12   1.962568 S    
C15   C69   1.474079 S    
O1    C1    1.295626 A    
C1    C34   1.472753 S    
C63   N3    1.367092 A    
C72   H36   1.082008 S    
C40   C42   1.378574 A    
C21   H13   1.081442 S    
C3    C36   1.472757 S    
C39   C41   1.384631 A    
C19   H11   1.083433 S    
O12   C8    1.297369 A    
Cu2   N4    2.036386 S    
C9    H5    1.074269 S    
C24   H16   1.077136 S    
C32   C36   1.434709 A    
C28   C30   1.411476 A    
C11   H7    1.074253 S    
O5    C1    1.316033 A    
C54   C56   1.389698 A    
C49   C51   1.399103 A    
C26   C46   1.410714 A    
C25   C31   1.406477 A    
H3    C39   1.081677 S    
C11   C31   1.416367 A    
O8    C4    1.312294 A    
C53   C55   1.389707 A    
C18   C22   1.387517 A    
C8    C47   1.470028 S    
C50   C52   1.399098 A    
C17   H9    1.083433 S    
C13   C19   1.397306 A    
C57   C59   1.436567 A    
C14   C20   1.394688 A    
C56   C58   1.431370 A    
C15   C17   1.397293 A    
O3    Cu2   1.977240 S    
C25   C45   1.419026 A    
C70   O22   1.221198 D    
C58   N4    1.390079 A    
C50   C60   1.426536 A    
O7    Cu4   1.963253 S    
C4    C35   1.468030 S    
Cu4   O15   1.977454 S    
O15   C7    1.307820 A    
Cu1   Cu3   2.709284 S    
C55   C65   1.471104 S    
Cu2   Cu4   2.709284 S    
Cu3   O13   1.977454 S    
C12   C16   1.404479 A    
O1    Cu1   1.977240 S    
H22   C62   1.080975 S    
O2    C2    1.297001 A    
C51   C53   1.375931 A    
C11   C15   1.396331 A    
C19   C23   1.394822 A    
C69   H33   1.086055 S    
C22   H14   1.077149 S    
C20   C24   1.387514 A    
O13   C5    1.307818 A    
C68   O20   1.221198 D    
C27   C47   1.419011 A    
C10   H6    1.072234 S    
Cu2   O11   1.963352 S    
O16   C8    1.314988 A    
C38   C44   1.378573 A    
H4    C40   1.083344 S    
C12   C32   1.420202 A    
C72   O24   1.221790 D    
Cu1   O9    1.963352 S    
C16   C70   1.476786 S    
C22   C26   1.410019 A    
C18   H10   1.083286 S    
C54   H26   1.085210 S    
C55   C57   1.431355 A    
C26   C32   1.411477 A    
C9    C13   1.396329 A    
C13   C67   1.474068 S    
O9    C5    1.300113 A    
C42   C46   1.388217 A    
C35   C39   1.401788 A    
C30   C34   1.434708 A    
C44   C48   1.388213 A    
C60   N2    1.390711 A    
C6    C45   1.470008 S    
C29   C33   1.424810 A    
C5    C46   1.464084 S    
N2    C62   1.366054 A    
C31   C35   1.424817 A    
O4    Cu2   1.965605 S    
C7    C48   1.464091 S    
C66   O18   1.217294 D    
O5    Cu3   1.963253 S    
O3    C3    1.295625 A    
O6    C2    1.312293 A    
C14   C68   1.476786 S    
H19   C43   1.082122 S    
C2    C33   1.468044 S    
C20   H12   1.083285 S    
C49   C71   1.468869 S    
C51   H23   1.083634 S    
O14   C6    1.314995 A    
C28   C48   1.410713 A    
C37   C43   1.384645 A    
C41   C45   1.395804 A    
C69   O21   1.219488 D    
