data_str_m9_o10_o29_f0_sra.sym.50
_audit_creation_date              2012-12-11T14:08:41-0500
_audit_creation_method            fapswitch 2.2
_symmetry_space_group_name_H-M    P1
_symmetry_Int_Tables_number       1
_space_group_crystal_system       triclinic
_cell_length_a                    28.044025
_cell_length_b                    7.182497
_cell_length_c                    17.353829
_cell_angle_alpha                 89.9999
_cell_angle_beta                  101.455569
_cell_angle_gamma                 89.999953
_cell_volume                      3425.88043814

loop_
_atom_site_label
_atom_site_type_symbol
_atom_type_description
_atom_site_fract_x
_atom_site_fract_y
_atom_site_fract_z
_atom_type_partial_charge
O1    O     O_R   0.000700 0.436510 0.857920 -0.539937
O2    O     O_R   0.999300 0.563490 0.142080 -0.524298
O3    O     O_R   0.999300 0.936510 0.642080 -0.539936
O4    O     O_R   0.000700 0.063490 0.357920 -0.524296
O5    O     O_R   0.930080 0.766380 0.721890 -0.532460
O6    O     O_R   0.069920 0.233620 0.278110 -0.539633
O7    O     O_R   0.069920 0.266380 0.778110 -0.532461
O8    O     O_R   0.930080 0.733620 0.221890 -0.539641
C1    C     C_R   0.910765 0.597773 0.709643 0.852086
C2    C     C_R   0.089060 0.401809 0.292229 0.857014
C3    C     C_R   0.089235 0.097773 0.790357 0.852079
C4    C     C_R   0.910940 0.901809 0.207771 0.856999
O9    O     O_R   0.996180 0.766230 0.862310 -0.549484
O10   O     O_R   0.003820 0.233770 0.137690 -0.538709
O11   O     O_R   0.003820 0.266230 0.637690 -0.549485
O12   O     O_R   0.996180 0.733770 0.362310 -0.538711
O13   O     O_R   0.065870 0.936460 0.783500 -0.543613
O14   O     O_R   0.934130 0.063540 0.216500 -0.535406
O15   O     O_R   0.934130 0.436460 0.716500 -0.543611
O16   O     O_R   0.065870 0.563540 0.283500 -0.535405
C5    C     C_R   0.999420 0.595773 0.894541 0.737946
C6    C     C_R   0.001513 0.404056 0.105856 0.811691
C7    C     C_R   0.000580 0.095773 0.605459 0.737945
C8    C     C_R   0.998487 0.904056 0.394145 0.811685
O17   O     O_3   0.022790 0.603020 0.723980 -0.391127
O18   O     O_3   0.977210 0.396980 0.276020 -0.378926
O19   O     O_3   0.977210 0.103020 0.776020 -0.391125
O20   O     O_3   0.022790 0.896980 0.223980 -0.378924
V1    V     V_3+5 0.995770 0.877900 0.754830 1.505706
V2    V     V_3+5 0.004230 0.122100 0.245170 1.621162
V3    V     V_3+5 0.004230 0.377900 0.745170 1.505704
V4    V     V_3+5 0.995770 0.622100 0.254830 1.621151
C9    C     C_2   0.992917 0.079416 0.518290 -0.217254
C10   C     C_2   0.002968 0.917671 0.480727 -0.165177
C11   C     C_2   0.007084 0.579415 0.981710 -0.217247
C12   C     C_2   0.997032 0.417671 0.019273 -0.165175
C13   C     C_R   0.686462 0.097941 0.038065 0.781841
C14   C     C_R   0.317418 0.896325 0.923099 0.685139
C15   C     C_R   0.313539 0.597954 0.461924 0.781841
C16   C     C_R   0.682582 0.396330 0.576899 0.685145
O21   O     O_2   0.716551 0.238578 0.028137 -0.436591
O22   O     O_2   0.287398 0.758447 0.936389 -0.455846
O23   O     O_2   0.283450 0.738594 0.471849 -0.436591
O24   O     O_2   0.712602 0.258451 0.563610 -0.455846
N1    N     N_R   0.705356 0.945185 0.080680 -0.538370
N2    N     N_R   0.297767 0.052192 0.883773 -0.565692
N3    N     N_R   0.294645 0.445196 0.419311 -0.538370
N4    N     N_R   0.702233 0.552196 0.616225 -0.565692
C17   C     C_R   0.676419 0.797766 0.090804 0.679352
C18   C     C_R   0.326598 0.196434 0.869619 0.649065
C19   C     C_R   0.323582 0.297776 0.409188 0.679347
C20   C     C_R   0.673402 0.696439 0.630378 0.649060
C21   C     C_R   0.774939 0.981420 0.193694 -0.129364
C22   C     C_R   0.222373 0.001888 0.783872 -0.137593
C23   C     C_R   0.225060 0.481399 0.306297 -0.129362
C24   C     C_R   0.777626 0.501900 0.716128 -0.137596
C25   C     C_R   0.825536 0.966043 0.225070 -0.161333
C26   C     C_R   0.170850 0.010052 0.761575 -0.104608
C27   C     C_R   0.174464 0.466018 0.274923 -0.161329
C28   C     C_R   0.829150 0.510062 0.738426 -0.104603
C29   C     C_R   0.839246 0.860395 0.096374 -0.173665
C30   C     C_R   0.166927 0.158360 0.888057 -0.176333
C31   C     C_R   0.160755 0.360422 0.403627 -0.173668
C32   C     C_R   0.833074 0.658354 0.611941 -0.176332
C33   C     C_R   0.788691 0.878898 0.065333 0.353262
C34   C     C_R   0.218294 0.142815 0.910711 0.386063
C35   C     C_R   0.211310 0.378932 0.434665 0.353257
C36   C     C_R   0.781706 0.642809 0.589286 0.386062
C37   C     C_R   0.756919 0.937047 0.113709 0.337810
C38   C     C_R   0.245512 0.066253 0.858788 0.276955
C39   C     C_R   0.243081 0.437055 0.386284 0.337814
C40   C     C_R   0.754488 0.566256 0.641210 0.276957
C41   C     C_R   0.605043 0.965746 0.021679 -0.120881
C42   C     C_R   0.398929 0.024338 0.932277 -0.127796
C43   C     C_R   0.394957 0.465757 0.478312 -0.120882
C44   C     C_R   0.601071 0.524346 0.567718 -0.127796
C45   C     C_R   0.635875 0.109632 0.005773 -0.135816
C46   C     C_R   0.368499 0.880174 0.949790 -0.115809
C47   C     C_R   0.364125 0.609644 0.494217 -0.135820
C48   C     C_R   0.631502 0.380180 0.550206 -0.115810
C49   C     C_R   0.616107 0.253905 0.954261 0.319055
C50   C     C_R   0.389486 0.728712 0.996050 0.316547
C51   C     C_R   0.383893 0.753918 0.545728 0.319053
C52   C     C_R   0.610515 0.228720 0.503945 0.316545
C53   C     C_R   0.625956 0.805404 0.061787 -0.001234
C54   C     C_R   0.377480 0.185112 0.893430 -0.019538
C55   C     C_R   0.374045 0.305415 0.438204 -0.001230
C56   C     C_R   0.622520 0.685118 0.606566 -0.019537
C57   C     C_R   0.857795 0.908999 0.176100 -0.104358
C58   C     C_R   0.143095 0.088749 0.813701 -0.145678
C59   C     C_R   0.142205 0.408999 0.323898 -0.104358
C60   C     C_R   0.856905 0.588750 0.686299 -0.145674
C61   C     C_R   0.480719 0.156964 0.936053 0.116197
C62   C     C_R   0.523425 0.831897 0.013785 0.110012
C63   C     C_R   0.519281 0.656973 0.563940 0.116196
C64   C     C_R   0.476576 0.331908 0.486208 0.110012
C65   C     C_R   0.471721 0.851170 0.996568 -0.038378
C66   C     C_R   0.532758 0.138054 0.953645 -0.038692
C67   C     C_R   0.528280 0.351180 0.503425 -0.038377
C68   C     C_R   0.467242 0.638065 0.546347 -0.038691
C69   C     C_R   0.450665 0.009245 0.953987 0.005009
C70   C     C_R   0.553543 0.979417 0.996494 0.001912
C71   C     C_R   0.549335 0.509254 0.546007 0.005009
C72   C     C_R   0.446457 0.479428 0.503498 0.001912
C73   C     C_R   0.457209 0.323821 0.905987 -0.107480
C74   C     C_R   0.546331 0.664369 0.043934 -0.126690
C75   C     C_R   0.542791 0.823829 0.594006 -0.107481
C76   C     C_R   0.453669 0.164380 0.456058 -0.126689
C77   C     C_R   0.407024 0.334814 0.882255 -0.156635
C78   C     C_R   0.596341 0.653428 0.069765 -0.127852
C79   C     C_R   0.592976 0.834821 0.617740 -0.156635
C80   C     C_R   0.403660 0.153439 0.430227 -0.127852
O25   O     O_2   0.306058 0.350392 0.832536 -0.496878
O26   O     O_2   0.696411 0.644783 0.129429 -0.488171
O27   O     O_2   0.693942 0.850396 0.667461 -0.496877
O28   O     O_2   0.303590 0.144791 0.370565 -0.488173
C81   C     C_R   0.564946 0.267227 0.927321 0.219232
C82   C     C_R   0.440313 0.725761 0.026169 0.217114
C83   C     C_R   0.435054 0.767239 0.572669 0.219232
C84   C     C_R   0.559687 0.225770 0.473825 0.217114
H1    H     H_    0.391331 0.464668 0.857372 0.167972
H2    H     H_    0.611764 0.523617 0.095115 0.179112
H3    H     H_    0.608669 0.964674 0.642623 0.167973
H4    H     H_    0.388237 0.023627 0.404877 0.179109
H5    H     H_    0.476135 0.453149 0.903685 0.166544
H6    H     H_    0.526502 0.536440 0.045854 0.177277
H7    H     H_    0.523865 0.953158 0.596308 0.166544
H8    H     H_    0.473499 0.036451 0.454139 0.177276
C85   C     C_2   0.968617 0.243608 0.475091 0.488530
H9    H     H_    0.980213 0.382893 0.494163 0.059802
O29   O     O_2   0.933524 0.225184 0.421439 -0.511488
C86   C     C_2   0.025432 0.751590 0.524507 0.443325
H10   H     H_    0.006467 0.675009 0.563020 0.095236
O30   O     O_2   0.065049 0.695729 0.515404 -0.509638
C87   C     C_2   0.031386 0.743603 0.024909 0.488518
H11   H     H_    0.019792 0.882890 0.005836 0.059802
O31   O     O_2   0.066478 0.725173 0.078562 -0.511494
C88   C     C_2   0.974567 0.251591 0.975493 0.443318
H12   H     H_    0.993531 0.175010 0.936979 0.095237
O32   O     O_2   0.934950 0.195731 0.984598 -0.509637
C89   C     C_2   0.871479 0.781456 0.045695 0.389085
H13   H     H_    0.857197 0.680369 0.000514 0.117824
O33   O     O_2   0.913857 0.829611 0.052655 -0.522900
C90   C     C_2   0.138959 0.250330 0.942063 0.364192
H14   H     H_    0.154632 0.367178 0.978014 0.095868
O34   O     O_2   0.098838 0.194300 0.948532 -0.543531
C91   C     C_2   0.128523 0.281502 0.454312 0.389097
H15   H     H_    0.142808 0.180449 0.499506 0.117830
O35   O     O_2   0.086143 0.329632 0.447342 -0.522908
C92   C     C_2   0.861042 0.750315 0.557933 0.364183
H16   H     H_    0.845369 0.867160 0.521979 0.095881
O36   O     O_2   0.901164 0.694283 0.551466 -0.543535
O37   O     O_3   0.768447 0.841112 0.987571 -0.601740
H17   H     H_    0.793067 0.862086 0.954812 0.309044
O38   O     O_3   0.243724 0.199000 0.983618 -0.610047
H18   H     H_    0.221949 0.197955 0.021972 0.292013
O39   O     O_3   0.231554 0.341174 0.512429 -0.601747
H19   H     H_    0.206936 0.362187 0.545187 0.309034
O40   O     O_3   0.756277 0.698986 0.516378 -0.610049
H20   H     H_    0.778053 0.697933 0.478023 0.292016
O41   O     O_3   0.647533 0.374563 0.927217 -0.585303
H21   H     H_    0.633931 0.406919 0.871746 0.316395
O42   O     O_3   0.359851 0.588167 0.014168 -0.584697
H22   H     H_    0.379351 0.473025 0.026484 0.309643
O43   O     O_3   0.352467 0.874577 0.572771 -0.585303
H23   H     H_    0.366068 0.906929 0.628242 0.316397
O44   O     O_3   0.640149 0.088174 0.485829 -0.584699
H24   H     H_    0.620649 0.973033 0.473512 0.309643
C93   C     C_2   0.146220 0.932739 0.684340 0.454328
H25   H     H_    0.159049 0.803906 0.662899 0.107094
O45   O     O_2   0.112443 0.014779 0.643006 -0.544890
C94   C     C_2   0.844446 0.008672 0.309560 0.400842
H26   H     H_    0.829362 0.123399 0.337624 0.076204
O46   O     O_2   0.875938 0.912305 0.349190 -0.520393
C95   C     C_2   0.853779 0.432756 0.815663 0.454312
H27   H     H_    0.840948 0.303928 0.837107 0.107103
O47   O     O_2   0.887556 0.514797 0.856995 -0.544891
C96   C     C_2   0.155553 0.508622 0.190431 0.400840
H28   H     H_    0.170639 0.623332 0.162358 0.076203
O48   O     O_2   0.124058 0.412255 0.150807 -0.520395
C97   C     C_2   0.253477 0.931211 0.729746 0.461287
H29   H     H_    0.288814 0.870854 0.753399 0.062721
O49   O     O_2   0.241202 0.946714 0.658498 -0.489066
C98   C     C_2   0.740823 0.037249 0.245541 0.459861
H30   H     H_    0.750032 0.011414 0.308307 0.053997
O50   O     O_2   0.702327 0.115034 0.219257 -0.504564
C99   C     C_2   0.746522 0.431233 0.770255 0.461292
H31   H     H_    0.711185 0.370873 0.746603 0.062719
O51   O     O_2   0.758797 0.446746 0.841503 -0.489064
C100  C     C_2   0.259176 0.537204 0.254445 0.459866
H32   H     H_    0.249968 0.511337 0.191681 0.053995
O52   O     O_2   0.297671 0.615003 0.280723 -0.504563
O53   O     O_3   0.546922 0.395661 0.869927 -0.649167
H33   H     H_    0.564292 0.515025 0.883767 0.297604
O54   O     O_3   0.458896 0.616340 0.090710 -0.645263
H34   H     H_    0.433190 0.592246 0.121240 0.324059
O55   O     O_3   0.453078 0.895672 0.630064 -0.649167
H35   H     H_    0.435708 0.015035 0.616224 0.297605
O56   O     O_3   0.541106 0.116351 0.409284 -0.645263
H36   H     H_    0.566811 0.092257 0.378755 0.324058

loop_
_geom_bond_atom_site_label_1
_geom_bond_atom_site_label_2
_ccdc_geom_bond_type
O17   V3    S    
C67   C71   A    
O1    C5    A    
C100  H32   S    
C23   C27   A    
O19   V1    S    
O13   V1    S    
C93   H25   S    
O3    C7    A    
O42   H22   S    
C68   C72   A    
C12   C88   S    
C48   C52   A    
C21   C37   A    
O41   H21   S    
C87   H11   S    
C95   O47   D    
C97   H29   S    
O7    C3    A    
C51   O43   S    
O43   H23   S    
C25   C57   A    
C32   C36   A    
O9    V1    S    
C91   O35   D    
N4    C40   S    
C80   H4    S    
N4    C20   A    
C89   O33   D    
C22   C26   A    
C34   O38   S    
O4    C8    A    
C50   O42   S    
C64   C67   A    
C49   C81   A    
O1    V3    S    
C84   O56   S    
C98   H30   S    
O2    V4    S    
C51   C83   A    
C65   C82   A    
O3    V1    S    
C16   N4    A    
C33   O37   S    
C61   C73   A    
C67   C84   A    
C56   C79   A    
C1    O15   A    
O39   H19   S    
C62   C74   A    
C91   H15   S    
C63   C71   A    
C86   H10   S    
C24   C40   A    
O2    C6    A    
C16   C48   A    
O14   V2    S    
C45   C49   A    
C36   O40   S    
C44   C56   A    
C36   C40   A    
C25   C94   S    
C44   C71   A    
O11   C7    A    
C17   O26   S    
C64   C76   A    
O15   V3    S    
O56   H36   S    
O12   C8    A    
C52   C84   A    
C93   O45   D    
C31   C59   A    
C86   O30   D    
C75   C79   A    
O10   V2    S    
C1    C60   S    
C31   C91   S    
C29   C57   A    
N2    C18   A    
C96   H28   S    
O5    V1    S    
C28   C60   A    
C31   C35   A    
O7    V3    S    
C30   C34   A    
C79   H3    S    
O8    V4    S    
C23   C100  S    
C17   C53   A    
C4    C57   S    
C20   C56   A    
C54   C77   A    
C90   O34   D    
C53   C78   A    
C97   O49   D    
C2    O16   A    
O44   H24   S    
C21   C25   A    
C63   C68   A    
C15   O23   S    
C55   C80   A    
C14   C46   A    
C62   C65   A    
C7    C9    S    
C66   C70   A    
N1    C37   S    
C8    C10   S    
C24   C28   A    
C32   C92   S    
C11   C12   D    
C15   C47   A    
C61   C69   A    
O5    C1    A    
C29   C33   A    
C46   C50   A    
C65   C69   A    
C96   O48   D    
O40   H20   S    
C22   C38   A    
C24   C99   S    
N1    C17   A    
O8    C4    A    
N3    C39   S    
C26   C93   S    
C9    C10   D    
C22   C97   S    
O9    C5    A    
C35   O39   S    
C68   C83   A    
C27   C59   A    
C76   H8    S    
C82   O54   S    
C26   C58   A    
C41   C53   A    
C63   C75   A    
C42   C69   A    
C5    C11   S    
C29   C89   S    
C41   C70   A    
O6    V2    S    
C2    C59   S    
C19   C55   A    
C43   C72   A    
C88   O32   D    
C92   O36   D    
C21   C98   S    
O12   V4    S    
C50   C82   A    
C13   N1    A    
N2    C38   S    
C94   H26   S    
C66   C81   A    
C15   N3    A    
C85   H9    S    
O16   V4    S    
C20   O27   S    
C9    C85   S    
C87   O31   D    
C73   C77   A    
C3    O13   A    
C100  O52   D    
C83   O55   S    
C49   O41   S    
C27   C96   S    
C11   C87   S    
C44   C48   A    
C30   C90   S    
C90   H14   S    
O6    C2    A    
N3    C19   A    
O11   V3    S    
O18   V4    S    
C42   C54   A    
C6    C12   S    
C74   H6    S    
C19   O28   S    
C73   H5    S    
C18   O25   S    
O10   C6    A    
C64   C72   A    
C75   H7    S    
C99   H31   S    
C95   H27   S    
C89   H13   S    
C78   H2    S    
C14   N2    A    
C47   C51   A    
C3    C58   S    
C77   H1    S    
C34   C38   A    
C13   C45   A    
C33   C37   A    
C30   C58   A    
O20   V2    S    
C94   O46   D    
C98   O50   D    
C35   C39   A    
C13   O21   S    
O55   H35   S    
O4    V2    S    
C99   O51   D    
C81   O53   S    
C88   H12   S    
C18   C54   A    
C10   C86   S    
O54   H34   S    
C14   O22   S    
C76   C80   A    
C16   O24   S    
C62   C70   A    
C74   C78   A    
O53   H33   S    
C42   C46   A    
C4    O14   A    
O38   H18   S    
C52   O44   S    
C28   C95   S    
C41   C45   A    
C92   H16   S    
C32   C60   A    
O37   H17   S    
C43   C47   A    
C61   C66   A    
C23   C39   A    
C43   C55   A    
C85   O29   D    
