data_str_m3_o14_o26_f0_pcu.sym.99
_audit_creation_date              2012-12-10T17:51:34-0500
_audit_creation_method            fapswitch 2.2
_symmetry_space_group_name_H-M    P1
_symmetry_Int_Tables_number       1
_space_group_crystal_system       triclinic
_cell_length_a                    9.936516
_cell_length_b                    10.597938
_cell_length_c                    16.657395
_cell_angle_alpha                 92.027055
_cell_angle_beta                  87.445511
_cell_angle_gamma                 88.770946
_cell_volume                      1750.82779146

loop_
_atom_site_label
_atom_site_type_symbol
_atom_type_description
_atom_site_fract_x
_atom_site_fract_y
_atom_site_fract_z
_atom_type_partial_charge
C1    C     C_R   0.499125 0.739128 0.497117 0.904102
C2    C     C_R   0.520420 0.442476 0.263602 -0.063673
C3    C     C_R   0.364502 0.864863 0.369177 -0.180756
C4    C     C_R   0.484335 0.496411 0.653130 0.905675
C5    C     C_R   0.299362 0.928602 0.309115 0.165958
C6    C     C_R   0.305958 0.060144 0.307465 -0.163572
C7    C     C_R   0.374833 0.126992 0.365711 -0.203671
C8    C     C_R   0.436538 0.063668 0.428268 0.090662
C9    C     C_R   0.432489 0.931840 0.429576 0.046846
C10   C     C_R   0.498419 0.871311 0.491460 -0.091765
C11   C     C_R   0.569669 0.936996 0.548875 -0.175276
C12   C     C_R   0.365574 0.490571 0.787148 -0.180777
C13   C     C_R   0.572799 0.065464 0.547895 -0.208575
C14   C     C_R   0.504630 0.127935 0.489467 -0.089551
C15   C     C_R   0.844485 0.629395 0.622661 -0.177407
C16   C     C_R   0.501499 0.260625 0.496507 0.863630
C17   C     C_R   0.901609 0.665496 0.694432 0.075869
C18   C     C_R   0.040750 0.655753 0.698933 -0.312623
C19   C     C_R   0.120219 0.632047 0.628118 -0.017472
C20   C     C_R   0.064550 0.564283 0.562072 0.105164
C21   C     C_R   0.920469 0.563157 0.561197 0.139852
C22   C     C_R   0.934589 0.439029 0.441285 -0.091533
C23   C     C_R   0.400094 0.351875 0.153710 -0.181720
C24   C     C_R   0.077486 0.439132 0.441240 -0.100917
C25   C     C_R   0.516256 0.491044 0.346858 0.832764
C26   C     C_R   0.483699 0.475523 0.739057 -0.064262
C27   C     C_R   0.603745 0.434301 0.772354 -0.242252
C28   C     C_R   0.608345 0.409311 0.853980 0.120097
C29   C     C_R   0.487342 0.425559 0.901647 0.157959
C30   C     C_R   0.368010 0.467139 0.868371 -0.198592
C31   C     C_2   0.778156 0.304584 0.108920 0.873597
C32   C     C_3   0.219435 0.856075 0.248752 -0.431644
C33   C     C_3   0.311296 0.773793 0.190875 -0.346942
C34   C     C_R   0.398978 0.413662 0.228092 -0.224999
C35   C     C_3   0.228551 0.697771 0.132078 -0.850927
C36   C     C_3   0.816566 0.729998 0.761780 -0.421275
C37   C     C_3   0.828234 0.873907 0.759101 -0.327214
C38   C     C_3   0.738089 0.940920 0.824627 -0.856035
C39   C     C_2   0.208598 0.738970 0.614758 0.986864
C40   C     C_3   0.739451 0.368925 0.891335 -0.398796
C41   C     C_3   0.868308 0.371786 0.836756 -0.388566
C42   C     C_3   0.992870 0.338469 0.882824 -0.834498
C43   C     C_R   0.643364 0.404300 0.224520 -0.247091
C44   C     C_R   0.645948 0.342174 0.148856 0.013256
C45   C     C_R   0.522426 0.320833 0.112204 0.126765
C46   C     C_2   0.484983 0.416472 0.988388 -0.275516
C47   C     C_2   0.518299 0.310880 0.024958 -0.214012
H1    H     H_    0.693450 0.421006 0.733754 0.167312
H2    H     H_    0.085529 0.697600 0.751550 0.170298
H3    H     H_    0.135802 0.388973 0.393338 0.135461
H4    H     H_    0.737107 0.421014 0.253551 0.190163
H5    H     H_    0.547321 0.223750 0.991926 0.185432
H6    H     H_    0.276575 0.482158 0.905772 0.144845
H7    H     H_    0.305265 0.337760 0.125247 0.151340
H8    H     H_    0.272176 0.521346 0.762293 0.168259
H9    H     H_    0.454113 0.501168 0.023702 0.170427
H10   H     H_    0.978462 0.332593 0.099183 0.336255
H11   H     H_    0.161755 0.632544 0.165072 0.268354
H12   H     H_    0.620386 0.888526 0.595629 0.149342
H13   H     H_    0.166374 0.761891 0.096681 0.264393
H14   H     H_    0.297014 0.641064 0.089911 0.241294
H15   H     H_    0.380845 0.834925 0.156454 0.230916
H16   H     H_    0.372634 0.706998 0.224930 0.221743
H17   H     H_    0.146980 0.795756 0.281679 0.216523
H18   H     H_    0.159497 0.922190 0.213271 0.204289
H19   H     H_    0.630831 0.918250 0.816338 0.266823
H20   H     H_    0.767130 0.911597 0.884969 0.270147
H21   H     H_    0.749309 0.044689 0.821295 0.249299
H22   H     H_    0.934348 0.900840 0.767510 0.231275
H23   H     H_    0.360571 0.763068 0.367883 0.158251
H24   H     H_    0.798370 0.906334 0.699555 0.222390
H25   H     H_    0.709238 0.704187 0.756768 0.210983
H26   H     H_    0.849503 0.696963 0.820551 0.204183
H27   H     H_    0.233155 0.903530 0.559180 0.340802
H28   H     H_    0.005035 0.408330 0.933143 0.258225
H29   H     H_    0.984239 0.242615 0.907213 0.281540
H30   H     H_    0.083835 0.339674 0.841663 0.246827
H31   H     H_    0.861876 0.302070 0.785683 0.224932
H32   H     H_    0.880771 0.467467 0.812956 0.232328
H33   H     H_    0.753954 0.431633 0.945056 0.226441
H34   H     H_    0.257928 0.111392 0.260996 0.138723
H35   H     H_    0.728808 0.270655 0.910937 0.234103
H36   H     H_    0.379597 0.228202 0.360842 0.156381
H37   H     H_    0.624923 0.116650 0.594271 0.154665
H38   H     H_    0.886001 0.388752 0.393342 0.145001
H39   H     H_    0.742547 0.658443 0.615200 0.204334
H40   H     H_    0.302338 0.439094 0.257565 0.165708
N1    N     N_R   0.857140 0.501200 0.500750 -0.114864
N2    N     N_R   0.142740 0.501280 0.500770 -0.118775
O1    O     O_R   0.385310 0.683220 0.500000 -0.601487
O2    O     O_R   0.894697 0.366967 0.130236 -0.829850
O3    O     O_2   0.301006 0.759438 0.659286 -0.673435
O4    O     O_R   0.175379 0.825967 0.557138 -0.801338
O5    O     O_R   0.614640 0.683250 0.500010 -0.631789
O6    O     O_R   0.371780 0.500010 0.615800 -0.610892
O7    O     O_R   0.601110 0.500030 0.615800 -0.653708
O8    O     O_R   0.385360 0.316750 0.499990 -0.616832
O9    O     O_R   0.614690 0.316780 0.500000 -0.612528
O10   O     O_R   0.398890 0.499970 0.384200 -0.641146
O11   O     O_R   0.628220 0.499990 0.384200 -0.612712
O12   O     O_2   0.786188 0.217267 0.058858 -0.663354
Zn1   Zn    Zn3+2 0.346870 0.499980 0.499990 0.957894
Zn2   Zn    Zn3+2 0.653130 0.500020 0.500010 0.937655

loop_
_geom_bond_atom_site_label_1
_geom_bond_atom_site_label_2
_ccdc_geom_bond_type
C27   H1    S    
C7    H36   S    
C1    O1    A    
C23   C45   A    
C37   H22   S    
N2    Zn1   S    
C41   C42   S    
C19   C20   A    
C16   O9    A    
C24   N2    A    
C7    C8    A    
C13   H37   S    
C42   H28   S    
C37   C38   S    
C35   H11   S    
C31   O12   D    
C36   C37   S    
C33   H15   S    
C5    C6    A    
C16   O8    A    
C28   C40   S    
O9    Zn2   S    
C18   C19   A    
C22   H38   S    
O1    Zn1   S    
C4    O7    A    
C25   O10   A    
C39   O4    S    
C38   H19   S    
C1    O5    A    
C40   H33   S    
C17   C36   S    
C22   N1    A    
C9    C10   A    
O8    Zn1   S    
O6    Zn1   S    
C5    C32   S    
C2    C34   A    
C21   N1    A    
C6    H34   S    
C13   C14   A    
H27   O4    S    
C11   H12   S    
C45   C47   S    
C24   H3    S    
C30   H6    S    
C31   C44   S    
C40   H35   S    
C3    H23   S    
C32   H17   S    
C36   H26   S    
C41   H31   S    
C8    C9    A    
O11   Zn2   S    
C12   C26   A    
C35   H13   S    
C43   C44   A    
C29   C30   A    
C3    C9    A    
C4    O6    A    
C25   O11   A    
C2    C43   A    
C33   H16   S    
C23   C34   A    
C17   C18   A    
C26   C27   A    
C35   H14   S    
C38   H20   S    
C47   H5    S    
C19   C39   S    
C15   H39   S    
C40   C41   S    
C38   H21   S    
O5    Zn2   S    
C31   O2    S    
C37   H24   S    
C14   C16   S    
C39   O3    D    
N1    Zn2   S    
C44   C45   A    
C23   H7    S    
C15   C17   A    
C46   C47   D    
C28   C29   A    
C8    C14   A    
H10   O2    S    
C12   C30   A    
C1    C10   S    
C3    C5    A    
C41   H32   S    
C4    C26   S    
C6    C7    A    
C20   N2    A    
C42   H29   S    
C29   C46   S    
C32   C33   S    
C11   C13   A    
C43   H4    S    
C33   C35   S    
C2    C25   S    
C22   C24   A    
C34   H40   S    
C12   H8    S    
C10   C11   A    
C15   C21   A    
O10   Zn1   S    
C20   C21   A    
C42   H30   S    
O7    Zn2   S    
C46   H9    S    
C27   C28   A    
C36   H25   S    
C18   H2    S    
C32   H18   S    
