data_str_m12_o9_o10_f0_bcu.sym.5
_audit_creation_date              2013-03-05T15:57:25-0500
_audit_creation_method            fapswitch 2.2
_symmetry_space_group_name_H-M    P1
_symmetry_Int_Tables_number       1
_space_group_crystal_system       triclinic
_cell_length_a                    13.056639
_cell_length_b                    13.09264
_cell_length_c                    15.277822
_cell_angle_alpha                 116.529317
_cell_angle_beta                  63.466162
_cell_angle_gamma                 96.776086
_cell_volume                      2079.68899099

loop_
_atom_site_label
_atom_site_type_symbol
_atom_site_description
_atom_site_fract_x
_atom_site_fract_y
_atom_site_fract_z
_atom_type_partial_charge
C1    C     C_R   0.007036 0.833768 0.046989 0.277889
N1    N     N_R   0.037320 0.720000 0.995830 -0.059411
C2    C     C_R   0.679004 0.475085 0.222917 -0.108991
H1    H     H_    0.608810 0.444658 0.201845 0.109366
N2    N     N_R   0.790770 0.446140 0.151990 -0.041887
C3    C     C_R   0.755734 0.521011 0.893614 -0.153573
H2    H     H_    0.778243 0.550215 0.831847 0.108315
N3    N     N_R   0.824900 0.517970 0.936430 -0.047549
C4    C     C_R   0.023705 0.690927 0.297894 0.300139
N4    N     N_R   0.003190 0.648180 0.211390 -0.057574
C5    C     C_R   0.676626 0.423466 0.991297 -0.124556
H3    H     H_    0.629615 0.362445 0.019923 0.101208
N5    N     N_R   0.774330 0.457010 0.995830 -0.046648
C6    C     C_R   0.097184 0.795936 0.208498 -0.201732
H4    H     H_    0.151805 0.849522 0.176485 0.141017
N6    N     N_R   0.053760 0.709130 0.151980 -0.054581
C7    C     C_R   0.782861 0.565087 0.314466 -0.118360
H5    H     H_    0.809477 0.623104 0.375249 0.128667
N7    N     N_R   0.853840 0.498830 0.211390 -0.044221
C8    C     C_R   0.899038 0.748198 0.959680 -0.095901
H6    H     H_    0.832248 0.731727 0.933215 0.135244
N8    N     N_R   0.974250 0.667320 0.936430 -0.056086
C9    C     C_R   0.915819 0.853417 0.030890 0.072467
C10   C     C_R   0.672101 0.550174 0.326113 0.041527
C11   C     C_R   0.662632 0.461823 0.926849 0.154158
C12   C     C_R   0.080781 0.786718 0.299993 0.031390
C13   C     C_R   0.338366 0.516663 0.950371 -0.127239
H7    H     H_    0.396712 0.555294 0.899932 0.091222
N9    N     N_R   0.225670 0.542990 0.004170 -0.043655
C14   C     C_R   0.989235 0.182413 0.784263 -0.076540
H8    H     H_    0.977087 0.118369 0.812145 0.121613
N10   N     N_R   0.946240 0.290870 0.848020 -0.047960
C15   C     C_R   0.193437 0.517505 0.698977 -0.103077
H9    H     H_    0.147850 0.504648 0.651718 0.134714
N11   N     N_R   0.146160 0.501170 0.788610 -0.045786
C16   C     C_R   0.046229 0.259194 0.094413 -0.089291
H10   H     H_    0.082459 0.280622 0.151002 0.132014
N12   N     N_R   0.025750 0.332680 0.063570 -0.052066
C17   C     C_R   0.942993 0.176981 0.004165 -0.123236
H11   H     H_    0.883475 0.122550 0.977838 0.107701
N13   N     N_R   0.962680 0.280000 0.004170 -0.047605
C18   C     C_R   0.295246 0.598682 0.791943 -0.124635
H12   H     H_    0.346062 0.657883 0.827660 0.091060
N14   N     N_R   0.209230 0.553860 0.848010 -0.042485
C19   C     C_R   0.259503 0.416596 0.047329 -0.129069
H13   H     H_    0.248728 0.361755 0.086006 0.144440
N15   N     N_R   0.175100 0.482030 0.063570 -0.046450
C20   C     C_R   0.059793 0.277737 0.683915 -0.154526
H14   H     H_    0.103722 0.300452 0.617108 0.108941
N16   N     N_R   0.996810 0.351820 0.788610 -0.041558
Ni1   Ni    Ni4+2 0.130310 0.630310 0.000000 0.212339
Ni2   Ni    Ni4+2 0.869690 0.369690 0.000000 0.229064
Ni3   Ni    Ni4+2 0.985660 0.509480 0.863750 0.230734
Ni4   Ni    Ni4+2 0.014340 0.490520 0.136250 0.210800
C21   C     C_R   0.362530 0.435746 0.974880 0.156700
C22   C     C_R   0.054072 0.168680 0.679154 0.051542
C23   C     C_R   0.288789 0.577738 0.696843 0.069340
C24   C     C_R   0.996237 0.159520 0.057867 0.101474
H15   H     H_    0.442512 0.859386 0.968676 0.151193
C25   C     C_R   0.411043 0.812160 0.095361 -0.095540
H16   H     H_    0.467631 0.733148 0.039770 0.138496
C26   C     C_R   0.350055 0.840180 0.206273 -0.119273
H17   H     H_    0.357169 0.780432 0.235007 0.125961
C27   C     C_R   0.272266 0.939637 0.277828 0.079193
C28   C     C_R   0.261530 0.013839 0.237912 -0.350798
H18   H     H_    0.193007 0.083038 0.289711 0.149612
C29   C     C_R   0.324407 0.987485 0.126830 0.465792
C30   C     C_R   0.396547 0.884087 0.055383 -0.141593
C31   C     C_R   0.171462 0.046007 0.481403 -0.237946
H19   H     H_    0.229551 0.111745 0.477962 0.130143
C32   C     C_R   0.082065 0.058628 0.582319 0.094550
C33   C     C_R   0.010442 0.969178 0.586687 0.151246
C34   C     C_R   0.020673 0.878094 0.492297 -0.211368
H20   H     H_    0.954627 0.820014 0.499354 0.142938
C35   C     C_R   0.101538 0.869505 0.391516 0.044088
C36   C     C_R   0.182896 0.950371 0.384815 0.060583
C37   C     C_R   0.925529 0.905700 0.735544 0.339211
C38   C     C_R   0.831391 0.909984 0.829754 -0.484767
H21   H     H_    0.840318 0.862647 0.868554 0.207020
C39   C     C_R   0.727876 0.977252 0.876764 0.352232
C40   C     C_R   0.715337 0.035829 0.822953 0.151303
C41   C     C_R   0.808700 0.030284 0.727325 -0.265367
H22   H     H_    0.800520 0.075163 0.685511 0.161132
C42   C     C_R   0.914181 0.969274 0.685641 -0.121592
H23   H     H_    0.880927 0.490243 0.603685 0.133796
C43   C     C_R   0.776627 0.438775 0.516829 0.370997
C44   C     C_R   0.698414 0.477520 0.495793 -0.158145
H24   H     H_    0.659747 0.415906 0.446422 0.125073
C45   C     C_R   0.666528 0.595540 0.541182 0.053103
C46   C     C_R   0.713312 0.674795 0.608676 -0.192036
H25   H     H_    0.687568 0.765863 0.646678 0.141602
C47   C     C_R   0.791086 0.636071 0.629863 -0.165845
H26   H     H_    0.826159 0.696550 0.682638 0.170114
C48   C     C_R   0.822100 0.518777 0.584860 -0.166071
C49   C     C_R   0.466299 0.662930 0.624857 -0.187704
H27   H     H_    0.470854 0.693427 0.701166 0.126638
C50   C     C_R   0.367882 0.616569 0.613875 0.083324
C51   C     C_R   0.365004 0.585230 0.513058 0.070120
C52   C     C_R   0.462094 0.594059 0.427914 -0.205867
H28   H     H_    0.459140 0.570225 0.351464 0.129655
C53   C     C_R   0.568158 0.598697 0.430454 0.047437
C54   C     C_R   0.570241 0.632156 0.531663 0.025070
C55   C     C_R   0.315064 0.387970 0.442529 -0.171665
H29   H     H_    0.388798 0.360002 0.444206 0.128288
C56   C     C_R   0.245126 0.307706 0.408418 -0.071661
H30   H     H_    0.265993 0.219767 0.385224 0.119918
C57   C     C_R   0.149623 0.341836 0.405819 -0.039256
H31   H     H_    0.095492 0.278778 0.379098 0.114184
C58   C     C_R   0.124931 0.457348 0.436918 -0.168228
H32   H     H_    0.051568 0.483009 0.433947 0.146378
C59   C     C_R   0.194699 0.539111 0.472180 -0.088389
H33   H     H_    0.175399 0.628440 0.496060 0.178921
C60   C     C_R   0.288609 0.504301 0.477179 0.064875
C61   C     C_2   0.476206 0.396914 0.948553 -0.178896
H34   H     H_    0.479230 0.351548 0.991828 0.145679
C62   C     C_2   0.568243 0.441698 0.897876 -0.223466
H35   H     H_    0.566262 0.483953 0.851648 0.137784
C63   C     C_2   0.841220 0.961540 0.088154 -0.164066
H36   H     H_    0.800963 0.980061 0.048108 0.187154
C64   C     C_2   0.814915 0.035308 0.191795 -0.110573
H37   H     H_    0.848379 0.020644 0.239107 0.133864
C65   C     C_3   0.083933 0.921887 0.077357 -0.928780
H38   H     H_    0.092355 0.982053 0.042329 0.279042
H39   H     H_    0.049178 0.971093 0.167251 0.227176
H40   H     H_    0.171446 0.879183 0.039894 0.242316
N17   N     N_R   0.307573 0.060498 0.085644 0.238681
O1    O     O_R   0.335124 0.021116 0.982431 -0.443759
O2    O     O_R   0.258072 0.164708 0.151863 -0.440869
N18   N     N_R   0.031667 0.839577 0.694379 0.233311
O3    O     O_R   0.030392 0.754993 0.717626 -0.453703
O4    O     O_R   0.130666 0.870290 0.643743 -0.412767
N19   N     N_R   0.638281 0.984932 0.978800 0.225779
O5    O     O_R   0.574253 0.080942 0.052812 -0.412555
O6    O     O_R   0.635792 0.903658 0.006456 -0.461356
C66   C     C_3   0.602977 0.099091 0.861922 -0.809736
H41   H     H_    0.607708 0.134071 0.806157 0.221530
H42   H     H_    0.535806 0.039016 0.864933 0.283831
H43   H     H_    0.578436 0.172285 0.943529 0.260593
C67   C     C_3   0.809745 0.312862 0.469258 -1.063519
H44   H     H_    0.902999 0.292849 0.413307 0.247928
H45   H     H_    0.790495 0.288719 0.535695 0.257859
H46   H     H_    0.762127 0.260271 0.422189 0.261016
C68   C     C_3   0.036621 0.615482 0.343774 -1.071210
H47   H     H_    0.112766 0.634545 0.360759 0.263301
H48   H     H_    0.958751 0.628221 0.419955 0.251400
H49   H     H_    0.049074 0.523742 0.284595 0.257097

loop_
_geom_bond_atom_site_label_1
_geom_bond_atom_site_label_2
_geom_bond_distance
_ccdc_geom_bond_type
C66   H43   1.106192 S    
C44   H24   1.084036 S    
N17   O1    1.300943 A    
C39   N19   1.437744 S    
C45   C54   1.483006 S    
C13   N9    1.321184 A    
C34   C35   1.385288 A    
C34   H20   1.081165 S    
C49   H27   1.078257 S    
N6    Ni1   1.866731 S    
C9    C63   1.475034 S    
C61   H34   1.082183 S    
C4    C68   1.502962 S    
C66   H41   1.110985 S    
C17   N13   1.342914 A    
C37   C38   1.396101 A    
C56   C57   1.395616 A    
C53   C54   1.418876 A    
N9    N15   1.372531 A    
C16   H10   1.080441 S    
C55   C60   1.399939 A    
C10   C53   1.467133 S    
C16   C24   1.383659 A    
C58   C59   1.399691 A    
C14   H8    1.066316 S    
C67   H46   1.110813 S    
C38   C39   1.402414 A    
C3    C11   1.383386 A    
N11   Ni3   1.874579 S    
C5    C11   1.370837 A    
C68   H47   1.110022 S    
C50   C51   1.423269 A    
C5    N5    1.320831 A    
C62   H35   1.083651 S    
C31   C36   1.401565 A    
C25   C26   1.395716 A    
C1    N1    1.344913 A    
C31   C32   1.406009 A    
C63   H36   1.076726 S    
N10   Ni2   1.866732 S    
C26   C27   1.403813 A    
C43   C48   1.400707 A    
C15   N11   1.333135 A    
C1    C65   1.489646 S    
C68   H48   1.107033 S    
C59   H33   1.081996 S    
N19   O5    1.300488 A    
C28   C29   1.404307 A    
N1    N8    1.397109 A    
C15   C23   1.388509 A    
C57   H31   1.080182 S    
N2    Ni2   1.866818 S    
C4    N4    1.323531 A    
N13   Ni2   1.824693 S    
C49   C54   1.386189 A    
C20   N16   1.342602 A    
C66   H42   1.106098 S    
C57   C58   1.397561 A    
C2    C10   1.403448 A    
C18   N14   1.331697 A    
C18   C23   1.393315 A    
C4    C12   1.376280 A    
C40   C66   1.502860 S    
N8    Ni3   1.844113 S    
C19   N15   1.341103 A    
C7    C10   1.376831 A    
C29   C30   1.404845 A    
N16   Ni3   1.845177 S    
N12   N13   1.397108 A    
C59   C60   1.401285 A    
C11   C62   1.445930 S    
C17   H11   1.079841 S    
C38   H21   1.075192 S    
C39   C40   1.415610 A    
C51   C60   1.462315 S    
C3    N3    1.343347 A    
C37   C42   1.411715 A    
C19   H13   1.079536 S    
C17   C24   1.386847 A    
C14   C22   1.375175 A    
C41   H22   1.084370 S    
C40   C41   1.400239 A    
C25   H16   1.082692 S    
C35   C36   1.412119 A    
C26   H17   1.083342 S    
H15   C30   1.082763 S    
N5    Ni2   1.825689 S    
H23   C48   1.083187 S    
C46   C47   1.398124 A    
C52   H28   1.083927 S    
N12   Ni4   1.844113 S    
C8    C9    1.390063 A    
C67   H44   1.107767 S    
C22   C32   1.461272 S    
C23   C50   1.487920 S    
C47   C48   1.396355 A    
C7    H5    1.075172 S    
C27   C36   1.477324 S    
C55   C56   1.385380 A    
C37   N18   1.443432 S    
C6    C12   1.375329 A    
N11   N14   1.397126 A    
N10   N16   1.372532 A    
C33   C42   1.471814 S    
C43   C67   1.499998 S    
N15   Ni4   1.874432 S    
N7    Ni4   1.874580 S    
N19   O6    1.301174 A    
C20   H14   1.080303 S    
C52   C53   1.396088 A    
C8    N8    1.345199 A    
C1    C9    1.391289 A    
C41   C42   1.400689 A    
C44   C45   1.406584 A    
C6    N6    1.329446 A    
C29   N17   1.438240 S    
C68   H49   1.109604 S    
C65   H39   1.108560 S    
C2    H1    1.079438 S    
C13   H7    1.078302 S    
C64   H37   1.084515 S    
N14   Ni1   1.866819 S    
N18   O3    1.301740 A    
N9    Ni1   1.825689 S    
C20   C22   1.391598 A    
N17   O2    1.301386 A    
C43   C44   1.401635 A    
C33   C34   1.359701 A    
C2    N2    1.340967 A    
N3    Ni3   1.874433 S    
C61   C62   1.339892 D    
C5    H3    1.078365 S    
C49   C50   1.401921 A    
C3    H2    1.082163 S    
N2    N7    1.397125 A    
C21   C61   1.444016 S    
C56   H30   1.071776 S    
C25   C30   1.398169 A    
C27   C28   1.404665 A    
C65   H40   1.107410 S    
C16   N12   1.340700 A    
C45   C46   1.403758 A    
C32   C33   1.416387 A    
N4    N6    1.372531 A    
C58   H32   1.077453 S    
C14   N10   1.320712 A    
C67   H45   1.110528 S    
C46   H25   1.083291 S    
C47   H26   1.077400 S    
C7    N7    1.325429 A    
C15   H9    1.075030 S    
C13   C21   1.378736 A    
C28   H18   1.079705 S    
C31   H19   1.081448 S    
N4    Ni4   1.845177 S    
C63   C64   1.335745 D    
N1    Ni1   1.824693 S    
N3    N5    1.372532 A    
C8    H6    1.078527 S    
C19   C21   1.391243 A    
C12   C35   1.455617 S    
C51   C52   1.392446 A    
C18   H12   1.078454 S    
C55   H29   1.084060 S    
C6    H4    1.056814 S    
C65   H38   1.105714 S    
N18   O4    1.301072 A    
