data_str_m4_o22_o24_f0_acs.sym.112
_audit_creation_date              2012-12-11T15:08:38-0500
_audit_creation_method            fapswitch 2.2
_symmetry_space_group_name_H-M    P1
_symmetry_Int_Tables_number       1
_space_group_crystal_system       triclinic
_cell_length_a                    19.576883
_cell_length_b                    11.29004
_cell_length_c                    18.694411
_cell_angle_alpha                 90.143492
_cell_angle_beta                  90.134377
_cell_angle_gamma                 89.999596
_cell_volume                      4131.88528955

loop_
_atom_site_label
_atom_site_type_symbol
_atom_type_description
_atom_site_fract_x
_atom_site_fract_y
_atom_site_fract_z
_atom_type_partial_charge
C1    C     C_R   0.272596 0.043385 0.854041 0.534460
C2    C     C_R   0.728267 0.044940 0.146710 0.530516
C3    C     C_R   0.772596 0.543385 0.854041 0.534461
C4    C     C_R   0.228267 0.544940 0.146711 0.530515
C5    C     C_3   0.524006 0.734220 0.961311 -0.167226
C6    C     C_3   0.484150 0.722902 0.031714 -0.160507
C7    C     C_3   0.024008 0.234225 0.961310 -0.167229
C8    C     C_3   0.984152 0.222904 0.031713 -0.160508
C9    C     C_3   0.315140 0.532803 0.045487 -0.234984
C10   C     C_3   0.686856 0.530427 0.954926 -0.233369
C11   C     C_3   0.815141 0.032805 0.045488 -0.234986
C12   C     C_3   0.186856 0.030428 0.954926 -0.233368
C13   C     C_3   0.325502 0.560666 0.965117 -0.234190
C14   C     C_3   0.675554 0.560066 0.034752 -0.234217
C15   C     C_3   0.825504 0.060669 0.965117 -0.234190
C16   C     C_3   0.175554 0.060069 0.034751 -0.234215
C17   C     C_3   0.184624 0.526706 0.025777 -0.190226
C18   C     C_3   0.817635 0.525950 0.975327 -0.201396
C19   C     C_3   0.684625 0.026705 0.025776 -0.190223
C20   C     C_3   0.317634 0.025948 0.975327 -0.201398
C21   C     C_3   0.243591 0.711091 0.058286 -0.263220
C22   C     C_3   0.757684 0.709498 0.942100 -0.258302
C23   C     C_3   0.743591 0.211092 0.058286 -0.263222
C24   C     C_3   0.257685 0.209498 0.942100 -0.258303
C25   C     C_3   0.244050 0.577880 0.071546 0.053818
C26   C     C_3   0.757797 0.576035 0.929228 0.063269
C27   C     C_3   0.744050 0.077880 0.071546 0.053819
C28   C     C_3   0.257797 0.076035 0.929228 0.063271
C29   C     C_3   0.258863 0.614155 0.933493 0.041496
C30   C     C_3   0.741710 0.614529 0.066613 0.038409
C31   C     C_3   0.758864 0.114156 0.933493 0.041494
C32   C     C_3   0.241710 0.114528 0.066613 0.038413
C33   C     C_3   0.202648 0.523469 0.945819 -0.240536
C34   C     C_3   0.799081 0.525762 0.055004 -0.243145
C35   C     C_3   0.702651 0.023467 0.945819 -0.240533
C36   C     C_3   0.299080 0.025759 0.055004 -0.243152
C37   C     C_3   0.240654 0.729013 0.976158 -0.228461
C38   C     C_3   0.759773 0.729045 0.024062 -0.228955
C39   C     C_3   0.740653 0.229014 0.976157 -0.228466
C40   C     C_3   0.259774 0.229044 0.024063 -0.228954
C41   C     C_3   0.497746 0.698700 0.459677 -0.236460
C42   C     C_3   0.502411 0.698601 0.540107 -0.236988
C43   C     C_3   0.997745 0.198701 0.459676 -0.236460
C44   C     C_3   0.002410 0.198601 0.540106 -0.236987
C45   C     C_R   0.445813 0.818919 0.862365 0.537186
C46   C     C_R   0.556444 0.816824 0.137827 0.553711
C47   C     C_R   0.945814 0.318919 0.862365 0.537180
C48   C     C_R   0.056444 0.316824 0.137827 0.553704
C49   C     C_3   0.567144 0.888354 0.473214 -0.226647
C50   C     C_3   0.433086 0.888268 0.527119 -0.226637
C51   C     C_3   0.067145 0.388353 0.473214 -0.226645
C52   C     C_3   0.933086 0.388271 0.527118 -0.226637
C53   C     C_3   0.445939 0.898632 0.445841 -0.257789
C54   C     C_3   0.554302 0.898389 0.554564 -0.257807
C55   C     C_3   0.945940 0.398635 0.445840 -0.257790
C56   C     C_3   0.054303 0.398387 0.554564 -0.257808
C57   C     C_3   0.509480 0.827231 0.430544 0.062643
C58   C     C_3   0.490719 0.827030 0.569601 0.063193
C59   C     C_3   0.009480 0.327231 0.430544 0.062642
C60   C     C_3   0.990719 0.327030 0.569601 0.063193
C61   C     C_3   0.182282 0.658154 0.458653 -0.238507
C62   C     C_3   0.817693 0.657798 0.541494 -0.238460
C63   C     C_3   0.682282 0.158154 0.458653 -0.238505
C64   C     C_3   0.317692 0.157799 0.541495 -0.238463
C65   C     C_3   0.180973 0.652148 0.539104 -0.236443
C66   C     C_3   0.818947 0.652151 0.460983 -0.236998
C67   C     C_3   0.680973 0.152150 0.539104 -0.236439
C68   C     C_3   0.318947 0.152150 0.460983 -0.237001
C69   C     C_3   0.241898 0.459136 0.472662 -0.227876
C70   C     C_3   0.758303 0.458728 0.526464 -0.229556
C71   C     C_3   0.741897 0.959135 0.472661 -0.227872
C72   C     C_3   0.258304 0.958729 0.526464 -0.229558
C73   C     C_3   0.307980 0.634422 0.443219 -0.257209
C74   C     C_3   0.691970 0.633367 0.557066 -0.256615
C75   C     C_3   0.807980 0.134422 0.443220 -0.257212
C76   C     C_3   0.191969 0.133366 0.557066 -0.256613
C77   C     C_3   0.240027 0.575382 0.429433 0.066080
C78   C     C_3   0.760065 0.574641 0.570416 0.065990
C79   C     C_3   0.740027 0.075382 0.429433 0.066080
C80   C     C_3   0.260065 0.074642 0.570416 0.065990
C81   C     C_3   0.251614 0.606268 0.567727 0.065444
C82   C     C_3   0.748236 0.606662 0.432300 0.064990
C83   C     C_3   0.751613 0.106266 0.567727 0.065443
C84   C     C_3   0.248235 0.106663 0.432301 0.064991
C85   C     C_3   0.255642 0.474958 0.553322 -0.259028
C86   C     C_3   0.743999 0.475246 0.446014 -0.257861
C87   C     C_3   0.755638 0.974956 0.553323 -0.259030
C88   C     C_3   0.243997 0.975247 0.446014 -0.257858
C89   C     C_R   0.263692 0.645664 0.856079 0.532914
C90   C     C_R   0.736188 0.646344 0.143805 0.536855
C91   C     C_R   0.763692 0.145666 0.856079 0.532916
C92   C     C_R   0.236188 0.146343 0.143805 0.536855
C93   C     C_3   0.310264 0.661859 0.524052 -0.229824
C94   C     C_3   0.689772 0.662188 0.476519 -0.231408
C95   C     C_3   0.810265 0.161853 0.524053 -0.229820
C96   C     C_3   0.189772 0.162192 0.476520 -0.231409
C97   C     C_R   0.273306 0.043828 0.646066 0.541447
C98   C     C_R   0.726865 0.044460 0.353725 0.540774
C99   C     C_R   0.773306 0.543828 0.646066 0.541447
C100  C     C_R   0.226865 0.544460 0.353725 0.540775
C101  C     C_R   0.469667 0.822726 0.645982 0.544558
C102  C     C_R   0.530415 0.822854 0.354093 0.548110
C103  C     C_R   0.969667 0.322726 0.645982 0.544557
C104  C     C_R   0.030415 0.322854 0.354093 0.548107
C105  C     C_R   0.260714 0.639937 0.643836 0.541810
C106  C     C_R   0.739148 0.640497 0.356307 0.544880
C107  C     C_R   0.760714 0.139936 0.643836 0.541810
C108  C     C_R   0.239148 0.140497 0.356307 0.544881
C109  C     C_3   0.479561 0.914813 0.039506 0.307967
C110  C     C_3   0.519033 0.928055 0.968939 0.269022
C111  C     C_3   0.979562 0.414815 0.039505 0.307993
C112  C     C_3   0.019034 0.428059 0.968939 0.269018
C113  C     C_3   0.433646 0.817926 0.006037 -0.167916
C114  C     C_3   0.569506 0.831034 0.994444 -0.167971
C115  C     C_3   0.933648 0.317927 0.006036 -0.167907
C116  C     C_3   0.069508 0.331039 0.994444 -0.167983
C117  C     C_3   0.474347 0.830152 0.935069 0.003450
C118  C     C_3   0.529037 0.820251 0.064548 0.038489
C119  C     C_3   0.974348 0.330155 0.935069 0.003441
C120  C     C_3   0.029038 0.320253 0.064547 0.038482
Cr1   Cr    Cr6+3 0.229620 0.836040 0.749110 0.984008
Cr2   Cr    Cr6+3 0.770380 0.836040 0.250890 0.981446
Cr3   Cr    Cr6+3 0.729620 0.336040 0.749110 0.984008
Cr4   Cr    Cr6+3 0.270380 0.336040 0.250890 0.981442
Cr5   Cr    Cr6+3 0.387630 0.990680 0.750730 0.971105
Cr6   Cr    Cr6+3 0.612370 0.990680 0.249270 0.987075
Cr7   Cr    Cr6+3 0.887630 0.490680 0.750730 0.971099
Cr8   Cr    Cr6+3 0.112370 0.490680 0.249270 0.987084
Cr9   Cr    Cr6+3 0.386020 0.676590 0.749210 0.992697
Cr10  Cr    Cr6+3 0.613980 0.676590 0.250790 0.992139
Cr11  Cr    Cr6+3 0.886020 0.176590 0.749210 0.992698
Cr12  Cr    Cr6+3 0.113980 0.176590 0.250790 0.992141
H1    H     H_    0.379054 0.805354 0.016455 0.098637
H2    H     H_    0.623591 0.819768 0.981218 0.096881
H3    H     H_    0.879056 0.305354 0.016454 0.098635
H4    H     H_    0.123592 0.319772 0.981217 0.096878
H5    H     H_    0.198837 0.754865 0.083746 0.123664
H6    H     H_    0.802533 0.753306 0.916980 0.124195
H7    H     H_    0.698836 0.254865 0.083746 0.123663
H8    H     H_    0.302534 0.253306 0.916980 0.124195
H9    H     H_    0.290235 0.749656 0.082398 0.116310
H10   H     H_    0.711028 0.747210 0.917509 0.108313
H11   H     H_    0.790235 0.249657 0.082397 0.116312
H12   H     H_    0.211030 0.247211 0.917510 0.108310
H13   H     H_    0.273834 0.800487 0.959654 0.110908
H14   H     H_    0.725801 0.799843 0.039861 0.110070
H15   H     H_    0.773833 0.300489 0.959654 0.110908
H16   H     H_    0.225804 0.299844 0.039862 0.110072
H17   H     H_    0.187262 0.752482 0.962363 0.131589
H18   H     H_    0.812834 0.754240 0.038491 0.125447
H19   H     H_    0.687261 0.252480 0.962362 0.131603
H20   H     H_    0.312836 0.254237 0.038492 0.125451
H21   H     H_    0.640186 0.086306 0.031377 0.172670
H22   H     H_    0.362808 0.084418 0.969686 0.129804
H23   H     H_    0.140184 0.586306 0.031381 0.172676
H24   H     H_    0.862810 0.584420 0.969684 0.129819
H25   H     H_    0.158414 0.543947 0.911479 0.196197
H26   H     H_    0.842730 0.553127 0.087865 0.202126
H27   H     H_    0.658417 0.043942 0.911477 0.196214
H28   H     H_    0.342729 0.053119 0.087865 0.202112
H29   H     H_    0.533273 0.629954 0.440160 0.136997
H30   H     H_    0.466815 0.629974 0.559411 0.136732
H31   H     H_    0.033271 0.129953 0.440160 0.136998
H32   H     H_    0.966813 0.129976 0.559411 0.136731
H33   H     H_    0.446830 0.667834 0.442360 0.116396
H34   H     H_    0.553313 0.667618 0.557333 0.116105
H35   H     H_    0.946828 0.167836 0.442359 0.116396
H36   H     H_    0.053312 0.167616 0.557333 0.116105
H37   H     H_    0.608168 0.828676 0.465023 0.110283
H38   H     H_    0.392110 0.828455 0.534989 0.110609
H39   H     H_    0.108168 0.328674 0.465021 0.110282
H40   H     H_    0.892110 0.328460 0.534988 0.110610
H41   H     H_    0.598584 0.864503 0.585587 0.101304
H42   H     H_    0.401636 0.864958 0.414655 0.103285
H43   H     H_    0.098585 0.364499 0.585587 0.101304
H44   H     H_    0.901637 0.364962 0.414654 0.103284
H45   H     H_    0.454988 0.992428 0.430691 0.118596
H46   H     H_    0.545292 0.992118 0.570159 0.118517
H47   H     H_    0.954990 0.492430 0.430691 0.118596
H48   H     H_    0.045294 0.492116 0.570159 0.118516
H49   H     H_    0.421850 0.976198 0.549599 0.131853
H50   H     H_    0.578286 0.976386 0.451087 0.130655
H51   H     H_    0.921851 0.476201 0.549598 0.131853
H52   H     H_    0.078286 0.476385 0.451087 0.130654
H53   H     H_    0.130006 0.638809 0.439681 0.136076
H54   H     H_    0.870001 0.638568 0.560328 0.136206
H55   H     H_    0.630007 0.138810 0.439681 0.136075
H56   H     H_    0.370001 0.138570 0.560329 0.136207
H57   H     H_    0.192398 0.749646 0.440963 0.116147
H58   H     H_    0.807456 0.749156 0.559632 0.116421
H59   H     H_    0.692399 0.249646 0.440963 0.116146
H60   H     H_    0.307455 0.249157 0.559631 0.116422
H61   H     H_    0.164331 0.739864 0.558555 0.136275
H62   H     H_    0.835585 0.739894 0.441878 0.135548
H63   H     H_    0.664332 0.239866 0.558555 0.136275
H64   H     H_    0.335586 0.239892 0.441878 0.135548
H65   H     H_    0.140525 0.590908 0.556856 0.116335
H66   H     H_    0.859307 0.590838 0.442883 0.117098
H67   H     H_    0.640525 0.090912 0.556856 0.116335
H68   H     H_    0.359307 0.090835 0.442884 0.117098
H69   H     H_    0.691039 0.928854 0.466813 0.111186
H70   H     H_    0.309348 0.928966 0.531215 0.111374
H71   H     H_    0.191038 0.428858 0.466816 0.111187
H72   H     H_    0.809346 0.428960 0.531218 0.111373
H73   H     H_    0.717694 0.925513 0.585738 0.100649
H74   H     H_    0.281613 0.925838 0.412995 0.101909
H75   H     H_    0.217700 0.425511 0.585740 0.100647
H76   H     H_    0.781617 0.425839 0.412996 0.101910
H77   H     H_    0.349863 0.572776 0.428212 0.121109
H78   H     H_    0.650165 0.571231 0.571419 0.121318
H79   H     H_    0.849862 0.072777 0.428210 0.121108
H80   H     H_    0.150165 0.071229 0.571418 0.121320
H81   H     H_    0.313272 0.716500 0.411048 0.101387
H82   H     H_    0.686438 0.714855 0.590007 0.100341
H83   H     H_    0.813271 0.216501 0.411051 0.101388
H84   H     H_    0.186436 0.214853 0.590009 0.100340
H85   H     H_    0.542240 0.657713 0.929473 0.137163
H86   H     H_    0.470842 0.637282 0.057085 0.130825
H87   H     H_    0.042242 0.157719 0.929471 0.137164
H88   H     H_    0.970845 0.137283 0.057083 0.130825
H89   H     H_    0.300453 0.753467 0.529937 0.110978
H90   H     H_    0.699991 0.753829 0.472044 0.111265
H91   H     H_    0.800459 0.253461 0.529942 0.110978
H92   H     H_    0.199995 0.253833 0.472046 0.111265
H93   H     H_    0.360184 0.636602 0.546233 0.130431
H94   H     H_    0.639780 0.637963 0.454065 0.130191
H95   H     H_    0.860184 0.136586 0.546233 0.130431
H96   H     H_    0.139779 0.137973 0.454064 0.130191
H97   H     H_    0.278923 0.396563 0.449871 0.134180
H98   H     H_    0.721676 0.395618 0.549200 0.133482
H99   H     H_    0.778924 0.896566 0.449872 0.134180
H100  H     H_    0.221679 0.895614 0.549202 0.133481
H101  H     H_    0.307576 0.442593 0.567344 0.119690
H102  H     H_    0.691911 0.443230 0.432198 0.120281
H103  H     H_    0.807571 0.942587 0.567347 0.119687
H104  H     H_    0.191907 0.943233 0.432201 0.120283
H105  H     H_    0.320645 0.437562 0.054593 0.128777
H106  H     H_    0.681770 0.435127 0.946277 0.128027
H107  H     H_    0.820647 0.937565 0.054593 0.128774
H108  H     H_    0.181769 0.935128 0.946278 0.128025
H109  H     H_    0.356322 0.575430 0.077440 0.115163
H110  H     H_    0.645922 0.571305 0.922156 0.109126
H111  H     H_    0.856322 0.075433 0.077441 0.115164
H112  H     H_    0.145922 0.071306 0.922156 0.109124
H113  H     H_    0.368500 0.623055 0.958050 0.137784
H114  H     H_    0.632606 0.623294 0.040473 0.133680
H115  H     H_    0.868501 0.123060 0.958051 0.137783
H116  H     H_    0.132607 0.123299 0.040472 0.133681
H117  H     H_    0.339595 0.477978 0.936165 0.117888
H118  H     H_    0.661241 0.478121 0.064083 0.119519
H119  H     H_    0.839598 0.977982 0.936166 0.117889
H120  H     H_    0.161238 0.978125 0.064083 0.119521
H121  H     H_    0.666375 0.944268 0.048489 0.096731
H122  H     H_    0.336096 0.941930 0.954512 0.096519
H123  H     H_    0.166376 0.444267 0.048490 0.096730
H124  H     H_    0.836096 0.441931 0.954513 0.096520
H125  H     H_    0.720533 0.935189 0.929861 0.104064
H126  H     H_    0.283211 0.937488 0.072931 0.115229
H127  H     H_    0.220528 0.435190 0.929861 0.104063
H128  H     H_    0.783215 0.437491 0.072932 0.115229
O1    O     O_R   0.214130 0.708570 0.829890 -0.536546
O2    O     O_R   0.785870 0.708570 0.170110 -0.539595
O3    O     O_R   0.714130 0.208570 0.829890 -0.536546
O4    O     O_R   0.285870 0.208570 0.170110 -0.539605
O5    O     O_R   0.446360 0.919990 0.675230 -0.511210
O6    O     O_R   0.553640 0.919990 0.324770 -0.510799
O7    O     O_R   0.946360 0.419990 0.675230 -0.511210
O8    O     O_R   0.053640 0.419990 0.324770 -0.510795
O9    O     O_R   0.457170 0.717300 0.668380 -0.530721
O10   O     O_R   0.542830 0.717300 0.331620 -0.530919
O11   O     O_R   0.957170 0.217300 0.668380 -0.530720
O12   O     O_R   0.042830 0.217300 0.331620 -0.530920
O13   O     O_R   0.320870 0.624890 0.673130 -0.511410
O14   O     O_R   0.679130 0.624890 0.326870 -0.511341
O15   O     O_R   0.820870 0.124890 0.673130 -0.511410
O16   O     O_R   0.179130 0.124890 0.326870 -0.511340
O17   O     O_3   0.334430 0.834430 0.749680 -0.279336
O18   O     O_3   0.665570 0.834430 0.250320 -0.288445
O19   O     O_3   0.834430 0.334430 0.749680 -0.279334
O20   O     O_3   0.165570 0.334430 0.250320 -0.288443
O21   O     O_R   0.236050 0.959150 0.825270 -0.513426
O22   O     O_R   0.763950 0.959150 0.174730 -0.513080
O23   O     O_R   0.736050 0.459150 0.825270 -0.513425
O24   O     O_R   0.263950 0.459150 0.174730 -0.513078
O25   O     O_R   0.332100 0.076650 0.832310 -0.548158
O26   O     O_R   0.667900 0.076650 0.167690 -0.546965
O27   O     O_R   0.832100 0.576650 0.832310 -0.548161
O28   O     O_R   0.167900 0.576650 0.167690 -0.546967
O29   O     O_R   0.446500 0.918620 0.826240 -0.533608
O30   O     O_R   0.553500 0.918620 0.173760 -0.472343
O31   O     O_R   0.946500 0.418620 0.826240 -0.533626
O32   O     O_R   0.053500 0.418620 0.173760 -0.472355
O33   O     O_R   0.457310 0.715830 0.831280 -0.518767
O34   O     O_R   0.542690 0.715830 0.168720 -0.524379
O35   O     O_R   0.957310 0.215830 0.831280 -0.518765
O36   O     O_R   0.042690 0.215830 0.168720 -0.524377
O37   O     O_R   0.321000 0.623520 0.824130 -0.516379
O38   O     O_R   0.679000 0.623520 0.175870 -0.518753
O39   O     O_R   0.821000 0.123520 0.824130 -0.516378
O40   O     O_R   0.179000 0.123520 0.175870 -0.518752
O41   O     O_R   0.213990 0.710040 0.667000 -0.534098
O42   O     O_R   0.786010 0.710040 0.333000 -0.533093
O43   O     O_R   0.713990 0.210040 0.667000 -0.534098
O44   O     O_R   0.286010 0.210040 0.333000 -0.533095
O45   O     O_R   0.235920 0.960520 0.674260 -0.511953
O46   O     O_R   0.764080 0.960520 0.325740 -0.512171
O47   O     O_R   0.735920 0.460520 0.674260 -0.511952
O48   O     O_R   0.264080 0.460520 0.325740 -0.512172
O49   O     O_R   0.331960 0.078120 0.669410 -0.534554
O50   O     O_R   0.668040 0.078120 0.330590 -0.536160
O51   O     O_R   0.831960 0.578120 0.669410 -0.534554
O52   O     O_R   0.168040 0.578120 0.330590 -0.536156
O53   O     O_3   0.452705 0.997693 0.088606 -0.578510
C121  C     C_3   0.486174 0.107686 0.084486 0.008835
H129  H     H_    0.467423 0.156734 0.037125 0.134923
H130  H     H_    0.542255 0.096982 0.082953 0.178909
C122  C     C_3   0.469881 0.180869 0.150671 -0.369455
H131  H     H_    0.484670 0.131808 0.199762 0.180468
H132  H     H_    0.498630 0.265655 0.149009 0.078541
H133  H     H_    0.414569 0.201066 0.152548 0.168328
O54   O     O_3   0.547712 0.038148 0.948820 -0.634825
C123  C     C_3   0.511032 0.099718 0.896217 -0.007553
H134  H     H_    0.455212 0.092695 0.904014 0.161616
H135  H     H_    0.526990 0.067332 0.842749 0.187164
C124  C     C_3   0.530372 0.230396 0.898825 -0.413033
H136  H     H_    0.585480 0.241261 0.886894 0.169819
H137  H     H_    0.500436 0.279876 0.858188 0.103632
H138  H     H_    0.519812 0.268975 0.952230 0.127610
O55   O     O_3   0.952702 0.497697 0.088601 -0.578523
C125  C     C_3   0.986180 0.607684 0.084493 0.008811
H139  H     H_    0.967454 0.656732 0.037127 0.134977
H140  H     H_    0.042258 0.596970 0.082985 0.178930
C126  C     C_3   0.969867 0.680877 0.150664 -0.369507
H141  H     H_    0.984596 0.631795 0.199757 0.180500
H142  H     H_    0.998647 0.765629 0.149034 0.078553
H143  H     H_    0.914569 0.701138 0.152495 0.168280
O56   O     O_3   0.047707 0.538161 0.948827 -0.634835
C127  C     C_3   0.011036 0.599706 0.896205 -0.007557
H144  H     H_    0.955214 0.592680 0.903989 0.161653
H145  H     H_    0.027012 0.567302 0.842746 0.187151
C128  C     C_3   0.030367 0.730389 0.898801 -0.412968
H146  H     H_    0.085493 0.741254 0.886937 0.169832
H147  H     H_    0.000470 0.779830 0.858108 0.103636
H148  H     H_    0.019737 0.769013 0.952187 0.127559

loop_
_geom_bond_atom_site_label_1
_geom_bond_atom_site_label_2
_ccdc_geom_bond_type
C123  H135  S    
C82   C94   S    
C55   C59   S    
C35   H125  S    
C83   C87   S    
C73   C93   S    
C47   O31   A    
C112  O56   S    
C42   C58   S    
C29   C89   S    
O56   C127  S    
C16   H120  S    
C75   C95   S    
C48   C120  S    
C126  H141  S    
C24   H8    S    
C57   C102  S    
Cr6   O18   S    
Cr7   O7    S    
C85   H101  S    
C59   C104  S    
Cr1   O17   S    
C5    C6    S    
Cr10  O10   S    
Cr3   O19   S    
C123  C124  S    
Cr4   O4    S    
Cr12  O16   S    
C29   C33   S    
C87   H103  S    
C30   C38   S    
C77   C100  S    
C44   H36   S    
C9    C13   S    
C87   H73   S    
C11   C15   S    
C5    H85   S    
C12   C16   S    
C98   O50   A    
C99   O47   A    
C103  O7    A    
C60   C103  S    
C107  O15   A    
Cr4   O24   S    
C83   C107  S    
C113  H1    S    
C74   H82   S    
C61   H57   S    
C23   H11   S    
C66   H62   S    
C109  C118  S    
C16   H116  S    
C70   H72   S    
Cr5   O25   S    
C50   C53   S    
C125  H139  S    
C89   O37   A    
C7    C119  S    
Cr8   O28   S    
C62   H58   S    
C62   C66   S    
Cr2   O2    S    
C20   C28   S    
C18   H124  S    
C121  H129  S    
Cr12  O36   S    
C122  H133  S    
C43   C44   S    
C66   C82   S    
Cr9   O33   S    
C58   C101  S    
C105  O41   A    
C92   O4    A    
C107  O43   A    
C14   H118  S    
C108  O44   A    
C19   H21   S    
C89   O1    A    
Cr5   O49   S    
C17   H23   S    
C91   O3    A    
C126  H143  S    
Cr1   O45   S    
Cr5   O5    S    
Cr2   O42   S    
C3    C26   S    
C84   C88   S    
C31   C91   S    
C53   H45   S    
Cr12  O12   S    
C13   H117  S    
Cr10  O34   S    
C17   C25   S    
C19   C35   S    
C76   C96   S    
C1    O21   A    
C32   C92   S    
C75   H83   S    
C95   H95   S    
C21   H9    S    
C61   C65   S    
C12   H108  S    
O54   C123  S    
C78   C99   S    
C45   O29   A    
C75   C79   S    
Cr5   O29   S    
C22   C38   S    
C67   C83   S    
C80   C97   S    
C11   H111  S    
C69   C77   S    
C111  C112  S    
C9    H109  S    
C52   H40   S    
C71   C79   S    
C4    C25   S    
Cr4   O20   S    
C7    C8    S    
Cr10  O38   S    
C8    H88   S    
C96   H96   S    
C73   H77   S    
C24   H12   S    
C100  O52   A    
C39   H19   S    
C49   C57   S    
C40   H20   S    
Cr11  O11   S    
Cr9   O37   S    
C124  H137  S    
C38   H14   S    
C52   C60   S    
C19   H121  S    
C61   C77   S    
C12   H112  S    
C11   C27   S    
C93   H93   S    
C36   H126  S    
C47   O35   A    
C110  C114  S    
C48   O36   A    
C43   C59   S    
C62   H54   S    
C76   H80   S    
C10   H106  S    
C6    H86   S    
C88   H74   S    
C22   H10   S    
Cr1   O21   S    
Cr2   O18   S    
C128  H147  S    
Cr12  O20   S    
C81   C105  S    
C30   C34   S    
C10   C14   S    
C101  O9    A    
C95   H91   S    
C116  C120  S    
C103  O11   A    
C7    C116  S    
C69   H97   S    
C33   H127  S    
C61   H53   S    
C114  H2    S    
C34   H128  S    
C66   H66   S    
C64   H56   S    
C113  C117  S    
C63   H55   S    
Cr6   O26   S    
C9    H105  S    
Cr4   O48   S    
C112  C116  S    
C69   C85   S    
C85   H75   S    
C72   H70   S    
C56   H48   S    
C45   C117  S    
C21   C25   S    
C71   H99   S    
Cr12  O40   S    
C55   H47   S    
C62   C78   S    
C76   C80   S    
C32   C36   S    
C15   C31   S    
C43   H35   S    
C16   C32   S    
C127  C128  S    
C115  C119  S    
C105  O13   A    
C111  O55   S    
C106  O42   A    
C72   C80   S    
C115  H3    S    
C4    O24   A    
C82   C106  S    
C90   O2    A    
C55   H44   S    
Cr6   O50   S    
Cr8   O32   S    
C94   H90   S    
Cr6   O6    S    
C46   O34   A    
Cr7   O19   S    
Cr8   O20   S    
C81   C85   S    
C13   H113  S    
C41   H29   S    
C41   C42   S    
C74   C94   S    
Cr9   O13   S    
C18   C26   S    
C30   C90   S    
Cr11  O39   S    
C1    O25   A    
C9    C25   S    
C2    O22   A    
C3    O27   A    
C75   H79   S    
C86   H102  S    
C125  H140  S    
C12   C28   S    
C13   C29   S    
C67   H67   S    
C98   O46   A    
C121  H130  S    
C46   C118  S    
C122  H132  S    
C73   C77   S    
C64   H60   S    
Cr6   O30   S    
C125  C126  S    
C106  O14   A    
C1    C28   S    
C2    C27   S    
Cr10  O14   S    
C72   H100  S    
Cr11  O19   S    
C52   C55   S    
C121  C122  S    
C123  H134  S    
C64   C80   S    
C73   H81   S    
C17   C33   S    
C110  C117  S    
C38   H18   S    
C33   H25   S    
C65   H61   S    
C126  H142  S    
C40   H16   S    
C68   C84   S    
C24   C28   S    
C51   H52   S    
C86   H76   S    
C53   C57   S    
C82   C86   S    
C56   C60   S    
C50   C58   S    
C104  O12   A    
C48   O32   A    
Cr7   O27   S    
C76   H84   S    
C65   C81   S    
C91   O39   A    
C42   H30   S    
Cr8   O8    S    
C50   H38   S    
C20   H122  S    
Cr2   O22   S    
C71   C87   S    
C92   O40   A    
C31   C35   S    
C64   C68   S    
C101  O5    A    
C102  O10   A    
C109  O53   S    
C97   O45   A    
C37   H17   S    
C108  O16   A    
C112  C119  S    
C116  H4    S    
C22   H6    S    
C41   C57   S    
C109  C110  S    
C49   H37   S    
O53   C121  S    
Cr5   O17   S    
C44   C60   S    
C63   H59   S    
C84   C108  S    
C124  H136  S    
C94   H94   S    
C20   C36   S    
C54   H46   S    
C21   C37   S    
C22   C26   S    
C29   C37   S    
C44   H32   S    
C42   H34   S    
C43   H31   S    
C97   O49   A    
C5    C114  S    
C70   C78   S    
O55   C125  S    
C79   C98   S    
C99   O51   A    
C10   H110  S    
C52   H51   S    
C63   C79   S    
C128  H146  S    
C4    O28   A    
C20   H22   S    
C74   H78   S    
C54   H41   S    
C23   H7    S    
C84   C96   S    
C11   H107  S    
C49   C54   S    
Cr3   O47   S    
C51   C56   S    
C46   O30   A    
C8    C115  S    
Cr1   O1    S    
Cr3   O3    S    
C96   H92   S    
C41   H33   S    
Cr9   O17   S    
C23   C27   S    
C19   C27   S    
C74   C78   S    
C109  C113  S    
C2    O26   A    
C7    H87   S    
C10   C26   S    
C47   C119  S    
C14   C30   S    
C67   H63   S    
C72   C88   S    
C53   H42   S    
C127  H145  S    
C88   H104  S    
C63   C67   S    
C56   H43   S    
C68   H64   S    
Cr7   O31   S    
Cr1   O41   S    
C21   H5    S    
C5    C117  S    
C111  C120  S    
Cr10  O18   S    
C124  H138  S    
Cr3   O43   S    
C70   H98   S    
C6    C113  S    
Cr11  O15   S    
Cr4   O44   S    
C81   C93   S    
C83   C95   S    
Cr11  O35   S    
C18   C34   S    
C114  C118  S    
C65   H65   S    
C34   H26   S    
C69   H71   S    
C50   H49   S    
C51   C59   S    
C70   C86   S    
C8    C120  S    
Cr2   O46   S    
C54   C58   S    
C128  H148  S    
C71   H69   S    
C17   H123  S    
C45   O33   A    
C104  O8    A    
C18   H24   S    
C15   H115  S    
C111  C115  S    
Cr7   O51   S    
Cr8   O52   S    
C68   H68   S    
C110  O54   S    
C51   H39   S    
Cr3   O23   S    
C90   O38   A    
C15   H119  S    
C23   C39   S    
C3    O23   A    
C24   C40   S    
C31   C39   S    
C32   C40   S    
C122  H131  S    
C35   H27   S    
Cr9   O9    S    
C36   H28   S    
C49   H50   S    
C100  O48   A    
C127  H144  S    
C102  O6    A    
C39   H15   S    
C93   H89   S    
C37   H13   S    
C6    C118  S    
C14   H114  S    
