data_str_m9_o18_o22_f0_sra.sym.41
_audit_creation_date              2012-12-11T15:29:39-0500
_audit_creation_method            fapswitch 2.2
_symmetry_space_group_name_H-M    P1
_symmetry_Int_Tables_number       1
_space_group_crystal_system       triclinic
_cell_length_a                    21.430714
_cell_length_b                    7.245303
_cell_length_c                    14.761201
_cell_angle_alpha                 90.51973
_cell_angle_beta                  74.409857
_cell_angle_gamma                 89.887288
_cell_volume                      2207.5620848

loop_
_atom_site_label
_atom_site_type_symbol
_atom_type_description
_atom_site_fract_x
_atom_site_fract_y
_atom_site_fract_z
_atom_type_partial_charge
O1    O     O_R   0.464160 0.506670 0.130070 -0.527729
O2    O     O_R   0.535840 0.006670 0.869930 -0.543277
O3    O     O_R   0.589710 0.179080 0.006710 -0.509462
O4    O     O_R   0.410290 0.679080 0.993290 -0.519521
C1    C     C_R   0.616222 0.344441 0.002463 0.750571
C2    C     C_R   0.383584 0.844088 0.998503 0.783604
O5    O     O_R   0.467940 0.177220 0.138010 -0.540154
O6    O     O_R   0.532060 0.677220 0.861990 -0.545804
O7    O     O_R   0.413200 0.002810 0.002170 -0.557126
O8    O     O_R   0.586800 0.502810 0.997830 -0.526286
C3    C     C_R   0.456226 0.346507 0.174363 0.701642
C4    C     C_R   0.543751 0.844514 0.825533 0.688269
O9    O     O_3   0.482180 0.337850 0.955280 -0.390147
O10   O     O_3   0.517820 0.837850 0.044720 -0.354138
V1    V     V_3+5 0.503310 0.064600 0.008300 1.563296
V2    V     V_3+5 0.496690 0.564600 0.991700 1.569230
C5    C     C_R   0.571352 0.847768 0.723729 -0.048302
C6    C     C_R   0.428397 0.359179 0.275947 -0.045946
C7    C     C_R   0.928461 0.870674 0.276546 -0.163405
C8    C     C_R   0.071578 0.358618 0.723801 -0.160244
C9    C     C_R   0.560064 0.796511 0.567325 -0.084508
C10   C     C_R   0.439226 0.434922 0.430301 -0.073516
C11   C     C_R   0.532489 0.809523 0.663886 -0.139660
C12   C     C_R   0.466976 0.410305 0.334331 -0.145850
C13   C     C_R   0.638008 0.872506 0.687185 -0.173785
C14   C     C_R   0.361890 0.333050 0.313253 -0.145430
C15   C     C_R   0.667799 0.855572 0.589376 0.012537
C16   C     C_R   0.331958 0.360526 0.410387 0.006776
C17   C     C_R   0.627263 0.817211 0.529505 -0.016162
C18   C     C_R   0.372180 0.412098 0.468842 -0.016371
C19   C     C_R   0.736276 0.871902 0.549539 0.040889
C20   C     C_R   0.263651 0.341323 0.450852 0.040183
C21   C     C_R   0.763066 0.848853 0.450222 -0.013752
C22   C     C_R   0.236719 0.374586 0.549388 -0.013690
C23   C     C_R   0.720467 0.811956 0.393990 -0.254192
C24   C     C_R   0.278991 0.424782 0.604237 -0.228697
C25   C     C_R   0.654131 0.797029 0.432725 0.610731
C26   C     C_R   0.345158 0.442682 0.564890 0.619884
C27   C     C_R   0.778880 0.909782 0.605732 -0.139307
C28   C     C_R   0.221349 0.290613 0.396043 -0.111842
C29   C     C_R   0.845139 0.924457 0.566767 -0.119173
C30   C     C_R   0.155231 0.273280 0.435615 -0.109699
C31   C     C_R   0.871945 0.903219 0.470358 0.033983
C32   C     C_R   0.128282 0.304565 0.531305 0.030591
C33   C     C_R   0.831597 0.864471 0.410421 0.132700
C34   C     C_R   0.168368 0.355953 0.589820 0.127187
C35   C     C_R   0.939084 0.923626 0.433306 -0.237727
C36   C     C_R   0.061260 0.282343 0.569111 -0.223735
C37   C     C_R   0.967095 0.909804 0.336850 0.629728
C38   C     C_R   0.033113 0.307518 0.665001 0.617640
C39   C     C_R   0.861691 0.846280 0.312755 -0.317323
C40   C     C_R   0.138203 0.384009 0.686822 -0.288614
H1    H     H_    0.834809 0.819156 0.262086 0.130036
H2    H     H_    0.164885 0.421083 0.736502 0.145266
H3    H     H_    0.528728 0.766753 0.522435 0.184085
H4    H     H_    0.470317 0.474569 0.474112 0.179317
H5    H     H_    0.762851 0.930116 0.680701 0.139665
H6    H     H_    0.237511 0.262238 0.321732 0.141726
H7    H     H_    0.969815 0.953878 0.479069 0.154718
H8    H     H_    0.030718 0.242747 0.524429 0.152516
C41   C     C_3   0.211488 0.659340 0.000313 -0.400307
C42   C     C_3   0.771603 0.278886 0.091181 -0.444771
C43   C     C_3   0.283388 0.651911 0.001122 0.523189
C44   C     C_3   0.698937 0.266575 0.092246 0.560694
H9    H     H_    0.277722 0.890765 0.152616 0.239817
H10   H     H_    0.712619 0.099591 0.915276 0.255097
C45   C     C_3   0.198688 0.961171 0.089620 0.554731
C46   C     C_3   0.802477 0.245752 0.914385 0.566072
C47   C     C_3   0.230461 0.957350 0.911894 0.311164
C48   C     C_3   0.785431 0.561487 0.990376 0.370653
C49   C     C_3   0.187331 0.862246 0.001259 -0.238042
C50   C     C_3   0.812777 0.363778 0.997881 -0.258570
H11   H     H_    0.223817 0.885625 0.848161 0.138484
H12   H     H_    0.792170 0.649422 0.049260 0.158511
C51   C     C_3   0.312257 0.850260 0.999451 -0.215349
C52   C     C_3   0.687507 0.352443 0.001597 -0.242456
C53   C     C_3   0.271632 0.956523 0.087682 -0.461823
C54   C     C_3   0.729760 0.244525 0.915010 -0.452667
C55   C     C_3   0.303315 0.950153 0.910938 0.328186
C56   C     C_3   0.712490 0.555261 0.994978 0.354273
H13   H     H_    0.182614 0.107638 0.091688 0.126530
H14   H     H_    0.831621 0.303973 0.846773 0.138531
O11   O     O_R   0.913210 0.208550 0.002110 -0.511247
O12   O     O_R   0.086790 0.708550 0.997890 -0.552959
O13   O     O_R   0.032060 0.539960 0.861980 -0.544333
O14   O     O_R   0.967940 0.039960 0.138020 -0.543810
C57   C     C_R   0.043776 0.371538 0.825451 0.786466
C58   C     C_R   0.956138 0.873621 0.174654 0.769445
O15   O     O_R   0.910290 0.538020 0.993280 -0.524648
O16   O     O_R   0.089710 0.038020 0.006720 -0.516660
O17   O     O_R   0.964160 0.712340 0.130090 -0.548427
O18   O     O_R   0.035840 0.212340 0.869910 -0.528743
C59   C     C_R   0.884113 0.370194 0.997263 0.761317
C60   C     C_R   0.116012 0.869760 0.002009 0.784035
O19   O     O_3   0.017820 0.379210 0.044690 -0.393309
O20   O     O_3   0.982180 0.879210 0.955310 -0.359742
V3    V     V_3+5 0.996690 0.652500 0.991710 1.567936
V4    V     V_3+5 0.003310 0.152500 0.008290 1.598389
F1    F     F_    0.615999 0.760370 0.374610 -0.667134
F2    F     F_    0.382966 0.492208 0.621650 -0.668701
H15   H     H_    0.181386 0.584346 0.062180 0.256508
H16   H     H_    0.790257 0.139048 0.100845 0.247514
H17   H     H_    0.205888 0.585991 0.936352 0.139088
H18   H     H_    0.776315 0.365132 0.151758 0.099141
H19   H     H_    0.311011 0.572020 0.938305 0.133060
H20   H     H_    0.669147 0.341739 0.155184 0.104746
F3    F     F_    0.288669 0.558151 0.080349 -0.679532
F4    F     F_    0.679744 0.083383 0.100202 -0.598446
F5    F     F_    0.162225 0.878047 0.170850 -0.619116
F6    F     F_    0.823500 0.065875 0.919265 -0.600886
F7    F     F_    0.211717 0.139844 0.907956 -0.708115
F8    F     F_    0.819044 0.643259 0.906875 -0.639792
F9    F     F_    0.338802 0.860713 0.829908 -0.689331
F10   F     F_    0.677863 0.658145 0.071961 -0.629034
H21   H     H_    0.322281 0.093308 0.909556 0.158078
H22   H     H_    0.704819 0.620249 0.930723 0.139135
H23   H     H_    0.289627 0.100554 0.087627 0.144014
H24   H     H_    0.724303 0.307911 0.849148 0.095599
F11   F     F_    0.031764 0.936725 0.302155 -0.644790
F12   F     F_    0.968506 0.280449 0.700651 -0.686967
H25   H     H_    0.875748 0.954472 0.612788 0.174831
H26   H     H_    0.124850 0.233562 0.390665 0.176047
H27   H     H_    0.480900 0.788031 0.692097 0.191870
H28   H     H_    0.518466 0.432478 0.305422 0.156739
H29   H     H_    0.665046 0.898766 0.737738 0.096589
H30   H     H_    0.335107 0.295964 0.263709 0.115257
H31   H     H_    0.736692 0.792961 0.318952 0.173091
H32   H     H_    0.262637 0.452302 0.678607 0.172679

loop_
_geom_bond_atom_site_label_1
_geom_bond_atom_site_label_2
_ccdc_geom_bond_type
C3    C6    S    
C55   H21   S    
C15   C17   A    
C21   C33   A    
C45   C53   S    
O2    C4    A    
C2    O7    A    
O19   V4    S    
O18   V4    S    
C2    C51   S    
C27   C29   A    
C49   C60   S    
O5    C3    A    
C5    C11   A    
C51   C55   S    
C6    C12   A    
O12   V3    S    
C10   C12   A    
C47   H11   S    
C23   C25   A    
C52   C54   S    
O12   C60   A    
C53   H23   S    
O14   C58   A    
C33   C39   A    
O11   C59   A    
C8    C57   S    
C34   C40   A    
C12   H28   S    
C18   C26   A    
C41   C43   S    
C14   H30   S    
C29   H25   S    
C47   C49   S    
C13   H29   S    
C8    C38   A    
C6    C14   A    
C45   F5    S    
C56   H22   S    
C32   C34   A    
C16   C18   A    
O11   V4    S    
O1    C3    A    
C4    C5    S    
C48   H12   S    
C42   C44   S    
C19   C21   A    
O16   C60   A    
C22   C34   A    
C43   H19   S    
C45   C49   S    
O6    C4    A    
C41   C49   S    
C36   C38   A    
O6    V2    S    
C57   O18   A    
C29   C31   A    
C24   H32   S    
C30   C32   A    
C40   H2    S    
C36   H8    S    
C42   H18   S    
O13   C57   A    
C46   C54   S    
H10   C54   S    
C28   H6    S    
C15   C19   A    
C16   C20   A    
H9    C53   S    
C26   F2    S    
C7    C58   S    
C9    H3    S    
C11   H27   S    
C9    C17   A    
O15   V3    S    
C39   H1    S    
C20   C22   A    
O4    V2    S    
C41   H15   S    
C51   C53   S    
C7    C37   A    
C58   O17   A    
C46   C50   S    
O20   V3    S    
C44   C52   S    
C42   C50   S    
O1    V2    S    
C46   F6    S    
O17   V3    S    
C23   H31   S    
O2    V1    S    
C31   C33   A    
C48   F8    S    
C50   C59   S    
O4    C2    A    
C56   F10   S    
C45   H13   S    
C55   F9    S    
C38   F12   S    
C47   C55   S    
C13   C15   A    
C41   H17   S    
C43   F3    S    
C24   C26   A    
C25   F1    S    
O3    V1    S    
C30   H26   S    
C10   C18   A    
C54   H24   S    
C52   C56   S    
C28   C30   A    
O3    C1    A    
C10   H4    S    
C44   H20   S    
C35   C37   A    
C14   C16   A    
C46   H14   S    
C1    C52   S    
C9    C11   A    
O7    V1    S    
C5    C13   A    
C1    O8    A    
C8    C40   A    
O8    V2    S    
C47   F7    S    
C37   F11   S    
C48   C56   S    
C43   C51   S    
O5    V1    S    
C21   C23   A    
C19   C27   A    
C22   C24   A    
C20   C28   A    
O15   C59   A    
O14   V4    S    
O13   V3    S    
C35   H7    S    
C7    C39   A    
O9    V2    S    
C17   C25   A    
O10   V1    S    
C48   C50   S    
C31   C35   A    
O16   V4    S    
C32   C36   A    
C44   F4    S    
C42   H16   S    
C27   H5    S    
