data_str_m2_o14_o22_f0_pcu.sym.61
_audit_creation_date              2012-10-26T20:19:35-0400
_audit_creation_method            fapswitch 2.2
_symmetry_space_group_name_H-M    P1
_symmetry_Int_Tables_number       1
_space_group_crystal_system       triclinic
_cell_length_a                    10.725139
_cell_length_b                    10.772998
_cell_length_c                    9.608925
_cell_angle_alpha                 90.242143
_cell_angle_beta                  90.026019
_cell_angle_gamma                 92.7684
_cell_volume                      1108.92759383

loop_
_atom_site_label
_atom_site_type_symbol
_atom_type_description
_atom_site_fract_x
_atom_site_fract_y
_atom_site_fract_z
_atom_type_partial_charge
C1    C     C_R   0.494301 0.262607 0.499906 0.549724
C2    C     C_R   0.397537 0.061221 0.585278 0.022462
C3    C     C_R   0.484492 0.128374 0.499843 0.004166
C4    C     C_R   0.259911 0.497008 0.500094 0.565658
C5    C     C_R   0.565592 0.066907 0.412851 -0.152408
C6    C     C_R   0.566080 0.939053 0.413490 -0.157229
C7    C     C_R   0.485355 0.870410 0.500977 0.004275
C8    C     C_R   0.667007 0.664555 0.144567 -0.092403
C9    C     C_R   0.749022 0.744688 0.072833 -0.174318
C10   C     C_R   0.748853 0.744828 0.929394 -0.171139
C11   C     C_R   0.666635 0.664871 0.856862 -0.078872
C12   C     C_3   0.877894 0.497589 0.500712 0.022515
C13   C     C_R   0.581958 0.580912 0.925638 0.139433
C14   C     C_R   0.582038 0.580810 0.075059 0.114492
C15   C     C_R   0.421099 0.422738 0.074059 0.351295
C16   C     C_R   0.494969 0.736996 0.500341 0.518141
C17   C     C_R   0.421657 0.423376 0.925188 -0.004406
C18   C     C_R   0.739933 0.499316 0.500198 0.527346
C19   C     C_3   0.070186 0.476879 0.650622 -0.219779
C20   C     C_3   0.927558 0.478504 0.650704 -0.232386
C21   C     C_3   0.078486 0.621098 0.444876 -0.283479
C22   C     C_3   0.065812 0.388354 0.405211 0.161093
C23   C     C_3   0.934747 0.622119 0.443902 -0.262758
C24   C     C_3   0.121612 0.494962 0.500408 0.068068
C25   C     C_3   0.100050 0.182909 0.341539 -0.012389
C26   C     C_3   0.061844 0.055072 0.398467 -0.384046
C27   C     C_3   0.921179 0.389872 0.407791 -0.195234
C28   C     C_R   0.307709 0.121044 0.666293 -0.088455
C29   C     C_R   0.222558 0.052478 0.748367 -0.127700
C30   C     C_R   0.222518 0.923446 0.748401 -0.138155
C31   C     C_R   0.308069 0.862278 0.666994 -0.116355
C32   C     C_R   0.397845 0.929903 0.585754 0.022333
Cu1   Cu    Cu3+1 0.499990 0.499990 0.640660 0.902130
Cu2   Cu    Cu3+1 0.500010 0.500010 0.359340 0.981803
H1    H     H_    0.108267 0.552635 0.720056 0.113393
H2    H     H_    0.632264 0.893495 0.347775 0.111935
H3    H     H_    0.099616 0.387296 0.694276 0.150540
H4    H     H_    0.674367 0.672654 0.254294 0.175374
H5    H     H_    0.812990 0.807400 0.129307 0.104474
H6    H     H_    0.812753 0.807589 0.873569 0.109314
H7    H     H_    0.673706 0.673137 0.747148 0.182243
H8    H     H_    0.357858 0.361184 0.868138 0.093683
H9    H     H_    0.887883 0.389361 0.693946 0.135693
H10   H     H_    0.898479 0.554826 0.720241 0.126413
H11   H     H_    0.116842 0.698655 0.511377 0.112744
H12   H     H_    0.886621 0.400409 0.299431 0.092641
H13   H     H_    0.903892 0.700855 0.508708 0.108615
H14   H     H_    0.099128 0.408260 0.296889 0.125986
H15   H     H_    0.880013 0.299973 0.447480 0.137933
H16   H     H_    0.288528 0.293585 0.079139 0.271158
H17   H     H_    0.194155 0.179098 0.294068 0.184256
H18   H     H_    0.031880 0.203961 0.258093 0.099643
H19   H     H_    0.971277 0.058405 0.454061 0.149250
H20   H     H_    0.051666 0.987062 0.311537 0.089544
H21   H     H_    0.133864 0.023226 0.470840 0.174934
H22   H     H_    0.114360 0.637728 0.337541 0.122847
H23   H     H_    0.901825 0.637250 0.335740 0.119498
H24   H     H_    0.631484 0.118454 0.346822 0.123546
H25   H     H_    0.299225 0.220479 0.664212 0.153301
H26   H     H_    0.154370 0.099613 0.809555 0.103973
H27   H     H_    0.154438 0.870337 0.809870 0.105924
H28   H     H_    0.300735 0.761991 0.666811 0.142709
N1    N     N_R   0.501200 0.501210 0.147910 -0.212846
N2    N     N_R   0.501250 0.501290 0.852040 -0.266524
O1    O     O_R   0.499990 0.319640 0.618810 -0.511820
O2    O     O_3   0.104886 0.271285 0.451499 -0.572672
O3    O     O_R   0.500000 0.319660 0.381240 -0.445582
O4    O     O_R   0.317680 0.499970 0.618790 -0.530916
O5    O     O_R   0.317700 0.499990 0.381210 -0.455681
O6    O     O_R   0.500000 0.680340 0.618760 -0.527853
O7    O     O_R   0.500010 0.680360 0.381190 -0.524274
O8    O     O_R   0.682300 0.500010 0.618790 -0.524094
O9    O     O_R   0.682320 0.500030 0.381210 -0.532447
O10   O     O_3   0.340269 0.343517 0.146440 -0.680277

loop_
_geom_bond_atom_site_label_1
_geom_bond_atom_site_label_2
_ccdc_geom_bond_type
C22   H14   S    
C19   C20   S    
C26   H21   S    
Cu1   O1    S    
C12   C23   S    
C5    H24   S    
C2    C32   A    
C28   C29   A    
H16   O10   S    
C17   N2    A    
C30   C31   A    
C4    C24   S    
C9    H5    S    
C10   H6    S    
C17   H8    S    
C22   O2    S    
C19   H3    S    
Cu1   O8    S    
C8    C9    A    
C1    O1    A    
C9    C10   A    
C13   C14   A    
C31   H28   S    
C16   O7    A    
C8    H4    S    
C26   H20   S    
C4    O5    A    
C20   H10   S    
C21   H11   S    
C18   O8    A    
C23   H13   S    
C12   C27   S    
C16   O6    A    
C4    O4    A    
C25   C26   S    
C1    C3    S    
C25   H17   S    
C29   C30   A    
C31   C32   A    
C29   H26   S    
C12   C20   S    
Cu1   Cu2   S    
Cu2   O5    S    
Cu1   O6    S    
C23   H23   S    
C27   H12   S    
C7    C16   S    
C18   O9    A    
C22   C27   S    
C21   C23   S    
C22   C24   S    
C21   C24   S    
C26   H19   S    
C20   H9    S    
C28   H25   S    
C15   C17   A    
C8    C14   A    
C7    C32   A    
C19   C24   S    
C25   O2    S    
C3    C5    A    
Cu2   O3    S    
C21   H22   S    
C6    C7    A    
C2    C3    A    
C25   H18   S    
C19   H1    S    
C11   C13   A    
C5    C6    A    
C13   N2    A    
Cu1   N2    S    
C14   N1    A    
Cu2   N1    S    
C1    O3    A    
C6    H2    S    
C11   H7    S    
C10   C11   A    
Cu2   O9    S    
C15   O10   S    
C30   H27   S    
C12   C18   S    
C15   N1    A    
C2    C28   A    
Cu2   O7    S    
C27   H15   S    
Cu1   O4    S    
