data_str_m4_o14_o24_f0_acs.sym.103
_audit_creation_date              2012-12-11T14:24:40-0500
_audit_creation_method            fapswitch 2.2
_symmetry_space_group_name_H-M    P1
_symmetry_Int_Tables_number       1
_space_group_crystal_system       triclinic
_cell_length_a                    19.077436
_cell_length_b                    10.970167
_cell_length_c                    18.822961
_cell_angle_alpha                 89.57398
_cell_angle_beta                  90.662717
_cell_angle_gamma                 89.897622
_cell_volume                      3938.94001947

loop_
_atom_site_label
_atom_site_type_symbol
_atom_type_description
_atom_site_fract_x
_atom_site_fract_y
_atom_site_fract_z
_atom_type_partial_charge
C1    C     C_R   0.728982 0.372946 0.144684 0.536743
C2    C     C_R   0.269515 0.375271 0.853982 0.546161
C3    C     C_R   0.229114 0.873599 0.144866 0.544220
C4    C     C_R   0.769837 0.874632 0.854326 0.548949
C5    C     C_3   0.448266 0.103478 0.034602 -0.120515
C6    C     C_3   0.496796 0.046760 0.978563 -0.096757
C7    C     C_3   0.990136 0.550629 0.025562 -0.100476
C8    C     C_3   0.044138 0.583569 0.968232 -0.116534
C9    C     C_R   0.752286 0.906577 0.928045 -0.007687
C10   C     C_R   0.242784 0.899865 0.069409 -0.007182
C11   C     C_R   0.250734 0.409300 0.927001 -0.014969
C12   C     C_R   0.742510 0.397631 0.069064 0.000925
C13   C     C_R   0.699044 0.846270 0.967669 0.019725
C14   C     C_R   0.303087 0.857084 0.033631 0.017303
C15   C     C_R   0.198392 0.347189 0.966935 0.018768
C16   C     C_R   0.802547 0.353690 0.033035 0.021084
C17   C     C_R   0.703501 0.845902 0.043140 0.017707
C18   C     C_R   0.301518 0.851536 0.958299 0.031350
C19   C     C_R   0.202979 0.347699 0.042378 0.025370
C20   C     C_R   0.800903 0.349306 0.957658 0.025055
C21   C     C_R   0.804000 0.980609 0.037026 -0.157555
C22   C     C_R   0.186441 0.944735 0.956087 -0.153921
C23   C     C_R   0.301042 0.487997 0.035372 -0.155611
C24   C     C_R   0.686737 0.445836 0.956132 -0.159172
C25   C     C_R   0.803262 0.973994 0.964380 -0.153468
C26   C     C_R   0.184663 0.939673 0.028954 -0.154342
C27   C     C_R   0.299910 0.481273 0.962702 -0.165309
C28   C     C_R   0.684426 0.437862 0.028811 -0.142250
C29   C     C_R   0.642243 0.784481 0.935349 -0.085854
C30   C     C_R   0.364384 0.817524 0.069882 -0.102912
C31   C     C_R   0.142091 0.283492 0.934877 -0.086903
C32   C     C_R   0.863397 0.311139 0.068929 -0.104137
C33   C     C_R   0.098007 0.210645 0.975326 -0.131251
C34   C     C_R   0.915395 0.249156 0.032412 -0.150251
C35   C     C_R   0.598260 0.710816 0.975397 -0.137881
C36   C     C_R   0.417443 0.757906 0.033711 -0.142155
C37   C     C_R   0.606897 0.702109 0.048533 -0.128789
C38   C     C_R   0.410962 0.738311 0.961062 -0.149376
C39   C     C_R   0.106815 0.202910 0.048463 -0.130713
C40   C     C_R   0.909271 0.232735 0.959513 -0.133409
C41   C     C_R   0.658909 0.768889 0.082375 -0.079652
C42   C     C_R   0.354265 0.786020 0.923363 -0.087554
C43   C     C_R   0.158977 0.269968 0.081886 -0.078925
C44   C     C_R   0.853090 0.283111 0.922194 -0.081542
C45   C     C_R   0.533547 0.155934 0.143691 0.558624
C46   C     C_R   0.465860 0.154801 0.856654 0.554424
C47   C     C_R   0.033538 0.655643 0.143558 0.545021
C48   C     C_R   0.967360 0.655349 0.855830 0.559178
C49   C     C_R   0.752927 0.921844 0.077261 -0.012275
C50   C     C_R   0.246422 0.909777 0.920195 -0.004555
C51   C     C_R   0.251830 0.425323 0.076168 -0.004428
C52   C     C_R   0.746337 0.409774 0.920011 -0.011589
C53   C     C_R   0.495319 0.157626 0.573591 0.009373
C54   C     C_R   0.552856 0.142459 0.437439 0.000152
C55   C     C_R   0.962290 0.647570 0.564906 0.003122
C56   C     C_R   0.995708 0.661920 0.420285 -0.001948
C57   C     C_R   0.476055 0.061951 0.526813 0.027926
C58   C     C_R   0.515561 0.041332 0.466377 0.045230
C59   C     C_R   0.948250 0.545831 0.519347 0.023096
C60   C     C_R   0.956863 0.561256 0.445269 0.024842
C61   C     C_R   0.573350 0.236091 0.483451 -0.163102
C62   C     C_R   0.548659 0.238007 0.553490 -0.156294
C63   C     C_R   0.021486 0.746157 0.468906 -0.143874
C64   C     C_R   0.003303 0.742200 0.539535 -0.139587
C65   C     C_R   0.420023 0.982028 0.539999 -0.075475
C66   C     C_R   0.512905 0.922255 0.436416 -0.087017
C67   C     C_R   0.933082 0.426061 0.544060 -0.097448
C68   C     C_R   0.934747 0.467565 0.398950 -0.081906
C69   C     C_R   0.929074 0.328600 0.497210 -0.150830
C70   C     C_R   0.926400 0.349841 0.424588 -0.117904
C71   C     C_R   0.417950 0.866683 0.510012 -0.111010
C72   C     C_R   0.464696 0.836454 0.458311 -0.139402
C73   C     C_R   0.780486 0.858955 0.563105 0.000103
C74   C     C_R   0.208097 0.849522 0.436979 -0.000044
C75   C     C_R   0.277524 0.381411 0.565884 -0.000992
C76   C     C_R   0.745282 0.408421 0.428192 -0.001644
C77   C     C_R   0.837260 0.898015 0.519744 0.021018
C78   C     C_R   0.172163 0.953712 0.464472 0.038458
C79   C     C_R   0.335005 0.388790 0.518785 0.011323
C80   C     C_R   0.706886 0.503481 0.458828 0.019391
C81   C     C_R   0.827503 0.895795 0.445631 0.026418
C82   C     C_R   0.198999 0.004113 0.525877 0.025441
C83   C     C_R   0.320953 0.387705 0.445685 0.023272
C84   C     C_R   0.690987 0.493311 0.530744 0.034559
C85   C     C_R   0.703060 0.871968 0.462618 -0.152353
C86   C     C_R   0.257651 0.810609 0.553070 -0.170593
C87   C     C_R   0.198476 0.431687 0.471233 -0.160198
C88   C     C_R   0.775032 0.328491 0.545262 -0.162323
C89   C     C_R   0.742361 0.968594 0.149152 0.531960
C90   C     C_R   0.257532 0.966129 0.850206 0.545939
C91   C     C_R   0.242128 0.469402 0.148778 0.535349
C92   C     C_R   0.757528 0.466160 0.850151 0.539362
C93   C     C_R   0.713950 0.844712 0.533018 -0.133432
C94   C     C_R   0.246708 0.774271 0.483140 -0.168306
C95   C     C_R   0.210885 0.414564 0.542677 -0.173983
C96   C     C_R   0.774547 0.316293 0.472013 -0.141492
C97   C     C_R   0.900580 0.950300 0.545541 -0.111654
C98   C     C_R   0.114214 0.015076 0.430616 -0.088338
C99   C     C_R   0.404728 0.411595 0.540780 -0.110912
C100  C     C_R   0.673657 0.594685 0.417354 -0.071427
C101  C     C_R   0.948863 0.999715 0.498921 -0.162175
C102  C     C_R   0.093366 0.130918 0.449270 -0.141696
C103  C     C_R   0.456836 0.429472 0.490864 -0.142377
C104  C     C_R   0.612751 0.648747 0.441046 -0.125356
C105  C     C_R   0.940806 0.982583 0.426246 -0.111280
C106  C     C_R   0.125247 0.185157 0.505885 -0.123669
C107  C     C_R   0.444222 0.407488 0.419632 -0.102211
C108  C     C_R   0.591315 0.629934 0.510415 -0.162431
C109  C     C_R   0.884657 0.916810 0.400874 -0.072268
C110  C     C_R   0.180814 0.126490 0.539873 -0.081847
C111  C     C_R   0.376839 0.379975 0.397212 -0.076012
C112  C     C_R   0.629623 0.552509 0.554989 -0.099441
C113  C     C_R   0.758930 0.897403 0.418384 -0.007448
C114  C     C_R   0.240984 0.929841 0.572120 -0.002843
C115  C     C_R   0.252619 0.414036 0.422743 0.018258
C116  C     C_R   0.736653 0.422029 0.574990 0.002734
C117  C     C_R   0.730296 0.377446 0.354908 0.522417
C118  C     C_R   0.287065 0.339552 0.638067 0.536210
C119  C     C_R   0.208345 0.827634 0.360516 0.570482
C120  C     C_R   0.788611 0.833816 0.638496 0.549590
C121  C     C_R   0.566715 0.149889 0.360255 0.565173
C122  C     C_R   0.466437 0.156693 0.645877 0.525402
C123  C     C_R   0.030439 0.656929 0.351499 0.519385
C124  C     C_R   0.939091 0.651563 0.638914 0.538624
C125  C     C_R   0.743643 0.965534 0.353721 0.525673
C126  C     C_R   0.257364 0.973867 0.642795 0.518287
C127  C     C_R   0.242417 0.468612 0.354616 0.525431
C128  C     C_R   0.755297 0.468419 0.645049 0.532161
C129  C     C_3   0.550953 0.222345 0.965585 -0.139585
C130  C     C_3   0.502692 0.279369 0.022222 -0.120309
C131  C     C_3   0.011184 0.775935 0.973153 -0.120782
C132  C     C_3   0.957081 0.742710 0.031077 -0.134595
C133  C     C_3   0.560986 0.108172 0.013236 -0.107602
C134  C     C_3   0.438225 0.217870 0.987039 -0.114991
C135  C     C_3   0.067068 0.695895 0.011588 -0.116404
C136  C     C_3   0.934227 0.630047 0.987617 -0.104019
C137  C     C_3   0.512030 0.164626 0.068699 0.050308
C138  C     C_3   0.487143 0.160966 0.931792 0.046958
C139  C     C_3   0.012502 0.662935 0.068174 0.045303
C140  C     C_3   0.988841 0.662985 0.930893 0.052198
Cr1   Cr    Cr6+3 0.772820 0.169820 0.252640 0.984557
Cr2   Cr    Cr6+3 0.227180 0.169820 0.747360 1.000402
Cr3   Cr    Cr6+3 0.272820 0.669820 0.252640 1.008590
Cr4   Cr    Cr6+3 0.727180 0.669820 0.747360 0.997515
Cr5   Cr    Cr6+3 0.615040 0.323610 0.249150 0.995176
Cr6   Cr    Cr6+3 0.384960 0.323610 0.750850 0.993040
Cr7   Cr    Cr6+3 0.115040 0.823610 0.249150 0.984128
Cr8   Cr    Cr6+3 0.884960 0.823610 0.750850 0.996212
Cr9   Cr    Cr6+3 0.616720 0.011130 0.250660 0.989464
Cr10  Cr    Cr6+3 0.383280 0.011130 0.749340 1.002464
Cr11  Cr    Cr6+3 0.116720 0.511130 0.250660 0.999153
Cr12  Cr    Cr6+3 0.883280 0.511130 0.749340 0.991648
H1    H     H_    0.611924 0.063128 0.025368 0.134759
H2    H     H_    0.387300 0.262678 0.974659 0.132600
H3    H     H_    0.122444 0.719426 0.023221 0.128754
H4    H     H_    0.879244 0.602287 0.976459 0.128897
H5    H     H_    0.606878 0.308453 0.464749 0.138622
H6    H     H_    0.566793 0.307598 0.589757 0.111758
H7    H     H_    0.058525 0.812616 0.452846 0.128084
H8    H     H_    0.023268 0.811904 0.574836 0.141719
H9    H     H_    0.379086 0.008898 0.574276 0.155969
H10   H     H_    0.548239 0.890761 0.396768 0.138638
H11   H     H_    0.927757 0.400394 0.598722 0.167701
H12   H     H_    0.929910 0.482164 0.342171 0.126580
H13   H     H_    0.921427 0.237510 0.517671 0.114329
H14   H     H_    0.916598 0.275456 0.388341 0.120135
H15   H     H_    0.382798 0.797880 0.528073 0.125445
H16   H     H_    0.463008 0.746825 0.434652 0.114939
H17   H     H_    0.650262 0.880688 0.443956 0.129624
H18   H     H_    0.284427 0.750197 0.590288 0.130150
H19   H     H_    0.146808 0.462153 0.454149 0.150097
H20   H     H_    0.805326 0.266231 0.578389 0.125079
H21   H     H_    0.914962 0.961145 0.600250 0.164152
H22   H     H_    0.082653 0.974054 0.389851 0.148035
H23   H     H_    0.420191 0.427034 0.594922 0.166524
H24   H     H_    0.690349 0.615351 0.363790 0.125810
H25   H     H_    0.668709 0.823490 0.564967 0.160100
H26   H     H_    0.269000 0.689334 0.464960 0.142854
H27   H     H_    0.168226 0.424745 0.579710 0.141016
H28   H     H_    0.798053 0.235370 0.449734 0.158491
H29   H     H_    0.993437 0.047036 0.520690 0.123611
H30   H     H_    0.050754 0.176801 0.421600 0.114215
H31   H     H_    0.508285 0.454227 0.508264 0.125651
H32   H     H_    0.582415 0.703634 0.404603 0.093017
H33   H     H_    0.975864 0.021825 0.388349 0.090182
H34   H     H_    0.105701 0.271804 0.523646 0.123170
H35   H     H_    0.485978 0.416680 0.381725 0.149990
H36   H     H_    0.543975 0.671876 0.529602 0.118802
H37   H     H_    0.881141 0.900387 0.344242 0.122416
H38   H     H_    0.209276 0.177602 0.577024 0.165327
H39   H     H_    0.367619 0.366079 0.340963 0.129442
H40   H     H_    0.607541 0.533360 0.606518 0.134481
H41   H     H_    0.592583 0.267506 0.934607 0.114854
H42   H     H_    0.504466 0.374770 0.041430 0.107653
H43   H     H_    0.020370 0.868090 0.950393 0.105059
H44   H     H_    0.921387 0.806879 0.058164 0.114741
H45   H     H_    0.405833 0.057932 0.064394 0.120491
H46   H     H_    0.496024 0.951363 0.959534 0.148441
H47   H     H_    0.982762 0.458986 0.049021 0.143603
H48   H     H_    0.079933 0.519798 0.941095 0.123851
H49   H     H_    0.629763 0.792919 0.879547 0.142360
H50   H     H_    0.372893 0.833436 0.125827 0.139492
H51   H     H_    0.129510 0.291132 0.879055 0.141782
H52   H     H_    0.872440 0.325877 0.124880 0.134495
H53   H     H_    0.845429 0.018651 0.936694 0.150298
H54   H     H_    0.135426 0.962672 0.053257 0.148004
H55   H     H_    0.340740 0.528655 0.934459 0.151333
H56   H     H_    0.635277 0.461168 0.053169 0.145497
H57   H     H_    0.058592 0.156259 0.949322 0.092666
H58   H     H_    0.959784 0.212059 0.061264 0.107915
H59   H     H_    0.559264 0.656163 0.949012 0.093188
H60   H     H_    0.462453 0.723807 0.062769 0.115436
H61   H     H_    0.073838 0.143257 0.079508 0.097911
H62   H     H_    0.947001 0.178984 0.931317 0.098449
H63   H     H_    0.573858 0.641992 0.079218 0.095654
H64   H     H_    0.449022 0.685000 0.933184 0.100153
H65   H     H_    0.665517 0.755705 0.139040 0.127090
H66   H     H_    0.350451 0.765569 0.867340 0.130812
H67   H     H_    0.165853 0.256893 0.138515 0.132116
H68   H     H_    0.849180 0.264208 0.865990 0.129653
O1    O     O_R   0.788190 0.043000 0.172520 -0.526139
O2    O     O_R   0.211810 0.043000 0.827480 -0.517912
O3    O     O_R   0.288190 0.543000 0.172520 -0.526919
O4    O     O_R   0.711810 0.543000 0.827480 -0.521654
O5    O     O_R   0.556550 0.253260 0.323480 -0.506918
O6    O     O_R   0.443450 0.253260 0.676520 -0.531748
O7    O     O_R   0.056550 0.753260 0.323480 -0.538187
O8    O     O_R   0.943450 0.753260 0.676520 -0.522158
O9    O     O_R   0.545830 0.051610 0.330160 -0.529881
O10   O     O_R   0.454170 0.051610 0.669840 -0.520904
O11   O     O_R   0.045830 0.551610 0.330160 -0.525258
O12   O     O_R   0.954170 0.551610 0.669840 -0.532080
O13   O     O_R   0.681920 0.959720 0.327070 -0.539028
O14   O     O_R   0.318080 0.959720 0.672930 -0.525783
O15   O     O_R   0.181920 0.459720 0.327070 -0.506741
O16   O     O_R   0.818080 0.459720 0.672930 -0.530096
O17   O     O_3   0.668190 0.168190 0.250820 -0.261736
O18   O     O_3   0.331810 0.168190 0.749180 -0.263367
O19   O     O_3   0.168190 0.668190 0.250820 -0.270429
O20   O     O_3   0.831810 0.668190 0.749180 -0.276948
O21   O     O_R   0.766240 0.292300 0.176860 -0.507686
O22   O     O_R   0.233760 0.292300 0.823140 -0.503982
O23   O     O_R   0.266240 0.792300 0.176860 -0.503682
O24   O     O_R   0.733760 0.792300 0.823140 -0.504828
O25   O     O_R   0.670310 0.409160 0.168720 -0.530914
O26   O     O_R   0.329690 0.409160 0.831280 -0.522894
O27   O     O_R   0.170310 0.909160 0.168720 -0.524412
O28   O     O_R   0.829690 0.909160 0.831280 -0.522640
O29   O     O_R   0.556160 0.251900 0.173380 -0.503389
O30   O     O_R   0.443840 0.251900 0.826620 -0.502664
O31   O     O_R   0.056160 0.751900 0.173380 -0.506629
O32   O     O_R   0.943840 0.751900 0.826620 -0.498495
O33   O     O_R   0.545410 0.050140 0.168240 -0.512854
O34   O     O_R   0.454590 0.050140 0.831760 -0.519234
O35   O     O_R   0.045410 0.550140 0.168240 -0.524657
O36   O     O_R   0.954590 0.550140 0.831760 -0.511435
O37   O     O_R   0.681530 0.958350 0.176970 -0.510812
O38   O     O_R   0.318470 0.958350 0.823030 -0.506026
O39   O     O_R   0.181530 0.458350 0.176970 -0.505980
O40   O     O_R   0.818470 0.458350 0.823030 -0.508853
O41   O     O_R   0.788610 0.044480 0.334450 -0.528023
O42   O     O_R   0.211390 0.044480 0.665550 -0.533607
O43   O     O_R   0.288610 0.544480 0.334450 -0.535373
O44   O     O_R   0.711390 0.544480 0.665550 -0.539088
O45   O     O_R   0.766630 0.293670 0.326970 -0.511725
O46   O     O_R   0.233370 0.293670 0.673030 -0.519586
O47   O     O_R   0.266630 0.793670 0.326970 -0.483372
O48   O     O_R   0.733370 0.793670 0.673030 -0.500245
O49   O     O_R   0.670730 0.410640 0.330640 -0.536877
O50   O     O_R   0.329270 0.410640 0.669360 -0.530341
O51   O     O_R   0.170730 0.910640 0.330640 -0.534334
O52   O     O_R   0.829270 0.910640 0.669360 -0.542646
H69   H     H_    0.844183 0.036108 0.061538 0.157463
H70   H     H_    0.141214 0.981015 0.927801 0.137960
H71   H     H_    0.340049 0.546513 0.059429 0.161181
H72   H     H_    0.641826 0.483826 0.928102 0.139238

loop_
_geom_bond_atom_site_label_1
_geom_bond_atom_site_label_2
_ccdc_geom_bond_type
C128  O16   A    
C99   C103  A    
C88   C96   A    
C15   C19   A    
C24   C52   A    
C88   H20   S    
C55   C59   A    
C78   C82   A    
Cr8   O20   S    
Cr8   O52   S    
C85   C93   A    
Cr8   O8    S    
C73   C93   A    
C78   C98   A    
C136  C140  S    
C76   C96   A    
C21   C49   A    
Cr11  O39   S    
C7    C8    S    
C26   H54   S    
C49   C89   S    
C132  C139  S    
C133  C137  S    
C74   C119  S    
C1    C12   S    
Cr7   O31   S    
Cr2   O2    S    
C33   C39   A    
C75   C79   A    
Cr2   O22   S    
Cr6   O30   S    
C37   C41   A    
C120  O48   A    
C124  O8    A    
C82   C110  A    
Cr6   O50   S    
C13   C29   A    
C35   C37   A    
C38   C42   A    
C6    C133  S    
C61   H5    S    
C53   C122  S    
C18   C42   A    
Cr1   O21   S    
C89   O1    A    
C5    C6    S    
C114  C126  S    
C132  C136  S    
Cr10  O34   S    
C113  C125  S    
Cr9   O33   S    
C122  O6    A    
C107  H35   S    
Cr8   O28   S    
C115  C127  S    
C6    C138  S    
C126  O42   A    
Cr5   O49   S    
C94   H26   S    
C105  H33   S    
C86   C114  A    
C9    C13   A    
C46   O30   A    
C35   H59   S    
C131  C140  S    
C86   C94   A    
C59   C67   A    
C24   H72   S    
C118  O46   A    
C23   H71   S    
C58   C66   A    
C100  C104  A    
C66   C72   A    
C129  C138  S    
C12   C16   A    
C83   C111  A    
C109  H37   S    
Cr10  O18   S    
C50   C90   S    
C100  H24   S    
Cr9   O17   S    
C33   H57   S    
C31   C33   A    
C4    O28   A    
C63   H7    S    
C48   O36   A    
C34   H58   S    
C40   C44   A    
C47   O31   A    
C61   C62   A    
C103  C107  A    
C80   C84   A    
C22   C50   A    
C45   O29   A    
C10   C26   A    
C11   C15   A    
C134  C138  S    
C75   C95   A    
Cr7   O27   S    
C59   C60   A    
C84   C116  A    
C73   C120  S    
C71   H15   S    
C127  O43   A    
C80   C100  A    
C8    C135  S    
C51   C91   S    
C72   H16   S    
Cr4   O48   S    
C121  O5    A    
C3    O27   A    
C31   H51   S    
C14   C30   A    
C25   H53   S    
C2    C11   S    
C92   O40   A    
C19   C43   A    
Cr5   O29   S    
C69   H13   S    
C68   H12   S    
C123  O7    A    
C101  C105  A    
C5    C134  S    
C122  O10   A    
Cr11  O11   S    
Cr8   O32   S    
Cr4   O20   S    
C121  O9    A    
C48   C140  S    
C9    C25   A    
C102  H30   S    
C56   C123  S    
C83   C115  A    
C111  H39   S    
C92   O4    A    
Cr2   O46   S    
C89   O37   A    
C88   C116  A    
C82   C114  A    
C10   C14   A    
C135  H3    S    
C17   C49   A    
C131  H43   S    
C6    H46   S    
C53   C57   A    
C5    H45   S    
Cr6   O6    S    
C42   H66   S    
Cr10  O14   S    
Cr5   O5    S    
C15   C31   A    
C110  H38   S    
Cr9   O13   S    
C108  C112  A    
Cr12  O12   S    
Cr5   O17   S    
C67   C69   A    
Cr3   O19   S    
Cr1   O45   S    
C48   O32   A    
C135  C139  S    
Cr1   O1    S    
C125  O13   A    
C47   O35   A    
Cr3   O3    S    
C98   C102  A    
C32   H52   S    
C112  H40   S    
C81   C113  A    
C53   C62   A    
Cr12  O40   S    
C13   C17   A    
C23   C51   A    
Cr12  O20   S    
C85   H17   S    
C11   C27   A    
C16   C20   A    
C87   H19   S    
C55   C64   A    
C64   H8    S    
C45   C137  S    
Cr4   O24   S    
C56   C63   A    
C99   H23   S    
C3    O23   A    
C119  O47   A    
C96   H28   S    
Cr3   O23   S    
C5    C137  S    
C2    O22   A    
Cr9   O37   S    
C117  O45   A    
C124  O12   A    
C106  H34   S    
C45   O33   A    
C36   H60   S    
C129  C133  S    
C1    O21   A    
C126  O14   A    
C95   H27   S    
C104  H32   S    
C54   C121  S    
C81   C109  A    
Cr6   O18   S    
C20   C44   A    
C23   C27   A    
Cr5   O25   S    
C75   C118  S    
C28   H56   S    
C103  H31   S    
C8    H48   S    
C66   H10   S    
Cr3   O43   S    
Cr1   O41   S    
C125  O41   A    
C131  C132  S    
C90   O38   A    
C7    C139  S    
C104  C108  A    
C4    O24   A    
C101  H29   S    
C18   C50   A    
Cr2   O42   S    
Cr11  O35   S    
C129  C130  S    
C106  C110  A    
C79   C99   A    
Cr2   O18   S    
C21   C25   A    
C55   C124  S    
C133  H1    S    
Cr1   O17   S    
C40   H62   S    
Cr6   O26   S    
C86   H18   S    
C107  C111  A    
C14   C18   A    
C108  H36   S    
C43   H67   S    
C24   C28   A    
C38   H64   S    
C130  H42   S    
C21   H69   S    
C47   C139  S    
C87   C95   A    
C129  H41   S    
C76   C80   A    
C90   O2    A    
Cr11  O15   S    
Cr12  O16   S    
C54   C61   A    
Cr7   O19   S    
C16   C32   A    
C119  O51   A    
C29   C35   A    
C131  C135  S    
C54   C58   A    
C120  O52   A    
C30   C36   A    
C8    C140  S    
C39   H61   S    
C87   C115  A    
C118  O50   A    
C85   C113  A    
C2    O26   A    
C74   C78   A    
Cr9   O9    S    
C71   C72   A    
C20   C52   A    
C3    C10   S    
C65   C71   A    
Cr10  O38   S    
C79   C83   A    
C29   H49   S    
C77   C97   A    
C57   C58   A    
C134  H2    S    
Cr10  O10   S    
C105  C109  A    
Cr11  O19   S    
C19   C51   A    
C98   H22   S    
Cr7   O7    S    
C36   C38   A    
Cr12  O36   S    
C37   H63   S    
C62   H6    S    
C102  C106  A    
Cr3   O47   S    
C128  O44   A    
C136  H4    S    
C7    H47   S    
C69   C70   A    
C130  C134  S    
C76   C117  S    
C17   C41   A    
C44   H68   S    
Cr4   O4    S    
C70   H14   S    
C91   O39   A    
C60   C68   A    
C22   C26   A    
C63   C64   A    
C117  O49   A    
C67   H11   S    
C56   C60   A    
C7    C136  S    
C30   H50   S    
C123  O11   A    
C12   C28   A    
C27   H55   S    
C68   C70   A    
C77   C81   A    
C116  C128  S    
C39   C43   A    
C65   H9    S    
C74   C94   A    
C132  H44   S    
C73   C77   A    
C46   C138  S    
C34   C40   A    
C1    O25   A    
C84   C112  A    
C127  O15   A    
C93   H25   S    
C4    C9    S    
C130  C137  S    
C91   O3    A    
Cr7   O51   S    
C46   O34   A    
C52   C92   S    
C97   C101  A    
C97   H21   S    
C22   H70   S    
C32   C34   A    
C41   H65   S    
C57   C65   A    
Cr4   O44   S    
