data_str_m9_o13_o18_f0_sra.sym.61
_audit_creation_date              2013-03-05T15:44:40-0500
_audit_creation_method            fapswitch 2.2
_symmetry_space_group_name_H-M    P1
_symmetry_Int_Tables_number       1
_space_group_crystal_system       triclinic
_cell_length_a                    24.727238
_cell_length_b                    7.205955
_cell_length_c                    14.599685
_cell_angle_alpha                 90.076964
_cell_angle_beta                  102.763634
_cell_angle_gamma                 90.452104
_cell_volume                      2537.04760525

loop_
_atom_site_label
_atom_site_type_symbol
_atom_site_description
_atom_site_fract_x
_atom_site_fract_y
_atom_site_fract_z
_atom_type_partial_charge
O1    O     O_R   0.319150 0.364170 0.330530 -0.591202
O2    O     O_R   0.680850 0.635830 0.669470 -0.590233
O3    O     O_R   0.180850 0.864170 0.169470 -0.594250
O4    O     O_R   0.819150 0.135830 0.830530 -0.593898
O5    O     O_R   0.210330 0.696850 0.354180 -0.582135
O6    O     O_R   0.789670 0.303150 0.645820 -0.582178
O7    O     O_R   0.289670 0.196850 0.145820 -0.584677
O8    O     O_R   0.710330 0.803150 0.854180 -0.584166
C1    C     C_R   0.197612 0.524440 0.378128 0.928899
C2    C     C_R   0.802069 0.475577 0.621414 0.929755
C3    C     C_R   0.302326 0.025132 0.121837 0.930347
C4    C     C_R   0.697553 0.975080 0.878109 0.931252
O9    O     O_R   0.320550 0.694110 0.341970 -0.589216
O10   O     O_R   0.679450 0.305890 0.658030 -0.587906
O11   O     O_R   0.179450 0.194110 0.158030 -0.590688
O12   O     O_R   0.820550 0.805890 0.841970 -0.588752
O13   O     O_R   0.291860 0.861000 0.157170 -0.591180
O14   O     O_R   0.708140 0.139000 0.842830 -0.590614
O15   O     O_R   0.208140 0.361000 0.342830 -0.592162
O16   O     O_R   0.791860 0.639000 0.657170 -0.591699
C5    C     C_R   0.341969 0.525493 0.361458 0.942318
C6    C     C_R   0.658246 0.474280 0.638067 0.947503
C7    C     C_R   0.158287 0.024042 0.137893 0.944255
C8    C     C_R   0.841683 0.975882 0.862182 0.948422
O17   O     O_3   0.240460 0.529330 0.189380 -0.284515
O18   O     O_3   0.759540 0.470670 0.810620 -0.283521
O19   O     O_3   0.259540 0.029330 0.310620 -0.281987
O20   O     O_3   0.740460 0.970670 0.689380 -0.280531
V1    V     V_3+5 0.251770 0.805510 0.261240 1.189412
V2    V     V_3+5 0.748230 0.194490 0.738760 1.196093
V3    V     V_3+5 0.248230 0.305510 0.238760 1.186882
V4    V     V_3+5 0.751770 0.694490 0.761240 1.194396
C9    C     C_R   0.103330 0.005357 0.073450 -0.157479
C10   C     C_R   0.896652 0.993637 0.926563 -0.191210
C11   C     C_R   0.396927 0.510514 0.426038 -0.147143
C12   C     C_R   0.603550 0.486575 0.572962 -0.180985
C13   C     C_R   0.957714 0.159858 0.054965 0.606824
C14   C     C_R   0.041921 0.831849 0.946659 0.600579
C15   C     C_R   0.545619 0.616963 0.431185 0.581284
C16   C     C_R   0.455491 0.359374 0.563053 0.598254
C17   C     C_R   0.905073 0.128598 0.997559 -0.294653
C18   C     C_R   0.094934 0.866749 0.004128 -0.338395
C19   C     C_R   0.597764 0.593077 0.491546 -0.298109
C20   C     C_R   0.402804 0.394229 0.504358 -0.344817
C21   C     C_R   0.941924 0.891724 0.911522 -0.198068
C22   C     C_R   0.057975 0.106412 0.088491 -0.217571
C23   C     C_R   0.556453 0.405401 0.595266 -0.202964
C24   C     C_R   0.444253 0.587371 0.402545 -0.221098
C25   C     C_R   0.995990 0.928824 0.964690 0.001230
C26   C     C_R   0.004056 0.066553 0.036210 -0.043129
C27   C     C_R   0.503025 0.437555 0.538886 0.005097
C28   C     C_R   0.497480 0.549320 0.457338 -0.029560
H1    H     H_    0.064588 0.209852 0.143898 0.163692
H2    H     H_    0.935056 0.789794 0.855402 0.175273
H3    H     H_    0.439506 0.670881 0.339614 0.163910
H4    H     H_    0.561611 0.323857 0.658884 0.171998
H5    H     H_    0.130041 0.784190 0.996871 0.148341
H6    H     H_    0.870417 0.209889 0.008751 0.156450
H7    H     H_    0.365667 0.329181 0.516925 0.137714
H8    H     H_    0.634086 0.655332 0.473536 0.158288
C29   C     C_R   0.665685 0.989185 0.950928 -0.140898
C30   C     C_R   0.333875 0.012597 0.048724 -0.138342
C31   C     C_R   0.833172 0.490727 0.547561 -0.140152
C32   C     C_R   0.165363 0.508517 0.450265 -0.132253
C33   C     C_R   0.659340 0.102603 0.104670 0.356686
C34   C     C_R   0.340125 0.901955 0.894712 0.344358
C35   C     C_R   0.840207 0.614007 0.396165 0.352596
C36   C     C_R   0.156906 0.383304 0.600385 0.354488
C37   C     C_R   0.690912 0.058681 0.039204 -0.214430
C38   C     C_R   0.308648 0.942248 0.960695 -0.221555
C39   C     C_R   0.808800 0.572876 0.462326 -0.217487
C40   C     C_R   0.189401 0.430892 0.536831 -0.219091
C41   C     C_R   0.608554 0.959514 0.927191 -0.253733
C42   C     C_R   0.390649 0.049524 0.071264 -0.242225
C43   C     C_R   0.889349 0.448249 0.568017 -0.234313
C44   C     C_R   0.108573 0.542136 0.426412 -0.246551
C45   C     C_R   0.574784 0.002875 0.990674 0.080770
C46   C     C_R   0.424407 0.007736 0.007623 0.080091
C47   C     C_R   0.923213 0.490993 0.504379 0.077311
C48   C     C_R   0.073696 0.491450 0.487255 0.075528
C49   C     C_R   0.600688 0.082317 0.079057 -0.015799
C50   C     C_R   0.398698 0.924221 0.920196 -0.020835
C51   C     C_R   0.898050 0.577779 0.417945 -0.012542
C52   C     C_R   0.098558 0.405885 0.574157 -0.015407
C53   C     C_R   0.516017 0.973550 0.967942 0.115309
C54   C     C_R   0.483126 0.038621 0.030049 0.089866
C55   C     C_R   0.981597 0.456400 0.525838 0.097716
C56   C     C_R   0.014911 0.519173 0.463531 0.084203
C57   C     C_R   0.510067 0.131657 0.112874 -0.239560
C58   C     C_R   0.489259 0.877362 0.886062 -0.221339
C59   C     C_R   0.988352 0.608020 0.379734 -0.224568
C60   C     C_R   0.007653 0.359814 0.607439 -0.224468
C61   C     C_R   0.567360 0.146865 0.138084 -0.209125
C62   C     C_R   0.432130 0.856424 0.862301 -0.223327
C63   C     C_R   0.931479 0.633153 0.356990 -0.194783
C64   C     C_R   0.064563 0.337837 0.631382 -0.217916
H9    H     H_    0.585006 0.215781 0.203714 0.180583
H10   H     H_    0.414588 0.783813 0.797802 0.180168
H11   H     H_    0.914324 0.700148 0.290986 0.173053
H12   H     H_    0.081457 0.264971 0.695803 0.178310
H13   H     H_    0.407524 0.098883 0.141542 0.118763
H14   H     H_    0.591485 0.913632 0.856339 0.123617
H15   H     H_    0.092819 0.597751 0.357361 0.117415
H16   H     H_    0.905783 0.393331 0.637032 0.119206
H17   H     H_    0.264249 0.917383 0.943738 0.160638
H18   H     H_    0.735425 0.081006 0.056657 0.157656
H19   H     H_    0.233649 0.405519 0.554495 0.154799
H20   H     H_    0.765108 0.606983 0.447714 0.159360
H21   H     H_    0.488095 0.194076 0.160808 0.137837
H22   H     H_    0.511343 0.813699 0.838587 0.137137
H23   H     H_    0.010201 0.661470 0.329255 0.139341
H24   H     H_    0.985274 0.297122 0.654950 0.136611
O21   O     O_3   0.963785 0.287302 0.127467 -0.660509
C65   C     C_3   0.956805 0.196147 0.210138 0.096505
H25   H     H_    0.985978 0.262332 0.270337 0.149787
H26   H     H_    0.967546 0.045516 0.212794 0.088089
C66   C     C_3   0.897454 0.221319 0.223012 -0.252294
H27   H     H_    0.887114 0.370718 0.217014 0.253479
H28   H     H_    0.867747 0.145495 0.167135 0.204167
C67   C     C_3   0.890554 0.149898 0.318094 -0.846304
H29   H     H_    0.891726 0.996832 0.319229 0.256616
H30   H     H_    0.849928 0.194667 0.330692 0.304789
H31   H     H_    0.924130 0.203448 0.375534 0.241117
O22   O     O_3   0.032231 0.693178 0.878281 -0.682875
C68   C     C_3   0.072292 0.688525 0.822333 0.208276
H32   H     H_    0.058700 0.577726 0.769624 0.166712
H33   H     H_    0.113537 0.644320 0.862847 0.137369
C69   C     C_3   0.076091 0.870949 0.769216 -0.448995
H34   H     H_    0.033725 0.919385 0.736022 0.215579
H35   H     H_    0.097024 0.979642 0.818912 0.217312
C70   C     C_3   0.108987 0.844168 0.693218 -0.773657
H36   H     H_    0.149501 0.778120 0.722765 0.306786
H37   H     H_    0.116926 0.979448 0.662656 0.261200
H38   H     H_    0.084804 0.756732 0.635959 0.243890
O23   O     O_3   0.541994 0.711007 0.347674 -0.660229
C71   C     C_3   0.559285 0.591554 0.282710 0.131689
H39   H     H_    0.525208 0.492272 0.252987 0.101537
H40   H     H_    0.597193 0.511629 0.314980 0.123165
C72   C     C_3   0.572784 0.708465 0.203756 -0.233344
H41   H     H_    0.534334 0.777031 0.166237 0.209953
H42   H     H_    0.603966 0.815507 0.234935 0.257494
C73   C     C_3   0.595934 0.593543 0.133665 -0.950516
H43   H     H_    0.630543 0.505639 0.170572 0.293484
H44   H     H_    0.612501 0.685989 0.085739 0.279578
H45   H     H_    0.562522 0.506923 0.090573 0.265158
O24   O     O_3   0.463918 0.236628 0.638678 -0.687408
C74   C     C_3   0.420037 0.225585 0.686278 0.217883
H46   H     H_    0.432567 0.120532 0.741573 0.171280
H47   H     H_    0.381165 0.169769 0.641494 0.140182
C75   C     C_3   0.411358 0.408270 0.735080 -0.461653
H48   H     H_    0.452050 0.461610 0.775164 0.219083
H49   H     H_    0.392909 0.513513 0.682088 0.219565
C76   C     C_3   0.372901 0.379222 0.802557 -0.755869
H50   H     H_    0.332360 0.321396 0.764692 0.309192
H51   H     H_    0.365703 0.512709 0.835234 0.259895
H52   H     H_    0.392169 0.283893 0.859681 0.240341
N1    N     N_R   0.687572 0.169568 0.195757 0.232334
O25   O     O_R   0.730928 0.277028 0.203754 -0.361718
O26   O     O_R   0.676407 0.098367 0.271392 -0.395470
N2    N     N_R   0.311936 0.838212 0.802975 0.235907
O27   O     O_R   0.268039 0.732885 0.793566 -0.370747
O28   O     O_R   0.324063 0.909783 0.728165 -0.420096
N3    N     N_R   0.812908 0.698705 0.309289 0.229028
O29   O     O_R   0.776272 0.827218 0.309549 -0.345966
O30   O     O_R   0.816729 0.625519 0.229511 -0.402396
N4    N     N_R   0.183782 0.310252 0.690364 0.229501
O31   O     O_R   0.224326 0.193627 0.696595 -0.367510
O32   O     O_R   0.174324 0.382764 0.766931 -0.420869

loop_
_geom_bond_atom_site_label_1
_geom_bond_atom_site_label_2
_geom_bond_distance
_ccdc_geom_bond_type
O17   V3    1.762018 S    
C24   H3    1.083974 S    
C55   C56   1.427241 A    
O1    C5    1.322617 A    
N1    O25   1.301505 A    
C50   C62   1.396608 A    
O19   V1    1.757465 S    
C1    C32   1.458833 S    
O13   V1    2.027816 S    
O3    C7    1.322464 A    
C74   H46   1.102548 S    
C60   C64   1.383420 A    
C48   C52   1.425222 A    
C70   H38   1.106870 S    
O15   V3    2.030095 S    
C69   H34   1.111770 S    
C2    C31   1.459930 S    
C34   N2    1.439249 S    
C65   H25   1.110669 S    
O23   C71   1.416377 S    
C14   C25   1.411265 A    
C15   O23   1.381554 S    
C53   C54   1.426263 A    
O7    C3    1.343517 A    
C9    C18   1.402196 A    
O9    V1    2.016045 S    
C74   H47   1.108459 S    
C17   H6    1.083389 S    
C14   C18   1.412019 A    
C66   H28   1.109648 S    
O4    C8    1.322958 A    
C72   C73   1.524676 S    
C63   H11   1.079579 S    
C13   O21   1.382520 S    
C62   H10   1.078555 S    
C20   H7    1.079123 S    
C57   H21   1.076230 S    
O1    V3    1.999420 S    
C30   C38   1.391714 A    
C12   C23   1.400636 A    
O2    V4    1.999419 S    
C52   C64   1.396431 A    
C59   H23   1.075530 S    
O3    V1    2.006023 S    
C1    O15   1.335259 A    
N3    O29   1.301167 A    
C2    O16   1.335775 A    
C7    C9    1.477107 S    
C75   C76   1.526418 S    
O2    C6    1.323961 A    
C68   C69   1.539870 S    
C56   C59   1.411266 A    
O14   V2    2.027816 S    
C45   C49   1.424807 A    
C76   H51   1.106133 S    
C16   C20   1.416744 A    
C67   H31   1.108093 S    
C36   C40   1.396448 A    
C46   C54   1.431627 A    
C44   H15   1.076434 S    
O11   C7    1.335316 A    
C15   C28   1.411540 A    
C45   C53   1.431178 A    
O12   C8    1.334717 A    
C55   C60   1.410315 A    
N4    O32   1.301222 A    
C9    C22   1.399120 A    
C73   H45   1.108652 S    
N4    O31   1.301081 A    
C10   C17   1.400795 A    
O10   V2    2.016045 S    
C71   C72   1.522504 S    
C11   C24   1.400526 A    
C18   H5    1.080455 S    
C47   C55   1.431957 A    
C67   H30   1.110715 S    
C58   C62   1.385161 A    
O5    V1    2.027021 S    
C53   C58   1.410074 A    
O7    V3    2.031851 S    
O24   C74   1.413721 S    
C27   C28   1.420240 A    
O8    V4    2.031853 S    
C74   C75   1.534979 S    
C33   N1    1.439233 S    
C66   C67   1.525177 S    
O18   V4    1.762019 S    
C60   H24   1.076078 S    
C23   C27   1.414722 A    
C29   C41   1.392912 A    
C54   C57   1.410765 A    
C57   C61   1.386201 A    
C8    C10   1.476411 S    
C65   H26   1.118187 S    
C36   C52   1.419325 A    
O5    C1    1.344705 A    
C34   C50   1.421243 A    
C49   C61   1.398913 A    
C46   C50   1.424389 A    
C33   C49   1.421780 A    
C40   H19   1.084286 S    
C21   C25   1.413005 A    
O8    C4    1.345578 A    
C51   C63   1.398313 A    
C32   C44   1.393358 A    
O9    C5    1.335029 A    
C10   C21   1.400672 A    
C35   C51   1.421322 A    
C76   H52   1.107045 S    
C11   C20   1.400654 A    
C23   H4    1.083755 S    
C19   H8    1.084146 S    
C42   H13   1.077433 S    
C71   H40   1.116430 S    
C41   H14   1.077703 S    
O6    V2    2.027021 S    
C31   C39   1.392263 A    
C21   H2    1.083776 S    
C68   H32   1.105634 S    
C75   H49   1.110350 S    
C58   H22   1.076750 S    
C70   H36   1.110556 S    
C69   C70   1.526655 S    
C61   H9    1.079664 S    
C73   H44   1.106710 S    
C67   H29   1.103644 S    
O21   C65   1.417891 S    
O16   V4    2.030094 S    
C29   C37   1.392492 A    
C3    O13   1.337055 A    
C37   H18   1.084183 S    
N3    O30   1.300537 A    
C73   H43   1.108905 S    
C44   C48   1.414419 A    
C71   H39   1.112779 S    
C70   H37   1.106688 S    
C38   H17   1.084141 S    
C69   H35   1.110822 S    
O6    C2    1.344706 A    
C15   C19   1.403782 A    
C72   H41   1.107310 S    
O11   V3    2.004066 S    
C5    C11   1.477771 S    
O12   V4    2.004064 S    
C16   C27   1.413063 A    
C6    C12   1.474642 S    
C22   C26   1.409409 A    
C3    C30   1.457731 S    
C16   O24   1.395956 S    
N2    O27   1.301523 A    
O10   C6    1.332550 A    
O20   V2    1.757464 S    
C48   C56   1.433565 A    
C66   H27   1.107571 S    
C47   C51   1.425473 A    
C4    C29   1.460378 S    
C72   H42   1.109626 S    
C43   H16   1.076887 S    
C31   C43   1.391457 A    
C33   C37   1.398556 A    
C64   H12   1.079803 S    
C22   H1    1.083830 S    
C13   C26   1.410837 A    
C35   C39   1.397338 A    
C32   C40   1.392364 A    
C13   C17   1.400111 A    
O4    V2    2.006025 S    
C65   C66   1.532340 S    
C59   C63   1.385123 A    
C35   N3    1.437775 S    
C24   C28   1.410131 A    
C34   C38   1.397222 A    
N1    O26   1.301084 A    
C25   C26   1.420261 A    
C42   C46   1.413064 A    
C4    O14   1.336184 A    
C68   H33   1.109305 S    
C41   C45   1.413945 A    
C75   H48   1.111649 S    
C30   C42   1.392699 A    
C12   C19   1.396915 A    
C76   H50   1.109994 S    
C39   H20   1.084254 S    
C43   C47   1.414118 A    
C14   O22   1.392981 S    
N2    O28   1.300994 A    
O22   C68   1.416889 S    
C36   N4    1.437398 S    
