data_str_m2_o10_o29_f0_pcu.sym.72
_audit_creation_date              2012-10-26T20:17:41-0400
_audit_creation_method            fapswitch 2.2
_symmetry_space_group_name_H-M    P1
_symmetry_Int_Tables_number       1
_space_group_crystal_system       triclinic
_cell_length_a                    27.813666
_cell_length_b                    8.673032
_cell_length_c                    7.48814
_cell_angle_alpha                 103.62793
_cell_angle_beta                  94.223473
_cell_angle_gamma                 93.903925
_cell_volume                      1743.91694451

loop_
_atom_site_label
_atom_site_type_symbol
_atom_type_description
_atom_site_fract_x
_atom_site_fract_y
_atom_site_fract_z
_atom_type_partial_charge
C1    C     C_R   0.498261 0.199480 0.452694 0.520725
C2    C     C_R   0.868375 0.370231 0.416141 -0.006016
C3    C     C_R   0.354595 0.509737 0.504336 0.010603
C4    C     C_R   0.645717 0.507924 0.493110 0.006236
C5    C     C_R   0.970472 0.370814 0.410178 0.024941
C6    C     C_R   0.029584 0.665772 0.517780 0.025090
C7    C     C_R   0.978737 0.661449 0.533298 0.019951
C8    C     C_R   0.021257 0.375532 0.393312 0.020548
C9    C     C_R   0.949179 0.515831 0.470221 -0.041596
C10   C     C_R   0.050834 0.520665 0.458800 -0.041919
C11   C     C_R   0.940819 0.225307 0.382641 0.213084
C12   C     C_R   0.501915 0.800541 0.547272 0.519127
C13   C     C_R   0.059504 0.810845 0.546443 0.212790
C14   C     C_R   0.889885 0.225106 0.369499 0.263765
C15   C     C_R   0.110428 0.810527 0.566339 0.267139
C16   C     C_R   0.407533 0.501962 0.502246 0.561435
C17   C     C_R   0.592565 0.502595 0.498291 0.560333
C18   C     C_R   0.043125 0.241208 0.300523 -0.092345
C19   C     C_R   0.956907 0.796573 0.624144 -0.095166
C20   C     C_2   0.496322 0.030758 0.427098 -0.162198
C21   C     C_2   0.504131 0.969274 0.572744 -0.161350
C22   C     C_R   0.174038 0.378179 0.411339 0.429939
C23   C     C_R   0.101932 0.520834 0.459225 -0.135785
C24   C     C_R   0.825985 0.656856 0.526607 0.408625
C25   C     C_R   0.182469 0.659322 0.534890 0.456547
C26   C     C_R   0.817718 0.374375 0.416078 0.465530
C27   C     C_R   0.277976 0.541382 0.340245 0.284416
C28   C     C_R   0.715338 0.472640 0.310426 0.275353
C29   C     C_R   0.328351 0.537119 0.348393 -0.195543
C30   C     C_R   0.665089 0.469042 0.321258 -0.194301
C31   C     C_R   0.329811 0.489631 0.656382 0.205397
C32   C     C_R   0.677394 0.553378 0.656844 0.209656
C33   C     C_R   0.279171 0.491427 0.646020 -0.116276
C34   C     C_R   0.898134 0.515029 0.474164 -0.136532
C35   C     C_R   0.727503 0.555710 0.644830 -0.098767
C36   C     C_R   0.253608 0.516439 0.489144 0.250433
C37   C     C_R   0.746403 0.515807 0.473670 0.241338
C38   C     C_3   0.437634 0.231543 0.963948 0.060306
C39   C     C_3   0.402390 0.128565 0.809752 -0.367076
C40   C     C_3   0.564840 0.762393 0.039784 0.063034
C41   C     C_3   0.602348 0.854372 0.192688 -0.372334
C42   C     C_3   0.857598 0.013687 0.139861 0.024102
C43   C     C_3   0.829523 0.850625 0.099951 -0.299345
C44   C     C_3   0.140972 0.025751 0.794714 0.021519
C45   C     C_R   0.123230 0.376678 0.394386 0.054573
C46   C     C_3   0.169750 0.187624 0.833874 -0.298569
C47   C     C_R   0.876810 0.659255 0.538110 0.054373
C48   C     C_R   0.093403 0.237310 0.308185 0.230043
C49   C     C_R   0.906648 0.799848 0.619073 0.233058
C50   C     C_R   0.131781 0.664913 0.523654 0.000896
Cu1   Cu    Cu3+1 0.505380 0.517380 0.684380 1.083434
Cu2   Cu    Cu3+1 0.494620 0.482620 0.315620 1.034471
H1    H     H_    0.259363 0.473579 0.759778 0.109935
H2    H     H_    0.686133 0.632028 0.924472 0.322459
H3    H     H_    0.420688 0.240712 0.094962 0.164869
H4    H     H_    0.471462 0.170177 0.966978 0.121317
H5    H     H_    0.414927 0.130801 0.673040 0.170298
H6    H     H_    0.399757 0.003653 0.823740 0.104324
H7    H     H_    0.365854 0.172224 0.817520 0.181895
H8    H     H_    0.531927 0.828980 0.045523 0.114936
H9    H     H_    0.580268 0.756768 0.906520 0.198903
H10   H     H_    0.636224 0.793297 0.188106 0.175912
H11   H     H_    0.610514 0.976708 0.174879 0.109078
H12   H     H_    0.752193 0.587972 0.769209 0.124387
H13   H     H_    0.588437 0.862326 0.329455 0.157534
H14   H     H_    0.087721 0.011849 0.179547 0.319043
H15   H     H_    0.912320 0.026290 0.743860 0.319292
H16   H     H_    0.708419 0.400518 0.042821 0.330675
H17   H     H_    0.274255 0.591089 0.100030 0.312338
H18   H     H_    0.893815 0.997396 0.087289 0.132315
H19   H     H_    0.837822 0.089859 0.064107 0.188713
H20   H     H_    0.792761 0.862154 0.147623 0.202166
H21   H     H_    0.826092 0.795812 0.949402 0.142811
H22   H     H_    0.848862 0.771722 0.172380 0.158899
H23   H     H_    0.641160 0.435202 0.194942 0.162403
H24   H     H_    0.159202 0.951272 0.877054 0.188947
H25   H     H_    0.104136 0.044776 0.840184 0.130387
H26   H     H_    0.151681 0.265383 0.756224 0.146871
H27   H     H_    0.171992 0.245365 0.983548 0.171065
H28   H     H_    0.206969 0.173533 0.791638 0.195579
H29   H     H_    0.937572 0.997659 0.381605 0.372966
H30   H     H_    0.063503 0.036939 0.540937 0.373387
H31   H     H_    0.347091 0.556412 0.232819 0.141686
H32   H     H_    0.021622 0.138479 0.215214 0.170150
H33   H     H_    0.978429 0.900431 0.706778 0.170814
H34   H     H_    0.487823 0.956946 0.288047 0.122527
H35   H     H_    0.512598 0.043110 0.711809 0.122215
H36   H     H_    0.332226 0.448687 0.901045 0.305859
N1    N     N_R   0.202059 0.517635 0.481261 -0.393867
N2    N     N_R   0.797895 0.516053 0.467871 -0.394929
N3    N     N_2   0.486510 0.456430 0.038510 0.091825
N4    N     N_2   0.513490 0.543570 0.961490 0.089596
O1    O     O_R   0.503500 0.286120 0.619780 -0.487537
O2    O     O_2   0.804454 0.793752 0.572698 -0.409091
O3    O     O_2   0.788200 0.238320 0.367121 -0.402222
O4    O     O_2   0.212288 0.793615 0.598610 -0.422758
O5    O     O_3   0.355293 0.467786 0.812220 -0.656677
O6    O     O_3   0.659044 0.596267 0.826320 -0.694598
O7    O     O_3   0.446723 0.383215 0.930201 -0.412742
O8    O     O_3   0.554649 0.608618 0.065773 -0.447560
O9    O     O_3   0.113648 0.099150 0.228461 -0.647432
O10   O     O_3   0.886448 0.938228 0.698451 -0.644509
O11   O     O_3   0.735003 0.434566 0.143216 -0.677663
O12   O     O_R   0.496500 0.713880 0.380220 -0.486551
O13   O     O_3   0.251644 0.569340 0.189187 -0.673258
O14   O     O_3   0.861490 0.081614 0.331914 -0.495878
O15   O     O_3   0.139161 0.953404 0.604108 -0.494056
O16   O     O_3   0.962196 0.086726 0.387246 -0.698351
O17   O     O_3   0.038560 0.949006 0.536261 -0.697818
O18   O     O_R   0.494410 0.256780 0.308360 -0.554138
O19   O     O_R   0.505590 0.743220 0.691640 -0.556502
O20   O     O_R   0.434810 0.514700 0.655690 -0.401688
O21   O     O_R   0.565190 0.485300 0.344310 -0.479873
O22   O     O_R   0.425720 0.485350 0.344280 -0.532895
O23   O     O_R   0.574280 0.514650 0.655720 -0.451430
O24   O     O_2   0.195615 0.241990 0.359278 -0.402045

loop_
_geom_bond_atom_site_label_1
_geom_bond_atom_site_label_2
_ccdc_geom_bond_type
C36   N1    S    
C43   H21   S    
C21   H35   S    
C43   H20   S    
C40   H8    S    
C27   C29   A    
H16   O11   S    
C17   O21   A    
C47   C49   A    
Cu2   O21   S    
C17   O23   A    
Cu1   O20   S    
C37   N2    S    
C23   C45   A    
C44   H25   S    
C35   C37   A    
C29   H31   S    
C46   H27   S    
C1    O18   A    
C11   C14   A    
C45   C48   A    
C27   O13   S    
C39   H5    S    
C42   H18   S    
C33   C36   A    
C44   H24   S    
C15   C50   A    
C15   O15   S    
C3    C29   A    
C25   C50   A    
C13   O17   S    
C38   H3    S    
C20   H34   S    
C18   H32   S    
C31   C33   A    
C35   H12   S    
H36   O5    S    
C2    C34   A    
C43   H22   S    
C22   O24   S    
H29   O16   S    
H14   O9    S    
C41   H10   S    
C44   C46   S    
C33   H1    S    
Cu1   Cu2   S    
C32   C35   A    
C49   O10   S    
C46   H26   S    
H17   O13   S    
C23   C50   A    
C41   H13   S    
C39   H6    S    
C12   C21   S    
C8    C18   A    
C40   H9    S    
C24   N2    A    
H30   O17   S    
C5    C9    A    
C24   O2    S    
Cu1   N4    S    
C19   C49   A    
C16   O20   A    
Cu2   O18   S    
C39   H7    S    
C2    C26   A    
C12   O12   A    
C3    C31   A    
C42   O14   S    
C4    C32   A    
Cu1   O1    S    
C4    C17   S    
C1    O1    A    
C40   C41   S    
C7    C19   A    
C13   C15   A    
C9    C34   A    
C10   C23   A    
C42   C43   S    
C41   H11   S    
N3    N4    D    
N4    O8    S    
C44   O15   S    
C26   O3    S    
C7    C9    A    
Cu2   O12   S    
C1    C20   S    
Cu1   O19   S    
C24   C47   A    
C38   O7    S    
C19   H33   S    
C16   O22   A    
C40   O8    S    
C5    C8    A    
C18   C48   A    
C5    C11   A    
C6    C7    A    
Cu2   O22   S    
C27   C36   A    
C26   N2    A    
C25   N1    A    
C28   C30   A    
C6    C13   A    
C46   H28   S    
C30   H23   S    
C28   O11   S    
C38   C39   S    
C28   C37   A    
C48   O9    S    
C42   H19   S    
C22   N1    A    
C32   O6    S    
C31   O5    S    
C2    C14   A    
Cu1   O23   S    
C6    C10   A    
C14   O14   S    
C22   C45   A    
C38   H4    S    
C20   C21   D    
C25   O4    S    
C8    C10   A    
C11   O16   S    
H2    O6    S    
Cu2   N3    S    
C34   C47   A    
N3    O7    S    
C12   O19   A    
C4    C30   A    
C3    C16   S    
H15   O10   S    
