data_str_m4_o4_o15_f0_acs.sym.113
_audit_creation_date              2012-12-11T15:44:46-0500
_audit_creation_method            fapswitch 2.2
_symmetry_space_group_name_H-M    P1
_symmetry_Int_Tables_number       1
_space_group_crystal_system       triclinic
_cell_length_a                    19.031528
_cell_length_b                    10.941459
_cell_length_c                    18.770806
_cell_angle_alpha                 90.459411
_cell_angle_beta                  89.925464
_cell_angle_gamma                 89.766639
_cell_volume                      3908.53375842

loop_
_atom_site_label
_atom_site_type_symbol
_atom_type_description
_atom_site_fract_x
_atom_site_fract_y
_atom_site_fract_z
_atom_type_partial_charge
C1    C     C_R   0.759974 0.536510 0.647458 0.540839
C2    C     C_R   0.238717 0.534006 0.353556 0.537956
C3    C     C_R   0.259974 0.036510 0.647458 0.540840
C4    C     C_R   0.738717 0.034006 0.353556 0.537955
C5    C     C_R   0.741994 0.022961 0.550579 0.217944
C6    C     C_R   0.166391 0.096597 0.480954 0.190084
C7    C     C_R   0.241994 0.522960 0.550578 0.217941
C8    C     C_R   0.666390 0.596599 0.480954 0.190085
C9    C     C_R   0.726416 0.994939 0.479816 -0.100687
C10   C     C_R   0.175037 0.087548 0.554274 -0.105675
C11   C     C_R   0.226416 0.494938 0.479816 -0.100689
C12   C     C_R   0.675037 0.587550 0.554275 -0.105672
C13   C     C_3   0.770764 0.307825 0.421873 -0.256917
C14   C     C_3   0.367551 0.155304 0.535233 -0.252356
C15   C     C_3   0.270772 0.807825 0.421871 -0.256921
C16   C     C_3   0.867551 0.655303 0.535233 -0.252358
C17   C     C_3   0.785578 0.339988 0.498999 -0.276479
C18   C     C_3   0.355172 0.177068 0.456428 -0.274320
C19   C     C_3   0.285586 0.839987 0.498997 -0.276481
C20   C     C_3   0.855171 0.677069 0.456428 -0.274319
C21   C     C_R   0.775023 0.134536 0.566611 0.039977
C22   C     C_R   0.219653 0.149385 0.438517 0.008261
C23   C     C_R   0.275022 0.634535 0.566611 0.039980
C24   C     C_R   0.719653 0.649388 0.438517 0.008260
C25   C     C_R   0.000741 0.350837 0.427293 -0.040417
C26   C     C_R   0.005688 0.328118 0.576566 -0.022434
C27   C     C_R   0.500741 0.850837 0.427293 -0.040419
C28   C     C_R   0.505688 0.828119 0.576566 -0.022433
C29   C     C_R   0.949487 0.146698 0.416846 -0.030141
C30   C     C_R   0.973247 0.108263 0.561172 -0.049311
C31   C     C_R   0.449488 0.646698 0.416846 -0.030141
C32   C     C_R   0.473248 0.608263 0.561173 -0.049310
C33   C     C_R   0.930838 0.035946 0.447419 -0.061637
C34   C     C_R   0.944095 0.015858 0.519163 -0.076709
C35   C     C_R   0.430839 0.535945 0.447419 -0.061636
C36   C     C_R   0.444097 0.515858 0.519164 -0.076707
C37   C     C_R   0.986396 0.225842 0.532990 0.016680
C38   C     C_R   0.979415 0.241035 0.458570 0.026164
C39   C     C_R   0.486397 0.725843 0.532990 0.016679
C40   C     C_R   0.479416 0.741035 0.458570 0.026163
C41   C     C_R   0.030196 0.435453 0.544479 0.016968
C42   C     C_R   0.017086 0.453984 0.471841 -0.000093
C43   C     C_R   0.530195 0.935455 0.544479 0.016970
C44   C     C_R   0.517085 0.953985 0.471840 -0.000094
C45   C     C_R   0.790991 0.169126 0.638653 0.588298
C46   C     C_R   0.209627 0.167903 0.361805 0.578747
C47   C     C_R   0.290990 0.669125 0.638653 0.588299
C48   C     C_R   0.709627 0.667903 0.361805 0.578746
C49   C     C_R   0.061939 0.529741 0.585226 -0.037693
C50   C     C_R   0.020342 0.576380 0.446929 -0.082887
C51   C     C_R   0.561938 0.029744 0.585226 -0.037691
C52   C     C_R   0.520341 0.076381 0.446929 -0.082888
C53   C     C_R   0.072220 0.645326 0.556843 -0.116766
C54   C     C_R   0.048753 0.669821 0.488568 -0.136919
C55   C     C_R   0.572218 0.145330 0.556842 -0.116767
C56   C     C_R   0.548750 0.169823 0.488567 -0.136920
C57   C     C_R   0.743903 0.054758 0.070232 0.018072
C58   C     C_R   0.242948 0.092780 0.919481 0.020352
C59   C     C_R   0.243903 0.554759 0.070232 0.018072
C60   C     C_R   0.742948 0.592781 0.919481 0.020352
C61   C     C_R   0.795359 0.992664 0.031347 0.038341
C62   C     C_R   0.183171 0.054882 0.956881 0.022908
C63   C     C_R   0.295359 0.492665 0.031347 0.038341
C64   C     C_R   0.683170 0.554885 0.956880 0.022908
C65   C     C_R   0.799041 0.000824 0.958553 0.030229
C66   C     C_R   0.180118 0.065442 0.029603 0.031709
C67   C     C_R   0.299042 0.500825 0.958553 0.030229
C68   C     C_R   0.680117 0.565444 0.029603 0.031709
C69   C     C_R   0.691623 0.117366 0.957574 -0.171407
C70   C     C_R   0.288952 0.175367 0.030341 -0.153562
C71   C     C_R   0.191623 0.617366 0.957574 -0.171408
C72   C     C_R   0.788953 0.675365 0.030341 -0.153561
C73   C     C_R   0.688795 0.110493 0.032264 -0.164228
C74   C     C_R   0.292188 0.165343 0.955719 -0.152287
C75   C     C_R   0.188796 0.610494 0.032264 -0.164228
C76   C     C_R   0.792189 0.665342 0.955719 -0.152285
C77   C     C_3   0.873111 0.992962 0.040657 -0.279826
C78   C     C_3   0.147257 0.933322 0.958996 -0.269924
C79   C     C_3   0.373111 0.492964 0.040658 -0.279826
C80   C     C_3   0.647253 0.433328 0.958995 -0.269924
C81   C     C_3   0.877839 0.000431 0.960417 -0.268897
C82   C     C_3   0.144085 0.946114 0.039054 -0.279228
C83   C     C_3   0.377840 0.500433 0.960417 -0.268897
C84   C     C_3   0.644082 0.446118 0.039053 -0.279227
C85   C     C_R   0.751156 0.073626 0.920968 0.019471
C86   C     C_R   0.235545 0.114978 0.068254 0.016922
C87   C     C_R   0.251156 0.573626 0.920968 0.019471
C88   C     C_R   0.735545 0.614978 0.068254 0.016922
C89   C     C_R   0.972671 0.343649 0.647514 0.524437
C90   C     C_R   0.028608 0.348562 0.353580 0.527347
C91   C     C_R   0.472671 0.843649 0.647514 0.524437
C92   C     C_R   0.528608 0.848562 0.353580 0.527346
C93   C     C_R   0.997301 0.334155 0.077375 0.014643
C94   C     C_R   0.987265 0.342741 0.928804 0.023566
C95   C     C_R   0.497302 0.834155 0.077375 0.014643
C96   C     C_R   0.487265 0.842741 0.928804 0.023566
C97   C     C_R   0.967323 0.435580 0.044357 0.016988
C98   C     C_R   0.963486 0.439419 0.971517 0.044547
C99   C     C_R   0.467323 0.935579 0.044357 0.016987
C100  C     C_R   0.463485 0.939419 0.971517 0.044546
C101  C     C_R   0.007618 0.233737 0.961562 -0.173394
C102  C     C_R   0.011858 0.228986 0.035774 -0.165372
C103  C     C_R   0.507619 0.733738 0.961562 -0.173394
C104  C     C_R   0.511858 0.728987 0.035774 -0.165371
C105  C     C_3   0.983635 0.569377 0.049219 -0.270193
C106  C     C_3   0.982054 0.571516 0.968775 -0.266217
C107  C     C_3   0.483634 0.069376 0.049219 -0.270194
C108  C     C_3   0.482052 0.071516 0.968776 -0.266217
C109  C     C_R   0.759492 0.534453 0.851437 0.553991
C110  C     C_R   0.238266 0.527720 0.145819 0.545309
C111  C     C_R   0.259492 0.034453 0.851437 0.553990
C112  C     C_R   0.738265 0.027719 0.145819 0.545309
C113  C     C_R   0.771959 0.124164 0.852442 0.568118
C114  C     C_R   0.225280 0.132263 0.144342 0.549611
C115  C     C_R   0.271959 0.624165 0.852442 0.568117
C116  C     C_R   0.725280 0.632262 0.144342 0.549611
C117  C     C_R   0.969132 0.347251 0.854306 0.551120
C118  C     C_R   0.029630 0.346100 0.146651 0.548255
C119  C     C_R   0.469132 0.847251 0.854306 0.551120
C120  C     C_R   0.529630 0.846100 0.146651 0.548256
C121  C     C_R   0.745721 0.075409 0.425385 -0.000232
C122  C     C_R   0.241225 0.108239 0.584927 0.018506
C123  C     C_R   0.245721 0.575409 0.425385 -0.000231
C124  C     C_R   0.741225 0.608240 0.584927 0.018507
C125  C     C_R   0.784953 0.178304 0.441232 -0.019952
C126  C     C_R   0.290524 0.173070 0.545143 0.066458
C127  C     C_R   0.284954 0.678301 0.441233 -0.019949
C128  C     C_R   0.790524 0.673071 0.545143 0.066455
C129  C     C_R   0.798732 0.208036 0.511392 -0.051118
C130  C     C_R   0.279114 0.195664 0.473460 -0.014006
C131  C     C_R   0.298732 0.708032 0.511392 -0.051116
C132  C     C_R   0.779114 0.695666 0.473460 -0.014006
Cr1   Cr    Cr6+3 0.885860 0.491680 0.749630 1.017891
Cr2   Cr    Cr6+3 0.114140 0.491680 0.250370 1.008617
Cr3   Cr    Cr6+3 0.385860 0.991680 0.749630 1.017891
Cr4   Cr    Cr6+3 0.614140 0.991680 0.250370 1.008616
Cr5   Cr    Cr6+3 0.730490 0.332970 0.748720 1.012233
Cr6   Cr    Cr6+3 0.269510 0.332970 0.251280 1.002030
Cr7   Cr    Cr6+3 0.230490 0.832970 0.748720 1.012233
Cr8   Cr    Cr6+3 0.769510 0.832970 0.251280 1.002031
Cr9   Cr    Cr6+3 0.887570 0.179310 0.750150 1.015119
Cr10  Cr    Cr6+3 0.112430 0.179310 0.249850 1.044205
Cr11  Cr    Cr6+3 0.387570 0.679310 0.750150 1.015120
Cr12  Cr    Cr6+3 0.612430 0.679310 0.249850 1.044205
H1    H     H_    0.095471 0.717164 0.588925 0.137499
H2    H     H_    0.051922 0.761519 0.467863 0.176250
H3    H     H_    0.595468 0.217168 0.588924 0.137498
H4    H     H_    0.551918 0.261521 0.467861 0.176249
H5    H     H_    0.650626 0.165481 0.929406 0.115674
H6    H     H_    0.328871 0.226535 0.058244 0.127300
H7    H     H_    0.150626 0.665481 0.929406 0.115674
H8    H     H_    0.828873 0.726531 0.058244 0.127298
H9    H     H_    0.645483 0.152831 0.060299 0.119489
H10   H     H_    0.335129 0.206646 0.927158 0.119787
H11   H     H_    0.145484 0.652833 0.060299 0.119489
H12   H     H_    0.835131 0.706643 0.927159 0.119786
H13   H     H_    0.893879 0.905738 0.062059 0.131396
H14   H     H_    0.182918 0.858898 0.941629 0.168704
H15   H     H_    0.393879 0.405740 0.062059 0.131396
H16   H     H_    0.682912 0.358900 0.941627 0.168703
H17   H     H_    0.891994 0.076600 0.068534 0.142095
H18   H     H_    0.094738 0.935057 0.933141 0.129096
H19   H     H_    0.391994 0.576602 0.068535 0.142095
H20   H     H_    0.594734 0.435068 0.933140 0.129094
H21   H     H_    0.900436 0.087750 0.942239 0.171540
H22   H     H_    0.089695 0.956119 0.059817 0.133682
H23   H     H_    0.400436 0.587752 0.942239 0.171540
H24   H     H_    0.589693 0.456125 0.059816 0.133682
H25   H     H_    0.900725 0.916945 0.935290 0.126442
H26   H     H_    0.177310 0.878426 0.067470 0.140372
H27   H     H_    0.400725 0.416948 0.935290 0.126442
H28   H     H_    0.677306 0.378427 0.067468 0.140372
H29   H     H_    0.021533 0.153865 0.930033 0.124121
H30   H     H_    0.032574 0.147015 0.059781 0.140060
H31   H     H_    0.521535 0.653866 0.930033 0.124121
H32   H     H_    0.532576 0.647016 0.059781 0.140061
H33   H     H_    0.036233 0.590281 0.070643 0.162593
H34   H     H_    0.939552 0.628822 0.946950 0.138383
H35   H     H_    0.536231 0.090281 0.070642 0.162593
H36   H     H_    0.439549 0.128820 0.946951 0.138385
H37   H     H_    0.940174 0.622351 0.074311 0.127080
H38   H     H_    0.034395 0.586769 0.944295 0.136174
H39   H     H_    0.440172 0.122349 0.074311 0.127081
H40   H     H_    0.534392 0.086771 0.944295 0.136175
H41   H     H_    0.699114 0.910901 0.467150 0.135577
H42   H     H_    0.134237 0.041775 0.584154 0.163745
H43   H     H_    0.199116 0.410901 0.467149 0.135577
H44   H     H_    0.634236 0.541777 0.584154 0.163744
H45   H     H_    0.215257 0.824020 0.405980 0.195493
H46   H     H_    0.886182 0.561770 0.547495 0.149311
H47   H     H_    0.715248 0.324011 0.405983 0.195496
H48   H     H_    0.386183 0.061773 0.547497 0.149313
H49   H     H_    0.810847 0.344052 0.384521 0.133130
H50   H     H_    0.398224 0.228730 0.561597 0.149678
H51   H     H_    0.310858 0.844044 0.384520 0.133126
H52   H     H_    0.898226 0.728727 0.561596 0.149678
H53   H     H_    0.834034 0.394192 0.506067 0.125374
H54   H     H_    0.380415 0.261516 0.436834 0.141476
H55   H     H_    0.334047 0.894182 0.506065 0.125375
H56   H     H_    0.880415 0.761517 0.436834 0.141475
H57   H     H_    0.738402 0.372298 0.528219 0.165359
H58   H     H_    0.364480 0.094344 0.422840 0.135907
H59   H     H_    0.238412 0.872308 0.528216 0.165354
H60   H     H_    0.864479 0.594346 0.422839 0.135907
H61   H     H_    0.907794 0.964922 0.414819 0.124207
H62   H     H_    0.932882 0.927972 0.542182 0.110806
H63   H     H_    0.407795 0.464921 0.414820 0.124206
H64   H     H_    0.432884 0.427972 0.542183 0.110806
H65   H     H_    0.938642 0.159213 0.360770 0.114338
H66   H     H_    0.987526 0.084299 0.614934 0.137258
H67   H     H_    0.438642 0.659212 0.360771 0.114338
H68   H     H_    0.487527 0.584300 0.614934 0.137257
H69   H     H_    0.998033 0.603595 0.396604 0.146026
H70   H     H_    0.077550 0.514690 0.639928 0.176863
H71   H     H_    0.498032 0.103595 0.396603 0.146026
H72   H     H_    0.577549 0.014694 0.639928 0.176865
O1    O     O_R   0.957020 0.451640 0.669920 -0.524847
O2    O     O_R   0.042980 0.451640 0.330080 -0.533207
O3    O     O_R   0.457020 0.951640 0.669920 -0.524848
O4    O     O_R   0.542980 0.951640 0.330080 -0.533206
O5    O     O_R   0.736470 0.210100 0.823360 -0.503079
O6    O     O_R   0.263530 0.210100 0.176640 -0.505471
O7    O     O_R   0.236470 0.710100 0.823360 -0.503080
O8    O     O_R   0.763530 0.710100 0.176640 -0.505471
O9    O     O_R   0.831960 0.093290 0.830130 -0.513755
O10   O     O_R   0.168040 0.093290 0.169870 -0.515988
O11   O     O_R   0.331960 0.593290 0.830130 -0.513755
O12   O     O_R   0.668040 0.593290 0.169870 -0.515988
O13   O     O_R   0.945600 0.250580 0.824860 -0.512183
O14   O     O_R   0.054400 0.250580 0.175140 -0.513466
O15   O     O_R   0.445600 0.750580 0.824860 -0.512183
O16   O     O_R   0.554400 0.750580 0.175140 -0.513467
O17   O     O_3   0.834640 0.334650 0.749500 -0.272176
O18   O     O_3   0.165360 0.334650 0.250500 -0.270840
O19   O     O_3   0.334640 0.834650 0.749500 -0.272176
O20   O     O_3   0.665360 0.834650 0.250500 -0.270840
O21   O     O_R   0.821450 0.543440 0.674610 -0.491925
O22   O     O_R   0.178550 0.543440 0.325390 -0.493016
O23   O     O_R   0.321450 0.043440 0.674610 -0.491926
O24   O     O_R   0.678550 0.043440 0.325390 -0.493017
O25   O     O_R   0.715320 0.458650 0.668100 -0.545851
O26   O     O_R   0.284680 0.458650 0.331900 -0.534521
O27   O     O_R   0.215320 0.958650 0.668100 -0.545850
O28   O     O_R   0.784680 0.958650 0.331900 -0.534521
O29   O     O_R   0.737170 0.209590 0.674530 -0.484140
O30   O     O_R   0.262830 0.209590 0.325470 -0.513709
O31   O     O_R   0.237170 0.709590 0.674530 -0.484142
O32   O     O_R   0.762830 0.709590 0.325470 -0.513709
O33   O     O_R   0.832710 0.092740 0.669580 -0.473748
O34   O     O_R   0.167290 0.092740 0.330420 -0.442520
O35   O     O_R   0.332710 0.592740 0.669580 -0.473745
O36   O     O_R   0.667290 0.592740 0.330420 -0.442519
O37   O     O_R   0.946290 0.250060 0.676040 -0.532028
O38   O     O_R   0.053710 0.250060 0.323960 -0.483353
O39   O     O_R   0.446290 0.750060 0.676040 -0.532027
O40   O     O_R   0.553710 0.750060 0.323960 -0.483354
O41   O     O_R   0.956270 0.452200 0.830470 -0.515269
O42   O     O_R   0.043730 0.452200 0.169530 -0.525054
O43   O     O_R   0.456270 0.952200 0.830470 -0.515269
O44   O     O_R   0.543730 0.952200 0.169530 -0.525054
O45   O     O_R   0.820760 0.543950 0.823440 -0.498454
O46   O     O_R   0.179240 0.543950 0.176560 -0.506385
O47   O     O_R   0.320760 0.043950 0.823440 -0.498453
O48   O     O_R   0.679240 0.043950 0.176560 -0.506385
O49   O     O_R   0.714570 0.459210 0.828640 -0.523798
O50   O     O_R   0.285430 0.459210 0.171360 -0.519095
O51   O     O_R   0.214570 0.959210 0.828640 -0.523798
O52   O     O_R   0.785430 0.959210 0.171360 -0.519095
Cl1   Cl    Cl    0.718228 0.919080 0.617574 -0.636070
Cl2   Cl    Cl    0.097086 0.010427 0.445365 -0.679956
Cl3   Cl    Cl    0.218232 0.419078 0.617573 -0.636069
Cl4   Cl    Cl    0.597086 0.510427 0.445366 -0.679960

loop_
_geom_bond_atom_site_label_1
_geom_bond_atom_site_label_2
_ccdc_geom_bond_type
C51   H72   S    
C58   C62   A    
C119  O43   A    
C55   C56   A    
C82   H26   S    
C67   C83   S    
C101  C102  A    
Cr10  O34   S    
C29   C33   A    
Cr4   O48   S    
Cr9   O33   S    
C41   C42   A    
C14   C18   S    
C96   C119  S    
C101  H29   S    
C35   C36   A    
C70   H6    S    
Cr10  O38   S    
C72   C76   A    
Cr7   O31   S    
Cr3   O43   S    
C120  O16   A    
C47   O31   A    
C97   C98   A    
C104  H32   S    
C71   C75   A    
C63   C79   S    
C53   C54   A    
C34   H62   S    
C26   C89   S    
Cr1   O45   S    
Cr12  O40   S    
C33   H61   S    
C25   C90   S    
C50   C54   A    
Cr11  O35   S    
C96   C100  A    
C116  O12   A    
Cr6   O30   S    
C64   C68   A    
C115  O7    A    
C16   C20   S    
C89   O1    A    
C1    O25   A    
C9    H41   S    
C79   H15   S    
C32   H68   S    
C94   C117  S    
C95   C99   A    
Cr10  O14   S    
C57   C112  S    
C6    Cl2   S    
C94   C98   A    
C113  O5    A    
Cr9   O13   S    
C12   H44   S    
Cr5   O5    S    
C17   H57   S    
C59   C110  S    
C117  O41   A    
C31   C40   A    
C74   H10   S    
C3    O23   A    
C51   C55   A    
C36   H64   S    
C32   C39   A    
C57   C73   A    
C57   C61   A    
C92   O4    A    
C78   C82   S    
C106  H38   S    
C60   C109  S    
C105  H37   S    
C45   O33   A    
C121  C125  A    
C52   C56   A    
Cr5   O49   S    
C27   C44   A    
C78   H14   S    
C71   H7    S    
C94   C101  A    
C61   C77   S    
C72   H8    S    
C83   H27   S    
C29   C38   A    
C70   C74   A    
Cr2   O18   S    
C9    C121  A    
C107  C108  S    
Cr8   O52   S    
C69   C73   A    
C98   C106  S    
C81   H25   S    
C116  O8    A    
Cr7   O27   S    
C112  O52   A    
C47   O35   A    
Cr6   O26   S    
C3    C122  S    
C119  O15   A    
C54   H2    S    
C97   C105  S    
C122  C126  A    
C44   C52   A    
Cr1   O41   S    
C15   H45   S    
Cr2   O42   S    
Cr2   O46   S    
C15   C127  S    
C22   C130  A    
Cr9   O9    S    
C64   C80   S    
Cr1   O21   S    
C20   C132  S    
Cr6   O18   S    
C128  C132  A    
Cr5   O17   S    
C41   C49   A    
C72   C88   A    
C62   C78   S    
C7    C11   A    
C21   C45   S    
C19   C131  S    
C63   C67   A    
C100  C108  S    
C23   C47   S    
C103  H31   S    
C30   C34   A    
Cr11  O19   S    
C80   C84   S    
C68   C84   S    
C88   C116  S    
C46   O30   A    
C109  O49   A    
C30   H66   S    
C45   O29   A    
C39   C40   A    
C126  C130  A    
C62   C66   A    
Cr8   O8    S    
Cr1   O17   S    
C5    Cl1   S    
Cr6   O50   S    
C50   H69   S    
C1    O21   A    
Cr2   O2    S    
C83   H23   S    
C49   H70   S    
C76   H12   S    
C52   H71   S    
C80   H20   S    
C17   C129  S    
C58   C111  S    
C30   C37   A    
C107  H39   S    
Cr8   O28   S    
C24   C48   S    
C56   H4    S    
C15   C19   S    
C43   C44   A    
C115  O11   A    
C37   C38   A    
C84   H24   S    
Cr10  O10   S    
C61   C65   A    
C25   C38   A    
C114  O10   A    
C105  H33   S    
Cr5   O29   S    
C53   H1    S    
C24   C132  A    
C93   C97   A    
C123  C127  A    
C99   C100  A    
C12   C124  A    
C77   C81   S    
C27   C40   A    
C8    C12   A    
Cr3   O3    S    
C19   H59   S    
C33   C34   A    
C4    O24   A    
C23   C131  A    
C27   C92   S    
C18   H58   S    
C3    O27   A    
Cr4   O44   S    
C114  O6    A    
Cr12  O20   S    
C17   H53   S    
C16   C128  S    
C80   H16   S    
C21   C129  A    
C16   H46   S    
C42   C50   A    
C71   C87   A    
C55   H3    S    
C92   O40   A    
C35   H63   S    
C22   C46   S    
C112  O48   A    
C78   H18   S    
C60   C76   A    
Cr4   O24   S    
Cr7   O19   S    
C91   O3    A    
C68   C88   A    
C11   H43   S    
C59   C63   A    
C79   H19   S    
C93   C118  S    
C109  O45   A    
C117  O13   A    
C70   C86   A    
C59   C75   A    
C110  O50   A    
C4    O28   A    
C69   C85   A    
C95   C104  A    
C58   C74   A    
C108  H36   S    
C87   C115  S    
C82   H22   S    
Cr7   O7    S    
C2    O26   A    
Cr7   O51   S    
C75   H11   S    
C81   H21   S    
C107  H35   S    
C86   C114  S    
Cr8   O32   S    
C93   C102  A    
C67   C87   A    
Cr12  O16   S    
C2    O22   A    
C90   O38   A    
Cr11  O11   S    
C84   H28   S    
C13   H47   S    
C25   C42   A    
C66   C86   A    
C32   C36   A    
C26   C37   A    
C29   H65   S    
Cr3   O47   S    
Cr4   O4    S    
C108  H40   S    
C11   C123  A    
C95   C120  S    
C102  H30   S    
C99   C107  S    
C105  C106  S    
C28   C39   A    
C28   C43   A    
C19   H55   S    
C14   C126  S    
C124  C128  A    
C60   C64   A    
Cr9   O37   S    
C20   H60   S    
C127  C131  A    
C85   C113  S    
C1    C124  S    
C15   H51   S    
C46   O34   A    
C48   O32   A    
C65   C85   A    
C120  O44   A    
C110  O46   A    
C79   C83   S    
Cr11  O39   S    
C31   H67   S    
C43   C51   A    
C69   H5    S    
C91   O39   A    
Cr5   O25   S    
C118  O14   A    
C7    C23   A    
Cr4   O20   S    
C31   C35   A    
C7    Cl3   S    
C16   H52   S    
C10   H42   S    
C77   H17   S    
Cr3   O23   S    
C4    C121  S    
C28   C91   S    
Cr3   O19   S    
C14   H48   S    
C48   O36   A    
C14   H50   S    
C89   O37   A    
Cr1   O1    S    
C90   O2    A    
C49   C53   A    
C18   C130  S    
C6    C10   A    
Cr2   O22   S    
C111  O51   A    
C13   C17   S    
C125  C129  A    
C10   C122  A    
Cr10  O18   S    
C5    C21   A    
C8    C24   A    
Cr9   O17   S    
C118  O42   A    
C96   C103  A    
C73   H9    S    
C103  C104  A    
Cr8   O20   S    
Cr6   O6    S    
C65   C81   S    
Cr12  O12   S    
C13   H49   S    
C5    C9    A    
Cr12  O36   S    
Cr11  O15   S    
C111  O47   A    
C8    Cl4   S    
C13   C125  S    
C106  H34   S    
C20   H56   S    
C2    C123  S    
C18   H54   S    
C66   C82   S    
C26   C41   A    
C77   H13   S    
C113  O9    A    
C6    C22   A    
