data_str_m3_o10_o28_f0_pcu.sym.93
_audit_creation_date              2012-12-10T16:58:32-0500
_audit_creation_method            fapswitch 2.2
_symmetry_space_group_name_H-M    P1
_symmetry_Int_Tables_number       1
_space_group_crystal_system       triclinic
_cell_length_a                    7.720932
_cell_length_b                    8.584332
_cell_length_c                    23.557339
_cell_angle_alpha                 90.8556
_cell_angle_beta                  86.02604
_cell_angle_gamma                 94.201852
_cell_volume                      1553.34097676

loop_
_atom_site_label
_atom_site_type_symbol
_atom_type_description
_atom_site_fract_x
_atom_site_fract_y
_atom_site_fract_z
_atom_type_partial_charge
C1    C     C_R   0.546356 0.795048 0.498482 0.958970
C2    C     C_R   0.340881 0.444944 0.300899 -0.033809
C3    C     C_R   0.664336 0.541008 0.757867 -0.015877
C4    C     C_R   0.335416 0.458792 0.242174 -0.015701
C5    C     C_R   0.515939 0.488203 0.791283 0.182288
C6    C     C_R   0.483696 0.511717 0.208727 0.182322
C7    C     C_2   0.570568 0.958756 0.497603 -0.367748
C8    C     C_2   0.429432 0.041244 0.502396 -0.367781
C9    C     C_R   0.502455 0.498935 0.610570 0.832001
C10   C     C_R   0.497536 0.501032 0.389430 0.831990
C11   C     C_R   0.431766 0.371925 0.120804 0.520584
C12   C     C_R   0.453644 0.204952 0.501518 0.958904
C13   C     C_R   0.567673 0.628095 0.879203 0.520874
C14   C     C_R   0.538535 0.640203 0.118219 0.548179
C15   C     C_R   0.460741 0.359857 0.881805 0.548064
C16   C     C_R   0.552763 0.636867 0.058982 -0.008372
C17   C     C_R   0.446385 0.363250 0.941039 -0.008504
C18   C     C_R   0.496103 0.500216 0.030001 -0.039607
C19   C     C_R   0.503034 0.499915 0.970017 -0.039690
C20   C     C_R   0.432538 0.364504 0.060899 -0.053216
C21   C     C_R   0.566627 0.635620 0.939116 -0.053036
C22   C     C_R   0.622695 0.768182 0.028658 -0.195070
C23   C     C_R   0.364687 0.435634 0.765560 -0.056203
C24   C     C_R   0.376319 0.231982 0.971365 -0.195223
C25   C     C_R   0.628570 0.770860 0.969518 -0.046536
C26   C     C_R   0.370411 0.229331 0.030505 -0.046521
C27   C     C_2   0.705960 0.917371 0.943050 0.521506
C28   C     C_2   0.292622 0.082997 0.056995 0.521403
C29   C     C_2   0.209552 0.341918 0.681942 0.517787
C30   C     C_2   0.790410 0.657879 0.317993 0.517655
C31   C     C_2   0.807679 0.643254 0.667631 0.477668
C32   C     C_2   0.192363 0.356398 0.332430 0.477521
C33   C     C_R   0.635011 0.564305 0.234410 -0.056372
C34   C     C_R   0.361953 0.427812 0.706530 -0.041707
C35   C     C_R   0.637908 0.572059 0.293438 -0.041781
C36   C     C_R   0.507883 0.494003 0.672659 -0.223069
C37   C     C_R   0.492050 0.505859 0.327341 -0.223001
C38   C     C_R   0.659024 0.554829 0.699134 -0.033823
H1    H     H_    0.672049 0.871422 0.051201 0.206271
H2    H     H_    0.986012 0.617713 0.542417 0.194344
H3    H     H_    0.835452 0.962249 0.953128 0.024731
H4    H     H_    0.162764 0.038728 0.047088 0.024893
H5    H     H_    0.220588 0.291681 0.639481 0.069004
H6    H     H_    0.779457 0.708193 0.360443 0.069062
H7    H     H_    0.790026 0.700384 0.627947 0.053136
H8    H     H_    0.210114 0.299405 0.372132 0.053168
H9    H     H_    0.326861 0.128772 0.948828 0.206310
H10   H     H_    0.250530 0.394901 0.792067 0.194088
H11   H     H_    0.749086 0.605105 0.207878 0.194033
H12   H     H_    0.781181 0.580389 0.778450 0.199325
H13   H     H_    0.218537 0.419360 0.221618 0.199358
H14   H     H_    0.703451 0.010840 0.493032 0.182230
H15   H     H_    0.296548 0.989160 0.506968 0.182224
H16   H     H_    0.013987 0.382287 0.457583 0.194360
N1    N     N_R   0.482763 0.508348 0.147858 -0.358499
N2    N     N_R   0.516689 0.491654 0.852157 -0.358522
N3    N     N_2   0.950330 0.457950 0.484560 -0.169284
N4    N     N_2   0.049670 0.542050 0.515440 -0.169294
O1    O     O_R   0.389250 0.738570 0.503790 -0.602082
O2    O     O_2   0.616866 0.755532 0.847802 -0.490589
O3    O     O_2   0.578679 0.775070 0.146222 -0.495018
O4    O     O_2   0.420573 0.224979 0.853811 -0.494929
O5    O     O_2   0.621565 0.995222 0.913764 -0.480234
O6    O     O_2   0.376988 0.004661 0.086119 -0.480528
O7    O     O_2   0.070059 0.322315 0.709604 -0.543066
O8    O     O_2   0.929896 0.677310 0.290316 -0.543137
O9    O     O_2   0.951402 0.657232 0.686557 -0.545676
O10   O     O_2   0.048644 0.342151 0.313506 -0.545677
O11   O     O_R   0.610750 0.261430 0.496210 -0.602070
O12   O     O_R   0.678390 0.711620 0.493890 -0.643090
O13   O     O_R   0.321610 0.288380 0.506110 -0.643130
O14   O     O_R   0.355400 0.513520 0.588790 -0.607885
O15   O     O_R   0.644600 0.486480 0.411210 -0.607886
O16   O     O_R   0.644550 0.486570 0.578900 -0.630015
O17   O     O_R   0.355450 0.513430 0.421100 -0.630010
O18   O     O_2   0.382906 0.244381 0.152187 -0.490560
Zn1   Zn    Zn3+2 0.306930 0.518000 0.506610 0.964774
Zn2   Zn    Zn3+2 0.693070 0.482000 0.493390 0.964797

loop_
_geom_bond_atom_site_label_1
_geom_bond_atom_site_label_2
_ccdc_geom_bond_type
C12   O11   A    
O12   Zn2   S    
C5    N2    S    
C9    O14   A    
C6    N1    S    
O1    Zn1   S    
C7    C8    D    
C13   O2    S    
C31   O9    D    
C30   C35   S    
C10   C37   S    
C35   C37   A    
C24   C26   A    
C7    H14   S    
C11   O18   S    
C1    O1    A    
C10   O15   A    
C33   H11   S    
C2    C32   S    
C18   C19   A    
N4    Zn1   S    
C17   C19   A    
C3    C38   A    
C22   C25   A    
C9    C36   S    
O15   Zn2   S    
C18   C20   A    
C32   O10   D    
C13   N2    A    
C14   N1    A    
C29   H5    S    
C30   H6    S    
O11   Zn2   S    
C3    H12   S    
C11   C20   A    
C17   C24   A    
H2    N4    S    
C4    H13   S    
C4    C6    A    
C14   O3    S    
C29   C34   S    
C2    C4    A    
O14   Zn1   S    
C10   O17   A    
C27   H3    S    
C5    C23   A    
C8    C12   S    
C23   C34   A    
C13   C21   A    
O17   Zn1   S    
C30   O8    D    
C27   O5    D    
C29   O7    D    
C28   O6    D    
C12   O13   A    
C31   H7    S    
C14   C16   A    
C9    O16   A    
O13   Zn1   S    
C11   N1    A    
C15   C17   A    
C21   C25   A    
C16   C22   A    
C23   H10   S    
C19   C21   A    
C1    C7    S    
C24   H9    S    
C32   H8    S    
N3    Zn2   S    
C3    C5    A    
C8    H15   S    
C31   C38   S    
C25   C27   S    
C26   C28   S    
C1    O12   A    
C6    C33   A    
C15   N2    A    
C36   C38   A    
C2    C37   A    
N3    N4    D    
C20   C26   A    
C22   H1    S    
C28   H4    S    
C33   C35   A    
C15   O4    S    
C34   C36   A    
C16   C18   A    
O16   Zn2   S    
H16   N3    S    
