data_str_m9_o11_o16_f0_sra.sym.260
_audit_creation_date              2013-03-05T15:41:44-0500
_audit_creation_method            fapswitch 2.2
_symmetry_space_group_name_H-M    P1
_symmetry_Int_Tables_number       1
_space_group_crystal_system       triclinic
_cell_length_a                    6.95915
_cell_length_b                    13.794052
_cell_length_c                    20.486386
_cell_angle_alpha                 102.555053
_cell_angle_beta                  90.646387
_cell_angle_gamma                 90.571081
_cell_volume                      1919.28469088

loop_
_atom_site_label
_atom_site_type_symbol
_atom_site_description
_atom_site_fract_x
_atom_site_fract_y
_atom_site_fract_z
_atom_type_partial_charge
O1    O     O_R   0.506860 0.599390 0.449240 -0.571606
O2    O     O_R   0.180220 0.594600 0.586780 -0.568465
O3    O     O_R   0.004500 0.400610 0.550760 -0.556745
C1    C     C_R   0.349905 0.614001 0.614117 0.866926
O4    O     O_R   0.177490 0.611290 0.451970 -0.547363
O5    O     O_R   0.001750 0.417420 0.414990 -0.559903
C2    C     C_R   0.346165 0.635159 0.433851 0.909741
O6    O     O_R   0.509610 0.582580 0.585010 -0.546696
O7    O     O_3   0.337420 0.436370 0.488020 -0.276732
V1    V     V_3+5 0.064680 0.511800 0.502220 1.233368
O8    O     O_R   0.671710 0.405400 0.413220 -0.555944
C3    C     C_R   0.837457 0.388582 0.385226 0.908133
O9    O     O_R   0.674440 0.388710 0.548030 -0.534036
C4    C     C_R   0.843673 0.363407 0.564889 0.988191
V2    V     V_3+5 0.564010 0.488200 0.497780 1.240389
O10   O     O_3   0.841140 0.563630 0.511980 -0.291484
C5    C     C_R   0.928621 0.119392 0.610632 -0.068996
H1    H     H_    0.002015 0.000090 0.690206 0.072155
H2    H     H_    0.961691 0.043692 0.586002 0.137445
C6    C     C_R   0.855441 0.287444 0.604200 -0.243655
C7    C     C_R   0.787418 0.302855 0.924576 -0.124457
C8    C     C_R   0.736473 0.372394 0.888202 -0.065482
C9    C     C_R   0.756875 0.351554 0.819291 0.006695
C10   C     C_R   0.843465 0.262955 0.784822 0.037169
C11   C     C_R   0.885150 0.188073 0.821580 0.002972
C12   C     C_R   0.874085 0.243513 0.713996 -0.015460
C13   C     C_R   0.920663 0.145797 0.680449 -0.056773
C14   C     C_R   0.960852 0.073901 0.716377 -0.080573
C15   C     C_R   0.946063 0.093415 0.785637 0.149661
C16   C     C_R   0.861507 0.316966 0.674792 0.241328
C17   C     C_R   0.890039 0.188357 0.571822 0.304394
C18   C     C_R   0.856070 0.210066 0.892411 -0.086670
H3    H     H_    0.763670 0.319617 0.978052 0.062624
H4    H     H_    0.694538 0.404416 0.793893 0.146286
H5    H     H_    0.674301 0.441910 0.913332 0.088783
C19   C     C_2   0.991187 0.303010 0.280066 -0.030010
C20   C     C_2   0.829854 0.335561 0.313769 0.081408
H6    H     H_    0.126943 0.320110 0.306021 0.096969
C21   C     C_2   0.999203 0.246128 0.209089 -0.110283
C22   C     C_2   0.863959 0.179161 0.180960 -0.236161
H7    H     H_    0.126973 0.255183 0.181035 0.095431
H8    H     H_    0.740117 0.167557 0.209168 0.077073
C23   C     C_2   0.209414 0.751606 0.793723 0.317166
C24   C     C_2   0.355019 0.815502 0.819618 -0.265239
H9    H     H_    0.475653 0.823793 0.788262 0.039159
C25   C     C_2   0.206576 0.698999 0.721413 -0.103660
C26   C     C_2   0.363627 0.675049 0.683346 -0.233536
H10   H     H_    0.067293 0.673094 0.699761 0.172213
H11   H     H_    0.506366 0.694020 0.704338 0.123479
C27   C     C_R   0.463073 0.876226 0.389316 0.379182
H12   H     H_    0.469616 0.817884 0.478189 0.111747
H13   H     H_    0.536445 0.994970 0.305405 0.134075
C28   C     C_R   0.360346 0.710403 0.394123 -0.190510
C29   C     C_R   0.330209 0.685623 0.071072 0.161835
C30   C     C_R   0.328120 0.611014 0.107869 -0.069826
C31   C     C_R   0.346297 0.633952 0.177008 -0.026215
C32   C     C_R   0.359726 0.732903 0.213593 0.054387
C33   C     C_R   0.383584 0.809206 0.177015 -0.015422
C34   C     C_R   0.365682 0.757006 0.285519 -0.044491
C35   C     C_R   0.434318 0.852787 0.318993 -0.071341
C36   C     C_R   0.477215 0.922998 0.281696 -0.052333
C37   C     C_R   0.440561 0.905043 0.213238 0.138816
C38   C     C_R   0.309436 0.689275 0.325734 0.307266
C39   C     C_R   0.437637 0.802283 0.424964 -0.177214
C40   C     C_R   0.359318 0.785475 0.105493 -0.115518
H14   H     H_    0.359974 0.571731 0.200580 0.135536
H15   H     H_    0.316957 0.533321 0.083516 0.069117
O11   O     O_R   0.203230 0.917310 0.915020 -0.525946
O12   O     O_R   0.535500 0.888690 0.048040 -0.556490
O13   O     O_R   0.711080 0.082610 0.085000 -0.559763
C41   C     C_R   0.367003 0.862679 0.065305 0.889857
O14   O     O_R   0.532630 0.905370 0.913230 -0.573725
O15   O     O_R   0.708190 0.099410 0.949230 -0.574500
C42   C     C_R   0.362425 0.881298 0.887552 0.874121
O16   O     O_R   0.206120 0.900510 0.050790 -0.546185
O17   O     O_3   0.375360 0.063570 0.011990 -0.290609
V3    V     V_3+5 0.648170 0.988200 0.997780 1.165655
O18   O     O_R   0.038240 0.111390 0.951940 -0.558891
C43   C     C_R   0.869265 0.135567 0.933664 0.858820
O19   O     O_R   0.041120 0.094710 0.086750 -0.582846
C44   C     C_R   0.873597 0.116756 0.112863 0.822804
V4    V     V_3+5 0.148810 0.011930 0.002180 1.167082
O20   O     O_3   0.871750 0.936430 0.988010 -0.249158
N1    N     N_R   0.899741 0.158235 0.499989 0.114104
O21   O     O_R   0.786342 0.196690 0.461734 -0.357253
O22   O     O_R   0.010898 0.085819 0.472461 -0.292163
N2    N     N_2   0.649028 0.332485 0.279800 -0.425022
H16   H     H_    0.651669 0.334951 0.229863 0.215127
C45   C     C_3   0.505296 0.266918 0.297812 -0.156969
H17   H     H_    0.397081 0.249084 0.257072 0.063878
H18   H     H_    0.431850 0.303555 0.344142 0.171568
H19   H     H_    0.569764 0.196820 0.305608 0.117301
N3    N     N_R   0.051341 0.731922 0.834353 0.086995
O23   O     O_R   0.888654 0.697582 0.806213 -0.352984
O24   O     O_R   0.077906 0.731816 0.897257 -0.361611
N4    N     N_R   0.517169 0.974266 0.425643 0.108467
O25   O     O_R   0.420544 0.050786 0.416783 -0.312447
O26   O     O_R   0.629895 0.984550 0.477867 -0.332483
N5    N     N_R   0.183927 0.605915 0.300167 0.062682
O27   O     O_R   0.227820 0.517342 0.307441 -0.409245
O28   O     O_R   0.023211 0.618914 0.270300 -0.373904
N6    N     N_2   0.312660 0.661928 0.999460 -0.400623
H20   H     H_    0.407543 0.698660 0.974668 0.203351
C46   C     C_3   0.264822 0.561514 0.964299 -0.116236
H21   H     H_    0.243557 0.559450 0.910218 0.168992
H22   H     H_    0.128985 0.536147 0.983596 0.113806
H23   H     H_    0.383554 0.510608 0.969699 0.062246
N7    N     N_2   0.467142 0.985564 0.181829 -0.425917
H24   H     H_    0.597890 0.020584 0.193822 0.188636
C47   C     C_3   0.309196 0.053700 0.192470 -0.191997
H25   H     H_    0.335329 0.112665 0.164394 0.132478
H26   H     H_    0.294648 0.087538 0.246492 0.094184
H27   H     H_    0.172810 0.013622 0.174941 0.132203
N8    N     N_R   0.889387 0.420710 0.704741 0.064347
O29   O     O_R   0.039883 0.449850 0.742529 -0.351911
O30   O     O_R   0.769826 0.486612 0.692281 -0.366449
N9    N     N_2   0.983034 0.013986 0.817513 -0.429504
H28   H     H_    0.114311 0.981685 0.804979 0.180682
C48   C     C_3   0.829173 0.941043 0.809110 -0.159028
H29   H     H_    0.848056 0.894470 0.846283 0.198332
H30   H     H_    0.831013 0.892812 0.758038 0.083312
H31   H     H_    0.687644 0.978026 0.817424 0.094505

loop_
_geom_bond_atom_site_label_1
_geom_bond_atom_site_label_2
_geom_bond_distance
_ccdc_geom_bond_type
C33   C37   1.418430 A    
N2    H16   1.031313 S    
N3    O23   1.301683 A    
C27   C39   1.388593 A    
O12   V3    2.042141 S    
C1    O6    1.300332 A    
C46   H22   1.110984 S    
N8    O29   1.302221 A    
C26   H11   1.084623 S    
C29   C40   1.415760 A    
C6    C16   1.414682 A    
C31   C32   1.408777 A    
C8    H5    1.081863 S    
C12   C13   1.416059 A    
C14   C15   1.390717 A    
C10   C12   1.435820 A    
H13   C36   1.081256 S    
N9    C48   1.444851 S    
O5    C3    1.306533 A    
C28   C39   1.387583 A    
C32   C34   1.438343 A    
C7    H3    1.084290 S    
V3    O20   1.714050 S    
O11   C42   1.301642 A    
V2    O10   2.168511 S    
N7    H24   1.027725 S    
C3    C20   1.487516 S    
O12   C41   1.298062 A    
O13   C44   1.297965 A    
C47   H25   1.108282 S    
C38   N5    1.437794 S    
C5    H2    1.084571 S    
C29   C30   1.401756 A    
O8    V2    2.013302 S    
N1    O21   1.301331 A    
N4    O26   1.301165 A    
C9    C10   1.415786 A    
O1    V2    2.041021 S    
C45   H18   1.106815 S    
O7    V1    2.165646 S    
C11   C18   1.433547 A    
C22   H8    1.072860 S    
C34   C35   1.424829 A    
N3    O24   1.300131 A    
C7    C8    1.382985 A    
O13   V3    2.009902 S    
C36   C37   1.390296 A    
C46   H21   1.110283 S    
C20   N2    1.426876 S    
C48   H30   1.111436 S    
C11   C15   1.423674 A    
C7    C18   1.397605 A    
C25   H10   1.085558 S    
C5    C13   1.398995 A    
C4    C6    1.456134 S    
H1    C14   1.085404 S    
C10   C11   1.434359 A    
O14   C42   1.300827 A    
O17   V4    1.715131 S    
C21   C22   1.345448 D    
O4    C2    1.295889 A    
O18   C43   1.298606 A    
C40   C41   1.481834 S    
C15   N9    1.416310 S    
C17   N1    1.442156 S    
C35   C36   1.389971 A    
N6    C46   1.449101 S    
C23   C24   1.360800 D    
O14   V3    2.010488 S    
O18   V4    2.037340 S    
C33   C40   1.437834 A    
C30   H15   1.080970 S    
N5    O27   1.301464 A    
C48   H29   1.105472 S    
C9    H4    1.075545 S    
N4    O25   1.301503 A    
C30   C31   1.386587 A    
O15   C43   1.293457 A    
O17   V3    2.165704 S    
C45   H19   1.111716 S    
C24   C42   1.487143 S    
C47   H27   1.109486 S    
O3    C4    1.288495 A    
O19   V4    2.013319 S    
N5    O28   1.301430 A    
C12   C16   1.425932 A    
O6    V2    2.011298 S    
N2    C45   1.445709 S    
C5    C17   1.392235 A    
C2    C28   1.454816 S    
O2    V1    2.010483 S    
C24   H9    1.082901 S    
C16   N8    1.439452 S    
C48   H31   1.111466 S    
C25   C26   1.351389 D    
C19   C20   1.353379 D    
O1    C2    1.289995 A    
C22   C44   1.474064 S    
C29   N6    1.435518 S    
C19   C21   1.496570 S    
H12   C39   1.084594 S    
N1    O22   1.301764 A    
O19   C44   1.299309 A    
O5    V1    2.009896 S    
N8    O30   1.301928 A    
O8    C3    1.294451 A    
O16   V4    2.044897 S    
C34   C38   1.428106 A    
C27   C35   1.417680 A    
O9    V2    2.037430 S    
O7    V2    1.716369 S    
O11   V4    2.011766 S    
O4    V1    2.042167 S    
O3    V1    2.043610 S    
V1    O10   1.714120 S    
N9    H28   1.030901 S    
C18   C43   1.468478 S    
C41   O16   1.298415 A    
C28   C38   1.408046 A    
C27   N4    1.438905 S    
C32   C33   1.427978 A    
C31   H14   1.076897 S    
O2    C1    1.301276 A    
C19   H6    1.077313 S    
C23   N3    1.445552 S    
N7    C47   1.440820 S    
N6    H20   1.031243 S    
C23   C25   1.501061 S    
C47   H26   1.109880 S    
C37   N7    1.411120 S    
C21   H7    1.084922 S    
V4    O20   2.168496 S    
C13   C14   1.386273 A    
O15   V3    2.043753 S    
C8    C9    1.387339 A    
C45   H17   1.103222 S    
O9    C4    1.295979 A    
C6    C17   1.407873 A    
C46   H23   1.109656 S    
C1    C26   1.485188 S    
