data_str_m3_o41_o41_f0_fof.sym.40
_audit_creation_date              2012-12-10T16:39:35-0500
_audit_creation_method            fapswitch 2.2
_symmetry_space_group_name_H-M    P1
_symmetry_Int_Tables_number       1
_space_group_crystal_system       triclinic
_cell_length_a                    17.063118
_cell_length_b                    16.811291
_cell_length_c                    17.107126
_cell_angle_alpha                 64.594213
_cell_angle_beta                  65.440553
_cell_angle_gamma                 64.792686
_cell_volume                      3844.2331694

loop_
_atom_site_label
_atom_site_type_symbol
_atom_type_description
_atom_site_fract_x
_atom_site_fract_y
_atom_site_fract_z
_atom_type_partial_charge
C1    C     C_R   0.322174 0.968298 0.450722 -0.024425
C2    C     C_R   0.317604 0.433747 0.997536 -0.031537
C3    C     C_R   0.551230 0.416878 0.976961 0.015466
C4    C     C_R   0.026052 0.446095 0.580828 0.018691
C5    C     C_R   0.997653 0.547589 0.407799 0.016988
C6    C     C_3   0.245439 0.081471 0.244974 -0.332086
C7    C     C_3   0.277723 0.167383 0.194192 -0.849568
C8    C     C_3   0.680357 0.157013 0.664852 -0.335601
C9    C     C_3   0.688933 0.227304 0.569978 -0.850050
C10   C     C_3   0.851703 0.308477 0.309908 -0.338090
C11   C     C_3   0.763616 0.387819 0.304777 -0.857498
C12   C     C_3   0.158616 0.676624 0.686184 -0.351446
C13   C     C_R   0.058159 0.668831 0.541525 -0.002554
C14   C     C_3   0.247628 0.638126 0.620311 -0.847676
C15   C     C_3   0.313837 0.321230 0.850496 -0.317042
C16   C     C_3   0.291654 0.412736 0.776521 -0.849534
C17   C     C_3   0.687543 0.677397 0.155408 -0.332007
C18   C     C_3   0.605233 0.682758 0.238857 -0.847117
C19   C     C_1   0.279134 0.996123 0.816411 0.199596
C20   C     C_1   0.719267 0.008659 0.189463 0.196861
C21   C     C_1   0.036679 0.814520 0.274678 0.196659
C22   C     C_1   0.996891 0.174548 0.707033 0.192586
C23   C     C_1   0.834168 0.310594 0.950572 0.188859
C24   C     C_R   0.955798 0.328166 0.452415 -0.016400
C25   C     C_1   0.170416 0.687509 0.046803 0.188406
C26   C     C_1   0.198551 0.955034 0.730059 0.194384
C27   C     C_1   0.810182 0.013247 0.293337 0.191754
C28   C     C_1   0.754513 0.212368 0.925841 0.202237
C29   C     C_1   0.251558 0.786577 0.073379 0.191155
C30   C     C_1   0.953766 0.759626 0.206776 0.197830
C31   C     C_1   0.067511 0.233021 0.783606 0.196035
C32   C     C_1   0.382290 0.117507 0.758846 0.210641
C33   C     C_1   0.611958 0.891365 0.242651 0.222447
C34   C     C_1   0.142517 0.749241 0.393655 0.194636
C35   C     C_R   0.453485 0.989846 0.454699 -0.015567
C36   C     C_1   0.867070 0.269237 0.605263 0.206541
C37   C     C_1   0.760826 0.380470 0.101103 0.224569
C38   C     C_1   0.195263 0.481840 0.123618 0.199941
C39   C     C_1   0.282973 0.857907 0.595970 0.188039
C40   C     C_1   0.806975 0.890461 0.490334 0.214786
C41   C     C_1   0.613612 0.240598 0.868166 0.213797
C42   C     C_1   0.392126 0.750754 0.143344 0.202880
C43   C     C_1   0.888045 0.624877 0.229570 0.208500
C44   C     C_1   0.110706 0.375612 0.775304 0.231819
C45   C     C_R   0.542251 0.010096 0.549676 -0.017546
C46   C     C_R   0.988304 0.458146 0.450706 -0.014819
C47   C     C_R   0.033814 0.536227 0.538712 -0.016931
C48   C     C_R   0.457075 0.450981 0.990072 -0.017121
C49   C     C_R   0.542463 0.542595 0.020808 -0.016245
C50   C     C_R   0.964819 0.180274 0.436151 0.859067
C51   C     C_R   0.682764 0.003412 0.563739 -0.033092
C52   C     C_R   0.036609 0.819535 0.563393 0.879679
C53   C     C_R   0.178131 0.430910 0.976692 0.891102
C54   C     C_R   0.820502 0.564099 0.033274 0.868230
C55   C     C_R   0.434291 0.972299 0.177729 0.888663
C56   C     C_R   0.562879 0.034957 0.820566 0.865880
C57   C     C_R   0.562594 0.819870 0.037097 0.890077
C58   C     C_R   0.438465 0.179882 0.962025 0.845127
C59   C     C_R   0.035452 0.562589 0.820605 0.877597
C60   C     C_R   0.961982 0.438459 0.179414 0.885412
C61   C     C_R   0.822515 0.022580 0.568542 0.887248
C62   C     C_R   0.950843 0.465394 0.322281 0.005383
C63   C     C_R   0.177852 0.972978 0.433747 0.877731
C64   C     C_R   0.408958 0.979211 0.407367 0.031078
C65   C     C_R   0.587916 0.019167 0.596946 0.032501
C66   C     C_R   0.966289 0.417108 0.407551 0.023259
C67   C     C_R   0.048386 0.579420 0.585375 0.025385
C68   C     C_R   0.413093 0.404971 0.976384 0.034473
C69   C     C_R   0.586393 0.587123 0.036617 0.025231
C70   C     C_R   0.271227 0.975811 0.397145 -0.158221
C71   C     C_R   0.725663 0.027428 0.603858 -0.110806
C72   C     C_R   0.937618 0.415266 0.278718 -0.118874
C73   C     C_R   0.055565 0.533144 0.674404 -0.003970
C74   C     C_R   0.060734 0.585386 0.721256 -0.151818
C75   C     C_R   0.414161 0.281080 0.938143 -0.173714
C76   C     C_R   0.588639 0.718220 0.061955 -0.115959
C77   C     C_R   0.588907 0.052984 0.721639 -0.169948
C78   C     C_R   0.399258 0.975073 0.270316 -0.122908
C79   C     C_R   0.721121 0.590466 0.053947 -0.167850
C80   C     C_R   0.275674 0.396280 0.968743 -0.122804
C81   C     C_R   0.061726 0.717044 0.591442 -0.129762
C82   C     C_R   0.941675 0.282406 0.407584 -0.163028
C83   C     C_R   0.444807 0.052044 0.710706 -0.022007
C84   C     C_R   0.463365 0.326643 0.946638 0.008108
C85   C     C_R   0.548880 0.957886 0.288753 -0.025526
C86   C     C_R   0.073729 0.702624 0.447055 -0.014768
C87   C     C_R   0.948276 0.292799 0.544828 -0.003582
C88   C     C_R   0.716956 0.452765 0.034118 -0.013827
C89   C     C_R   0.269232 0.500077 0.044054 -0.020531
C90   C     C_R   0.292018 0.948402 0.545536 0.007305
C91   C     C_R   0.728590 0.971474 0.487432 -0.023935
C92   C     C_R   0.559244 0.298691 0.925136 -0.034684
C93   C     C_R   0.442732 0.700078 0.078170 -0.031177
C94   C     C_R   0.943652 0.562135 0.288580 -0.017768
C95   C     C_R   0.538717 0.671594 0.055658 -0.011454
C96   C     C_R   0.065449 0.435865 0.707522 -0.048179
C97   C     C_R   0.305687 0.004204 0.304279 0.074690
C98   C     C_R   0.670486 0.070186 0.670258 0.048973
C99   C     C_R   0.915327 0.333633 0.329902 0.043406
C100  C     C_R   0.081696 0.666998 0.672700 0.049821
C101  C     C_R   0.331783 0.331442 0.923415 0.038293
C102  C     C_R   0.669262 0.666831 0.082775 0.036102
C103  C     C_R   0.680911 0.989371 0.428584 -0.014146
C104  C     C_R   0.324308 0.979085 0.588123 -0.014647
C105  C     C_R   0.043837 0.393352 0.665459 -0.010384
C106  C     C_R   0.539553 0.041264 0.678405 -0.000023
C107  C     C_R   0.975914 0.601198 0.325219 -0.004132
C108  C     C_R   0.397915 0.658964 0.058366 -0.009676
C109  C     C_R   0.603217 0.337239 0.948238 -0.010058
C110  C     C_R   0.589084 0.984218 0.327721 -0.017203
C111  C     C_R   0.405693 0.020782 0.675011 -0.017014
C112  C     C_R   0.311620 0.558879 0.039303 -0.008564
C113  C     C_R   0.683866 0.421256 0.994015 -0.019649
C114  C     C_R   0.988052 0.321197 0.581293 -0.016023
C115  C     C_R   0.041812 0.670630 0.404905 0.001578
C116  C     C_R   0.723870 0.994678 0.337009 -0.060904
C117  C     C_R   0.453855 0.969163 0.320446 -0.026816
C118  C     C_R   0.281703 0.979855 0.678981 -0.059979
C119  C     C_R   0.039992 0.299536 0.703723 -0.063883
C120  C     C_R   0.985154 0.692736 0.284416 -0.068045
C121  C     C_R   0.303916 0.695012 0.064811 -0.065040
C122  C     C_R   0.697540 0.300103 0.942769 -0.064266
C123  C     C_R   0.677616 0.994052 0.285775 -0.061520
C124  C     C_R   0.321059 0.002548 0.721515 -0.062059
C125  C     C_R   0.261553 0.644863 0.055240 -0.057989
C126  C     C_R   0.737194 0.343922 0.963081 -0.056788
C127  C     C_R   0.007740 0.266659 0.663870 -0.062293
C128  C     C_R   0.677235 0.544050 0.038809 -0.010187
C129  C     C_R   0.023783 0.723549 0.320759 -0.062284
C130  C     C_R   0.542565 0.994247 0.414077 0.014953
C131  C     C_R   0.451872 0.009540 0.589081 0.013798
C132  C     C_R   0.003066 0.407750 0.536700 0.009270
C133  C     C_R   0.023442 0.585228 0.450703 0.011875
C134  C     C_R   0.406154 0.530584 0.018394 0.011320
C135  C     C_R   0.592796 0.461188 0.995448 0.010919
C136  C     C_R   0.588021 0.999866 0.463303 0.012288
C137  C     C_R   0.408735 0.995467 0.543211 0.009388
C138  C     C_R   0.449099 0.578800 0.030449 0.016159
H1    H     H_    0.346239 0.152340 0.146829 0.261403
H2    H     H_    0.739247 0.137023 0.688167 0.261813
H3    H     H_    0.735805 0.412732 0.364381 0.258734
H4    H     H_    0.775289 0.445996 0.242289 0.242098
H5    H     H_    0.712372 0.363694 0.304734 0.259688
H6    H     H_    0.885959 0.288086 0.247750 0.250413
H7    H     H_    0.831646 0.248277 0.364299 0.208526
H8    H     H_    0.250436 0.572030 0.617683 0.257377
H9    H     H_    0.254091 0.688399 0.551326 0.259422
H10   H     H_    0.306200 0.623523 0.642537 0.264580
H11   H     H_    0.145814 0.749726 0.676588 0.243364
H12   H     H_    0.230844 0.222187 0.154610 0.246613
H13   H     H_    0.165535 0.637930 0.755394 0.216558
H14   H     H_    0.224938 0.460034 0.801123 0.251113
H15   H     H_    0.344277 0.447148 0.751448 0.256926
H16   H     H_    0.290412 0.399295 0.718984 0.247593
H17   H     H_    0.375940 0.275984 0.815635 0.200275
H18   H     H_    0.262159 0.285777 0.884064 0.257375
H19   H     H_    0.550511 0.748366 0.223941 0.246834
H20   H     H_    0.579134 0.623666 0.261950 0.257584
H21   H     H_    0.625075 0.679116 0.294719 0.256546
H22   H     H_    0.741328 0.615657 0.179770 0.200901
H23   H     H_    0.278667 0.194099 0.242891 0.257944
H24   H     H_    0.711153 0.738466 0.124671 0.261447
H25   H     H_    0.239469 0.056957 0.197635 0.241480
H26   H     H_    0.175464 0.107168 0.285907 0.214661
H27   H     H_    0.757305 0.206524 0.524071 0.243200
H28   H     H_    0.637540 0.234355 0.541590 0.259114
H29   H     H_    0.677678 0.296043 0.573214 0.257626
H30   H     H_    0.618159 0.192414 0.708888 0.206605
N1    N     N_1   0.245730 0.991007 0.892001 -0.165371
N2    N     N_1   0.209758 0.859698 0.080005 -0.157877
N3    N     N_1   0.928308 0.814864 0.145791 -0.151950
N4    N     N_1   0.089338 0.178078 0.846643 -0.154422
N5    N     N_1   0.328922 0.168651 0.797607 -0.220073
N6    N     N_1   0.666721 0.839715 0.205365 -0.200426
N7    N     N_1   0.197438 0.786360 0.351964 -0.176511
N8    N     N_1   0.801342 0.253744 0.656217 -0.214070
N9    N     N_1   0.795887 0.319566 0.152878 -0.215925
N10   N     N_1   0.138044 0.465693 0.188879 -0.204273
N11   N     N_1   0.281027 0.783874 0.639327 -0.229715
N12   N     N_1   0.752562 0.020219 0.112741 -0.171672
N13   N     N_1   0.868401 0.824553 0.493007 -0.196679
N14   N     N_1   0.659870 0.191676 0.825158 -0.204023
N15   N     N_1   0.352712 0.791058 0.195435 -0.177828
N16   N     N_1   0.845532 0.677588 0.180802 -0.200150
N17   N     N_1   0.143512 0.324963 0.832266 -0.172179
N18   N     N_1   0.047520 0.886590 0.237928 -0.158810
N19   N     N_1   0.986882 0.102098 0.741387 -0.165207
N20   N     N_1   0.910981 0.284557 0.941761 -0.183402
N21   N     N_1   0.098630 0.721121 0.037806 -0.179254
N22   N     N_1   0.133249 0.933653 0.771347 -0.171660
N23   N     N_1   0.878144 0.029894 0.258310 -0.175424
N24   N     N_1   0.800951 0.142655 0.912576 -0.154530
O1    O     O_R   0.982940 0.138950 0.510160 -0.613452
O2    O     O_R   0.982940 0.510160 0.138950 -0.622380
O3    O     O_R   0.861050 0.017060 0.489840 -0.628398
O4    O     O_R   0.138950 0.982940 0.510160 -0.623484
O5    O     O_R   0.867700 0.025880 0.612340 -0.611640
O6    O     O_R   0.132300 0.974120 0.387660 -0.616239
O7    O     O_R   0.025880 0.612340 0.867700 -0.613787
O8    O     O_R   0.974120 0.387660 0.132300 -0.622141
O9    O     O_R   0.612340 0.867700 0.025880 -0.606980
O10   O     O_R   0.387660 0.132300 0.974120 -0.611567
O11   O     O_R   0.387660 0.974120 0.132300 -0.609989
O12   O     O_R   0.017060 0.861050 0.489840 -0.609803
O13   O     O_R   0.612340 0.025880 0.867700 -0.597760
O14   O     O_R   0.132300 0.387660 0.974120 -0.612807
O15   O     O_R   0.867700 0.612340 0.025880 -0.609041
O16   O     O_R   0.974120 0.132300 0.387660 -0.628058
O17   O     O_R   0.025880 0.867700 0.612340 -0.621058
O18   O     O_R   0.138950 0.510160 0.982940 -0.626590
O19   O     O_R   0.861050 0.489840 0.017060 -0.622131
O20   O     O_R   0.510160 0.982940 0.138950 -0.631708
O21   O     O_R   0.489840 0.017060 0.861050 -0.621697
O22   O     O_R   0.489840 0.861050 0.017060 -0.621590
O23   O     O_R   0.510160 0.138950 0.982940 -0.620623
O24   O     O_R   0.017060 0.489840 0.861050 -0.618644
Zn1   Zn    Zn3+2 0.004880 0.004880 0.583590 1.010629
Zn2   Zn    Zn3+2 0.995120 0.995120 0.416410 1.004223
Zn3   Zn    Zn3+2 0.004880 0.583590 0.004880 1.017932
Zn4   Zn    Zn3+2 0.995120 0.416410 0.995120 1.012370
Zn5   Zn    Zn3+2 0.583590 0.004880 0.004880 1.017505
Zn6   Zn    Zn3+2 0.416410 0.995120 0.995120 1.009687

loop_
_geom_bond_atom_site_label_1
_geom_bond_atom_site_label_2
_ccdc_geom_bond_type
C108  C138  A    
C79   C128  A    
C1    C64   A    
C1    C90   A    
C38   N10   T    
C116  C123  A    
C13   C81   A    
C42   C93   S    
C82   C99   A    
O10   Zn6   S    
C37   C88   S    
O9    Zn5   S    
C108  C121  A    
C96   C105  A    
C6    H25   S    
C10   C99   S    
O4    Zn1   S    
C26   N22   T    
C60   O2    A    
C21   N18   T    
C20   N12   T    
O1    Zn1   S    
O19   Zn4   S    
C7    H23   S    
C38   C89   S    
C92   C109  A    
C18   H21   S    
C51   C71   A    
C18   H20   S    
C57   C76   S    
C48   C134  A    
C9    H28   S    
C46   C66   A    
C2    C68   A    
C93   C108  A    
C46   C132  A    
C23   N20   T    
C50   O1    A    
C28   C122  S    
C109  C122  A    
C17   C102  S    
C31   N4    T    
C60   C72   S    
C15   C16   S    
C14   H10   S    
C43   N16   T    
C88   C113  A    
C43   C94   S    
C104  C137  A    
C51   C65   A    
C22   N19   T    
C17   H22   S    
C24   C82   A    
C20   C123  S    
C25   C125  S    
C34   N7    T    
C8    H30   S    
C51   C91   A    
C55   O20   A    
C45   C65   A    
C76   C95   A    
C56   O13   A    
C69   C128  A    
C59   O7    A    
C53   O18   A    
C87   C114  A    
C21   C129  S    
C29   C121  S    
C13   C86   A    
C79   C102  A    
C35   C64   A    
C67   C73   A    
C29   N2    T    
C56   C77   S    
O22   Zn6   S    
C61   O3    A    
C39   C90   S    
C15   H17   S    
C70   C97   A    
C24   C66   A    
C44   N17   T    
C27   C116  S    
C61   C71   S    
C49   C135  A    
C93   C95   A    
C49   C69   A    
C49   C138  A    
C47   C133  A    
C76   C102  A    
C12   H13   S    
O6    Zn2   S    
C27   N23   T    
O5    Zn1   S    
C28   N24   T    
C47   C67   A    
C24   C87   A    
C58   C75   S    
C17   C18   S    
C104  C118  A    
O20   Zn5   S    
C36   C87   S    
O16   Zn2   S    
C19   C124  S    
C71   C98   A    
C130  C136  A    
C94   C107  A    
C62   C66   A    
C120  C129  A    
C68   C84   A    
C6    C97   S    
O24   Zn4   S    
C9    H29   S    
C53   C80   S    
O7    Zn3   S    
C4    C132  A    
C85   C110  A    
C10   C11   S    
C61   O5    A    
C55   C78   S    
C59   O24   A    
C8    C9    S    
C74   C100  A    
C113  C126  A    
C115  C133  A    
O14   Zn4   S    
C14   H9    S    
C15   C101  S    
C64   C117  A    
O11   Zn6   S    
O12   Zn2   S    
C86   C115  A    
C52   O12   A    
C122  C126  A    
C2    C89   A    
C5    C133  A    
C103  C136  A    
C121  C125  A    
C44   C96   S    
C110  C123  A    
C7    H12   S    
O21   Zn6   S    
C89   C112  A    
C63   C70   S    
C3    C48   A    
C85   C117  A    
C55   O11   A    
C78   C117  A    
C78   C97   A    
C53   O14   A    
C56   O21   A    
C62   C72   A    
C77   C98   A    
C16   H14   S    
C118  C124  A    
C48   C68   A    
C8    C98   S    
C33   N6    T    
C11   H3    S    
C59   C74   S    
C90   C104  A    
C15   H18   S    
C6    C7    S    
C5    C46   A    
C23   C126  S    
C58   O23   A    
C111  C131  A    
C54   O19   A    
C12   C14   S    
C36   N8    T    
C35   C130  A    
C62   C94   A    
C16   H16   S    
C52   O17   A    
O8    Zn4   S    
C83   C111  A    
C41   N14   T    
C73   C74   A    
C107  C120  A    
C50   C82   S    
C115  C129  A    
C40   N13   T    
C5    C107  A    
C32   C83   S    
C14   H8    S    
C77   C106  A    
C45   C136  A    
C33   C85   S    
O18   Zn3   S    
C111  C124  A    
C10   H6    S    
C114  C132  A    
C12   H11   S    
C13   C67   A    
C26   C118  S    
C91   C103  A    
C69   C95   A    
C54   C79   S    
C134  C138  A    
C39   N11   T    
C63   O6    A    
C45   C131  A    
O2    Zn3   S    
C81   C100  A    
C42   N15   T    
C37   N9    T    
C4    C105  A    
C6    H26   S    
O15   Zn3   S    
C1    C70   A    
C83   C106  A    
C34   C86   S    
C80   C101  A    
C8    H2    S    
O17   Zn1   S    
C9    H27   S    
C103  C116  A    
C88   C128  A    
C18   H19   S    
C25   N21   T    
C35   C137  A    
C7    H1    S    
C114  C127  A    
C19   N1    T    
C22   C127  S    
C32   N5    T    
C30   C120  S    
C3    C109  A    
O13   Zn5   S    
C110  C130  A    
C3    C135  A    
C40   C91   S    
C52   C81   S    
C75   C84   A    
C11   H4    S    
C30   N3    T    
C12   C100  S    
C2    C80   A    
C17   H24   S    
C60   O8    A    
C10   H7    S    
C41   C92   S    
C57   O22   A    
C58   O10   A    
C54   O15   A    
C113  C135  A    
C57   O9    A    
C16   H15   S    
C75   C101  A    
C65   C106  A    
C63   O4    A    
C105  C119  A    
C84   C92   A    
C73   C96   A    
C112  C125  A    
C31   C119  S    
C112  C134  A    
C11   H5    S    
C4    C47   A    
O3    Zn2   S    
O23   Zn5   S    
C50   O16   A    
C131  C137  A    
C72   C99   A    
C119  C127  A    
