data_str_m9_o11_o18_f0_sra.sym.162
_audit_creation_date              2012-12-11T14:21:08-0500
_audit_creation_method            fapswitch 2.2
_symmetry_space_group_name_H-M    P1
_symmetry_Int_Tables_number       1
_space_group_crystal_system       triclinic
_cell_length_a                    22.012664
_cell_length_b                    7.20699
_cell_length_c                    14.918972
_cell_angle_alpha                 89.548632
_cell_angle_beta                  107.001752
_cell_angle_gamma                 89.868245
_cell_volume                      2263.28461067

loop_
_atom_site_label
_atom_site_type_symbol
_atom_type_description
_atom_site_fract_x
_atom_site_fract_y
_atom_site_fract_z
_atom_type_partial_charge
O1    O     O_R   0.584770 0.505770 0.002090 -0.538341
O2    O     O_R   0.415230 0.005770 0.997910 -0.540814
O3    O     O_R   0.467060 0.173340 0.861950 -0.539635
O4    O     O_R   0.532940 0.673340 0.138050 -0.539585
C1    C     C_R   0.455473 0.345214 0.825980 0.687546
C2    C     C_R   0.544579 0.843374 0.174160 0.687485
O5    O     O_R   0.587510 0.175890 0.993210 -0.543145
O6    O     O_R   0.412490 0.675890 0.006790 -0.540240
O7    O     O_R   0.536540 0.008150 0.130100 -0.537832
O8    O     O_R   0.463460 0.508150 0.869900 -0.537665
C3    C     C_R   0.613141 0.344410 0.999485 0.743596
C4    C     C_R   0.386853 0.844755 0.000536 0.744811
O9    O     O_3   0.483140 0.340040 0.044760 -0.378014
O10   O     O_3   0.516860 0.840040 0.955240 -0.377898
V1    V     V_3+5 0.503130 0.064190 0.991700 1.449343
V2    V     V_3+5 0.496870 0.564190 0.008300 1.458567
C5    C     C_2   0.213318 0.736490 0.995940 -0.181179
C6    C     C_2   0.786900 0.236632 0.004003 -0.177578
C7    C     C_2   0.183227 0.889438 0.014707 -0.187057
C8    C     C_2   0.816785 0.390591 0.985557 -0.185596
H1    H     H_    0.185701 0.612203 0.972069 0.149257
H2    H     H_    0.814705 0.111410 0.027633 0.149002
C9    C     C_2   0.283014 0.719522 0.008571 -0.111924
C10   C     C_2   0.717221 0.219628 0.991313 -0.120415
C11   C     C_2   0.318502 0.860225 0.992041 -0.281361
C12   C     C_2   0.681496 0.359360 0.008065 -0.275785
H3    H     H_    0.304365 0.583036 0.026222 0.162794
H4    H     H_    0.696108 0.083782 0.973475 0.161518
H5    H     H_    0.296443 0.993074 0.967539 0.139561
H6    H     H_    0.703372 0.491234 0.032740 0.141479
C13   C     C_R   0.926268 0.892280 0.723931 -0.031956
C14   C     C_R   0.073807 0.381539 0.275648 -0.029099
C15   C     C_R   0.571845 0.846493 0.276350 -0.073668
C16   C     C_R   0.428064 0.357359 0.724080 -0.071264
C17   C     C_R   0.933550 0.955048 0.568389 -0.162165
C18   C     C_R   0.064577 0.326632 0.430697 -0.161270
C19   C     C_R   0.962332 0.940419 0.664485 -0.172355
C20   C     C_R   0.036267 0.347445 0.334725 -0.175239
C21   C     C_R   0.861092 0.859593 0.687322 -0.208487
C22   C     C_R   0.139799 0.394443 0.312270 -0.205399
C23   C     C_R   0.830076 0.879004 0.590025 0.082920
C24   C     C_R   0.170054 0.371932 0.409524 0.083111
C25   C     C_R   0.867943 0.926641 0.530891 0.142666
C26   C     C_R   0.130855 0.337798 0.468406 0.142261
C27   C     C_R   0.762946 0.856657 0.549864 0.048506
C28   C     C_R   0.237547 0.380554 0.449990 0.048104
C29   C     C_R   0.735063 0.881575 0.450951 0.063923
C30   C     C_R   0.264535 0.355120 0.548994 0.063390
C31   C     C_R   0.775242 0.927602 0.395568 -0.186980
C32   C     C_R   0.223144 0.321635 0.604109 -0.185704
C33   C     C_R   0.840144 0.949054 0.434895 -0.202319
C34   C     C_R   0.157869 0.313497 0.564446 -0.202310
C35   C     C_R   0.722717 0.811734 0.605311 -0.173385
C36   C     C_R   0.278941 0.413378 0.394837 -0.169094
C37   C     C_R   0.657737 0.791562 0.565992 -0.168366
C38   C     C_R   0.344214 0.421942 0.434597 -0.168468
C39   C     C_R   0.629947 0.813665 0.469904 0.118531
C40   C     C_R   0.371210 0.398824 0.530772 0.117360
C41   C     C_R   0.667931 0.859232 0.410758 0.085959
C42   C     C_R   0.332016 0.364549 0.589537 0.086456
C43   C     C_R   0.564213 0.787568 0.432530 -0.193021
C44   C     C_R   0.437444 0.411361 0.568560 -0.191893
C45   C     C_R   0.535122 0.801809 0.336173 -0.043061
C46   C     C_R   0.466012 0.391955 0.664851 -0.045447
C47   C     C_R   0.637120 0.877021 0.313417 -0.222050
C48   C     C_R   0.362146 0.343022 0.686798 -0.220170
H7    H     H_    0.868879 0.985530 0.389504 0.121985
H8    H     H_    0.128150 0.287126 0.609680 0.121292
H9    H     H_    0.662515 0.907937 0.263470 0.100705
H10   H     H_    0.336005 0.317945 0.736405 0.097949
H11   H     H_    0.628927 0.756538 0.611484 0.150540
H12   H     H_    0.373940 0.447868 0.389339 0.152668
H13   H     H_    0.962430 0.992608 0.523400 0.112862
H14   H     H_    0.034632 0.299928 0.475531 0.112867
H15   H     H_    0.012643 0.968412 0.692683 0.104957
H16   H     H_    0.985167 0.335753 0.306409 0.103801
H17   H     H_    0.836039 0.825705 0.737356 0.111220
H18   H     H_    0.165768 0.419322 0.262406 0.108253
H19   H     H_    0.758231 0.949716 0.320998 0.122348
H20   H     H_    0.239395 0.300424 0.678781 0.121551
H21   H     H_    0.739740 0.790630 0.679968 0.147972
H22   H     H_    0.262655 0.433669 0.320086 0.144615
H23   H     H_    0.535648 0.752637 0.478465 0.119807
H24   H     H_    0.466920 0.438196 0.522941 0.120150
O11   O     O_R   0.036450 0.233070 0.130130 -0.537202
O12   O     O_R   0.963550 0.733070 0.869870 -0.538336
O13   O     O_R   0.912470 0.560570 0.006790 -0.542122
O14   O     O_R   0.087530 0.060570 0.993210 -0.541826
C49   C     C_R   0.886415 0.392718 0.999134 0.681032
C50   C     C_R   0.113595 0.892327 0.000929 0.682929
O15   O     O_R   0.032920 0.562940 0.138050 -0.539068
O16   O     O_R   0.967080 0.062940 0.861950 -0.538754
O17   O     O_R   0.084790 0.730500 0.002090 -0.537542
O18   O     O_R   0.915210 0.230500 0.997910 -0.536975
C51   C     C_R   0.044933 0.393538 0.174409 0.690542
C52   C     C_R   0.954961 0.895394 0.825468 0.690609
O19   O     O_3   0.016820 0.396170 0.955260 -0.378641
O20   O     O_3   0.983180 0.896170 0.044740 -0.378411
V3    V     V_3+5 0.996880 0.672090 0.008300 1.434539
V4    V     V_3+5 0.003120 0.172090 0.991700 1.436827
C53   C     C_1   0.218261 0.051233 0.058734 0.340409
N1    N     N_1   0.245917 0.180580 0.094080 -0.375877
C54   C     C_1   0.781522 0.554143 0.941798 0.339462
N2    N     N_1   0.753668 0.684877 0.906640 -0.377173
C55   C     C_1   0.467657 0.769050 0.299910 0.280043
N3    N     N_1   0.413618 0.742880 0.270750 -0.357478
C56   C     C_1   0.534162 0.409078 0.701617 0.274437
N4    N     N_1   0.588752 0.422835 0.731140 -0.347877

loop_
_geom_bond_atom_site_label_1
_geom_bond_atom_site_label_2
_ccdc_geom_bond_type
C40   C44   A    
C53   N1    T    
O11   C51   A    
O1    C3    A    
O2    C4    A    
C16   C48   A    
C2    O7    A    
C15   C47   A    
C29   C31   A    
C8    C54   S    
C20   H16   S    
O5    C3    A    
C5    C9    S    
C46   C56   S    
C6    C10   S    
C21   H17   S    
C17   C19   A    
C10   C12   D    
C39   C41   A    
C40   C42   A    
C13   C52   S    
O16   C52   A    
C35   H21   S    
C24   C28   A    
C27   C29   A    
C49   O18   A    
C43   C45   A    
C44   C46   A    
C17   H13   S    
C13   C21   A    
C31   C33   A    
C32   C34   A    
C56   N4    T    
C9    H3    S    
C45   C55   S    
C17   C25   A    
O17   V3    S    
C34   H8    S    
C15   C45   A    
C26   C34   A    
C30   C32   A    
C19   H15   S    
C42   C48   A    
O6    V2    S    
C23   C25   A    
C24   C26   A    
C30   C42   A    
O13   V3    S    
C35   C37   A    
C11   H5    S    
C36   C38   A    
O4    C2    A    
C43   H23   S    
O5    V1    S    
C3    C12   S    
C38   H12   S    
O15   C51   A    
C27   C35   A    
C5    H1    S    
C31   H19   S    
O4    V2    S    
O2    V1    S    
O18   V4    S    
O6    C4    A    
C1    C16   S    
C28   C36   A    
C16   C46   A    
O1    V2    S    
C33   H7    S    
O12   V3    S    
O14   V4    S    
O12   C52   A    
O14   C50   A    
C12   H6    S    
C14   C20   A    
C14   C22   A    
C37   C39   A    
C22   H18   S    
C18   C26   A    
C36   H22   S    
O19   V4    S    
O3    V1    S    
O16   V4    S    
C50   O17   A    
C8    C49   S    
C44   H24   S    
C18   H14   S    
C6    H2    S    
C10   H4    S    
O3    C1    A    
C32   H20   S    
C39   C43   A    
C55   N3    T    
C2    C15   S    
C4    C11   S    
C18   C20   A    
O7    V1    S    
C1    O8    A    
O11   V4    S    
O8    V2    S    
C41   C47   A    
C7    C53   S    
C25   C33   A    
C48   H10   S    
C47   H9    S    
C22   C24   A    
C5    C7    D    
C38   C40   A    
C6    C8    D    
C9    C11   D    
C29   C41   A    
C28   C30   A    
C13   C19   A    
C14   C51   S    
C21   C23   A    
O20   V3    S    
O9    V2    S    
C54   N2    T    
C7    C50   S    
O13   C49   A    
C23   C27   A    
O10   V1    S    
O15   V3    S    
C37   H11   S    
