data_str_m9_o4_o16_f0_sra.sym.20
_audit_creation_date              2013-03-05T16:07:19-0500
_audit_creation_method            fapswitch 2.2
_symmetry_space_group_name_H-M    P1
_symmetry_Int_Tables_number       1
_space_group_crystal_system       triclinic
_cell_length_a                    6.958174
_cell_length_b                    13.622035
_cell_length_c                    20.260811
_cell_angle_alpha                 103.057739
_cell_angle_beta                  90.586827
_cell_angle_gamma                 90.194172
_cell_volume                      1870.62416258

loop_
_atom_site_label
_atom_site_type_symbol
_atom_site_description
_atom_site_fract_x
_atom_site_fract_y
_atom_site_fract_z
_atom_type_partial_charge
O1    O     O_R   0.506770 0.599700 0.449550 -0.602466
O2    O     O_R   0.179980 0.595740 0.587960 -0.594358
O3    O     O_R   0.004580 0.400300 0.550450 -0.583263
C1    C     C_R   0.349251 0.619433 0.614466 0.996113
O4    O     O_R   0.177380 0.611700 0.452380 -0.601929
O5    O     O_R   0.001970 0.416370 0.413900 -0.602941
C2    C     C_R   0.345396 0.638345 0.435690 0.947005
O6    O     O_R   0.509390 0.583630 0.586100 -0.569695
O7    O     O_3   0.337530 0.435890 0.487530 -0.282607
V1    V     V_3+5 0.064660 0.511890 0.502310 1.185485
O8    O     O_R   0.671950 0.404260 0.412040 -0.605279
C3    C     C_R   0.840126 0.382943 0.384686 0.919688
O9    O     O_R   0.674540 0.388300 0.547620 -0.574302
C4    C     C_R   0.844132 0.359669 0.562493 1.023325
V2    V     V_3+5 0.564030 0.488110 0.497690 1.189216
O10   O     O_3   0.841030 0.564110 0.512470 -0.279326
C5    C     C_R   0.937411 0.115944 0.612777 -0.153225
H1    H     H_    0.922309 0.162754 0.518831 0.145033
H2    H     H_    0.013395 0.999088 0.697501 0.119894
H3    H     H_    0.981666 0.040432 0.588131 0.132461
C6    C     C_R   0.855135 0.284184 0.603693 -0.251003
C7    C     C_R   0.769294 0.306788 0.929218 -0.192472
C8    C     C_R   0.703038 0.373503 0.891894 -0.062181
C9    C     C_R   0.722364 0.351172 0.821859 -0.055573
C10   C     C_R   0.822509 0.264536 0.787292 0.074231
C11   C     C_R   0.878588 0.193210 0.825532 0.111950
C12   C     C_R   0.856057 0.242473 0.715622 -0.068321
C13   C     C_R   0.917756 0.143793 0.683384 0.169343
C14   C     C_R   0.963239 0.073682 0.721753 -0.218737
C15   C     C_R   0.949439 0.098863 0.791752 -0.220098
C16   C     C_R   0.835530 0.314181 0.674452 0.288043
C17   C     C_R   0.903661 0.185272 0.573191 -0.235450
C18   C     C_R   0.851537 0.215513 0.896617 -0.170520
H4    H     H_    0.744282 0.323185 0.983320 0.110833
H5    H     H_    0.646137 0.400157 0.796225 0.190182
H6    H     H_    0.627957 0.440908 0.917045 0.143503
H7    H     H_    0.990367 0.042453 0.819110 0.120668
C19   C     C_R   0.712398 0.179884 0.227713 0.187016
C20   C     C_R   0.867709 0.182724 0.184678 -0.227215
C21   C     C_R   0.022190 0.247322 0.210964 -0.169066
H8    H     H_    0.144474 0.252726 0.179580 0.142999
C22   C     C_R   0.014293 0.311019 0.276247 -0.150632
H9    H     H_    0.131340 0.363294 0.293229 0.134004
C23   C     C_R   0.851316 0.312362 0.317242 -0.218559
C24   C     C_R   0.704381 0.243027 0.292347 0.165412
C25   C     C_3   0.495589 0.262087 0.285152 -0.482128
C26   C     C_3   0.504391 0.193875 0.214844 -0.470849
H10   H     H_    0.466315 0.342097 0.284654 0.186232
H11   H     H_    0.407586 0.230334 0.320922 0.198855
H12   H     H_    0.480503 0.234133 0.173472 0.189542
H13   H     H_    0.420759 0.123212 0.210021 0.188233
C27   C     C_R   0.505199 0.685497 0.728564 0.300277
C28   C     C_R   0.355069 0.688237 0.682695 -0.243799
C29   C     C_R   0.197673 0.750978 0.706521 -0.179772
H14   H     H_    0.077990 0.755623 0.672959 0.131931
C30   C     C_R   0.197737 0.812664 0.772570 -0.065798
H15   H     H_    0.080203 0.864182 0.787425 0.114681
C31   C     C_R   0.353671 0.812171 0.817303 -0.249189
C32   C     C_R   0.501806 0.743774 0.794732 0.083380
C33   C     C_3   0.713005 0.761825 0.796094 0.154360
C34   C     C_3   0.715189 0.705062 0.722313 -0.587047
H16   H     H_    0.753961 0.842726 0.804580 0.065898
H17   H     H_    0.805310 0.636661 0.712699 0.291901
H18   H     H_    0.741065 0.755252 0.686954 0.145428
C35   C     C_R   0.293953 0.889221 0.389545 0.634668
H19   H     H_    0.285125 0.836566 0.481931 0.130781
H20   H     H_    0.253142 0.011017 0.303534 0.173209
C36   C     C_R   0.349551 0.716222 0.396435 -0.137069
C37   C     C_R   0.401671 0.684743 0.070430 -0.124821
C38   C     C_R   0.417642 0.609558 0.106380 -0.095003
C39   C     C_R   0.400069 0.632441 0.176639 -0.192479
C40   C     C_R   0.363583 0.732261 0.213071 0.137539
C41   C     C_R   0.340710 0.808297 0.175449 0.109639
C42   C     C_R   0.349929 0.759188 0.285394 0.035575
C43   C     C_R   0.309892 0.860981 0.318272 -0.001074
C44   C     C_R   0.284733 0.933336 0.279693 -0.180940
C45   C     C_R   0.299457 0.907466 0.209721 -0.249710
C46   C     C_R   0.372631 0.688298 0.326281 -0.247935
C47   C     C_R   0.308411 0.815849 0.427751 -0.345985
C48   C     C_R   0.362916 0.783877 0.104105 -0.185794
H21   H     H_    0.401765 0.609921 0.305239 0.110560
H22   H     H_    0.421324 0.665742 0.016030 0.132102
H23   H     H_    0.416357 0.570051 0.200655 0.110588
H24   H     H_    0.446894 0.532921 0.079657 0.117030
H25   H     H_    0.276626 0.966131 0.182462 0.126760
O11   O     O_R   0.203450 0.916320 0.913910 -0.562935
O12   O     O_R   0.535520 0.888300 0.047620 -0.588120
O13   O     O_R   0.710860 0.083650 0.086100 -0.599408
C49   C     C_R   0.367499 0.861931 0.064579 0.946655
O14   O     O_R   0.532860 0.904250 0.912040 -0.604495
O15   O     O_R   0.708190 0.099710 0.949550 -0.598345
C50   C     C_R   0.363668 0.882779 0.884755 0.968305
O16   O     O_R   0.206120 0.900260 0.050460 -0.583616
O17   O     O_3   0.375280 0.064080 0.012470 -0.292851
V3    V     V_3+5 0.648180 0.988110 0.997690 1.197511
O18   O     O_R   0.038220 0.111740 0.952370 -0.604129
C51   C     C_R   0.868506 0.137838 0.935613 0.923641
O19   O     O_R   0.040880 0.095790 0.087940 -0.609044
C52   C     C_R   0.873019 0.117415 0.115215 0.927822
V4    V     V_3+5 0.148800 0.011950 0.002300 1.185603
O20   O     O_3   0.871820 0.935920 0.987530 -0.230565
N1    N     N_R   0.810816 0.707746 0.841471 0.272178
O21   O     O_R   0.763328 0.615391 0.842012 -0.354403
O22   O     O_R   0.936830 0.754334 0.885324 -0.375853
O23   O     O_3   0.246326 0.986915 0.421311 -0.635849
C53   C     C_3   0.412758 0.036345 0.452884 -0.286365
H26   H     H_    0.376713 0.116146 0.475229 0.185634
H27   H     H_    0.529484 0.036165 0.415624 0.139744
H28   H     H_    0.464049 0.002309 0.494844 0.150755
N2    N     N_R   0.819183 0.419550 0.703356 0.204778
O24   O     O_R   0.962376 0.468733 0.737524 -0.374037
O25   O     O_R   0.665493 0.467291 0.691689 -0.439575

loop_
_geom_bond_atom_site_label_1
_geom_bond_atom_site_label_2
_geom_bond_distance
_ccdc_geom_bond_type
C35   C47   1.398916 A    
C1    C28   1.484652 S    
C1    O6    1.303808 A    
O14   V3    2.007417 S    
C28   C29   1.411964 A    
C23   C24   1.399782 A    
H19   C47   1.083910 S    
C6    C16   1.407321 A    
C25   H11   1.111856 S    
C4    C6    1.465280 S    
C13   C14   1.396109 A    
C27   C34   1.496141 S    
O5    C3    1.298823 A    
C19   C20   1.401390 A    
C53   H26   1.109657 S    
V2    O10   2.170474 S    
O19   C52   1.303224 A    
C5    H3    1.084171 S    
C30   H15   1.079535 S    
C33   H16   1.111976 S    
C48   C49   1.468974 S    
C34   H17   1.106241 S    
N2    O24   1.301001 A    
C19   C24   1.396659 A    
C37   H22   1.083937 S    
C2    C36   1.462977 S    
C29   H14   1.080784 S    
O14   C50   1.299374 A    
C16   N2    1.427848 S    
O12   V3    2.029033 S    
C8    C9    1.390402 A    
C38   C39   1.393497 A    
O1    V2    2.021586 S    
C38   H24   1.082917 S    
O7    V1    2.156694 S    
O8    V2    2.004191 S    
C36   C47   1.394119 A    
C21   C22   1.410181 A    
O13   V3    2.004829 S    
C45   H25   1.080442 S    
C32   C33   1.488114 S    
O9    C4    1.297836 A    
C49   O16   1.296239 A    
N1    O21   1.302105 A    
C22   C23   1.410245 A    
C33   N1    1.465524 S    
C35   O23   1.383973 S    
C26   H12   1.111954 S    
C39   H23   1.076241 S    
C44   C45   1.386363 A    
C36   C46   1.396996 A    
C7    H4    1.084101 S    
C6    C17   1.393729 A    
C29   C30   1.410240 A    
C9    H5    1.072227 S    
C42   C43   1.425866 A    
C12   C16   1.427249 A    
C9    C10   1.418073 A    
C40   C42   1.432127 A    
C20   C21   1.408358 A    
O4    C2    1.293650 A    
C26   H13   1.107821 S    
C10   C11   1.425875 A    
C24   C25   1.488163 S    
C15   H7    1.081446 S    
C33   C34   1.520195 S    
C34   H18   1.111861 S    
O2    C1    1.298454 A    
C43   C44   1.399850 A    
C14   C15   1.386170 A    
C27   C32   1.395659 A    
C11   C18   1.417826 A    
C20   C52   1.486296 S    
O17   V4    1.717496 S    
O18   C51   1.298211 A    
O17   V3    2.156693 S    
O15   C51   1.289438 A    
N1    O22   1.298647 A    
O16   V4    2.023103 S    
C19   C26   1.488533 S    
O3    C4    1.294099 A    
C21   H8    1.079604 S    
C11   C15   1.406031 A    
O6    V2    2.002584 S    
O19   V4    2.003990 S    
O12   C49   1.294245 A    
H1    C17   1.083741 S    
C22   H9    1.080916 S    
O2    V1    2.007366 S    
O11   V4    2.002967 S    
C27   C28   1.397271 A    
C7    C18   1.396841 A    
C25   C26   1.516706 S    
O1    C2    1.296589 A    
C5    C13   1.402942 A    
C40   C41   1.426379 A    
O5    V1    2.004723 S    
O8    C3    1.305261 A    
C10   C12   1.436522 A    
O23   C53   1.410191 S    
C35   C43   1.413551 A    
O9    V2    2.018877 S    
C31   C32   1.401171 A    
O4    V1    2.029195 S    
C3    C23   1.485510 S    
O3    V1    2.027493 S    
O11   C50   1.302118 A    
C46   H21   1.077167 S    
C53   H27   1.114148 S    
O18   V4    2.018849 S    
V4    O20   2.170528 S    
C41   C48   1.418317 A    
C30   C31   1.407619 A    
C18   C51   1.460969 S    
O7    V2    1.718089 S    
C37   C38   1.388527 A    
N2    O25   1.300547 A    
O13   C52   1.301118 A    
O15   V3    2.027506 S    
C25   H10   1.111717 S    
C39   C40   1.418041 A    
C8    H6    1.083040 S    
C42   C46   1.415468 A    
C12   C13   1.425049 A    
C5    C17   1.389315 A    
C41   C45   1.404383 A    
C7    C8    1.384386 A    
C37   C48   1.397052 A    
V1    O10   1.708096 S    
H20   C44   1.083579 S    
C31   C50   1.483674 S    
V3    O20   1.708000 S    
C53   H28   1.112695 S    
H2    C14   1.084465 S    
