data_str_m12_o10_o22_f0_bcu.sym.112
_audit_creation_date              2012-12-11T14:07:18-0500
_audit_creation_method            fapswitch 2.2
_symmetry_space_group_name_H-M    P1
_symmetry_Int_Tables_number       1
_space_group_crystal_system       triclinic
_cell_length_a                    19.705617
_cell_length_b                    17.019957
_cell_length_c                    15.331729
_cell_angle_alpha                 90.244939
_cell_angle_beta                  53.349727
_cell_angle_gamma                 90.091976
_cell_volume                      4125.4270811

loop_
_atom_site_label
_atom_site_type_symbol
_atom_type_description
_atom_site_fract_x
_atom_site_fract_y
_atom_site_fract_z
_atom_type_partial_charge
C1    C     C_R   0.375015 0.197638 0.995431 -0.133354
C2    C     C_R   0.339976 0.825336 0.050237 -0.110859
C3    C     C_R   0.875015 0.697638 0.995431 -0.133395
C4    C     C_R   0.839972 0.325342 0.050249 -0.110889
C5    C     C_R   0.669670 0.917677 0.050102 -0.155360
C6    C     C_R   0.633788 0.105422 0.105116 -0.163619
C7    C     C_R   0.169670 0.417677 0.050102 -0.155364
C8    C     C_R   0.133789 0.605423 0.105114 -0.163620
C9    C     C_R   0.651187 0.183966 0.073073 0.156956
C10   C     C_R   0.711065 0.853507 0.980270 0.153151
C11   C     C_R   0.151190 0.683967 0.073068 0.156953
C12   C     C_R   0.211065 0.353508 0.980269 0.153140
C13   C     C_R   0.602216 0.813705 0.699597 0.017690
C14   C     C_R   0.691433 0.137130 0.677611 0.013027
C15   C     C_R   0.102201 0.313706 0.699601 0.017687
C16   C     C_R   0.191449 0.637116 0.677613 0.012919
C17   C     C_3   0.199353 0.122043 0.527845 0.090904
C18   C     C_3   0.245410 0.800647 0.476376 0.057693
C19   C     C_3   0.699407 0.622046 0.527853 0.090928
C20   C     C_3   0.745432 0.300646 0.476330 0.057801
C21   C     C_3   0.146312 0.173224 0.633783 -0.029856
C22   C     C_3   0.190385 0.746651 0.576587 0.005562
C23   C     C_3   0.646376 0.673231 0.633786 -0.029849
C24   C     C_3   0.690415 0.246723 0.576629 0.005581
C25   C     C_3   0.295079 0.240936 0.433094 -0.483944
C26   C     C_3   0.376562 0.767963 0.464875 -0.472838
C27   C     C_3   0.795076 0.740963 0.433058 -0.483984
C28   C     C_3   0.876568 0.267955 0.464869 -0.472988
C29   C     C_3   0.673371 0.717465 0.423243 -0.429454
C30   C     C_3   0.837150 0.179815 0.370358 -0.444314
C31   C     C_3   0.173406 0.217515 0.423198 -0.429514
C32   C     C_3   0.337132 0.679831 0.370371 -0.444650
C33   C     C_3   0.242901 0.176901 0.425176 0.273919
C34   C     C_3   0.337542 0.766578 0.401518 0.287073
C35   C     C_3   0.742905 0.676894 0.425181 0.273913
C36   C     C_3   0.837560 0.266565 0.401496 0.286956
C37   C     C_3   0.646397 0.761367 0.602420 0.164898
C38   C     C_3   0.747122 0.181607 0.576009 0.148172
C39   C     C_3   0.146387 0.261372 0.602418 0.164899
C40   C     C_3   0.247128 0.681601 0.576013 0.148245
C41   C     C_3   0.739122 0.790361 0.534542 -0.414816
C42   C     C_3   0.819844 0.221948 0.571672 -0.452520
C43   C     C_3   0.239126 0.290321 0.534594 -0.414719
C44   C     C_3   0.319790 0.722028 0.571733 -0.452612
C45   C     C_R   0.398831 0.800783 0.207756 -0.139873
C46   C     C_R   0.347951 0.169626 0.219616 -0.135798
C47   C     C_R   0.898856 0.300776 0.207738 -0.139890
C48   C     C_R   0.847947 0.669621 0.219619 -0.135799
C49   C     C_3   0.611218 0.761965 0.532465 0.100051
C50   C     C_3   0.787318 0.127997 0.472222 0.072910
C51   C     C_3   0.111253 0.262022 0.532409 0.100037
C52   C     C_3   0.287411 0.627981 0.472216 0.072908
C53   C     C_2   0.191791 0.740659 0.099109 -0.205266
C54   C     C_2   0.285032 0.315076 0.959093 -0.197856
C55   C     C_2   0.691798 0.240653 0.099109 -0.205257
C56   C     C_2   0.785033 0.815077 0.959093 -0.197945
C57   C     C_2   0.711480 0.312562 0.054169 -0.197264
C58   C     C_2   0.811646 0.746968 0.904311 -0.203416
C59   C     C_2   0.211497 0.812557 0.054133 -0.197249
C60   C     C_2   0.311642 0.246967 0.904315 -0.203527
C61   C     C_R   0.329074 0.913124 0.952727 -0.161794
C62   C     C_R   0.365786 0.111036 0.896119 -0.158004
C63   C     C_R   0.829069 0.413126 0.952736 -0.161775
C64   C     C_R   0.865787 0.611037 0.896118 -0.158028
C65   C     C_R   0.357618 0.077077 0.314420 -0.153888
C66   C     C_R   0.405685 0.892899 0.305004 -0.163013
C67   C     C_R   0.857620 0.577072 0.314418 -0.153886
C68   C     C_R   0.905702 0.392890 0.304992 -0.163005
C69   C     C_R   0.347481 0.187421 0.932656 0.150994
C70   C     C_R   0.287208 0.851974 0.026173 0.149102
C71   C     C_R   0.847483 0.687422 0.932654 0.150938
C72   C     C_R   0.787200 0.351978 0.026190 0.149097
C73   C     C_R   0.387221 0.815408 0.304192 0.063857
C74   C     C_R   0.305715 0.135398 0.322062 0.045836
C75   C     C_R   0.887253 0.315395 0.304170 0.063808
C76   C     C_R   0.805715 0.635392 0.322064 0.045828
C77   C     C_R   0.623675 0.199916 0.011180 -0.130739
C78   C     C_R   0.660543 0.822196 0.953545 -0.122302
C79   C     C_R   0.123676 0.699915 0.011176 -0.130727
C80   C     C_R   0.160543 0.322196 0.953544 -0.122299
C81   C     C_R   0.597423 0.800467 0.792328 -0.155699
C82   C     C_R   0.650655 0.170851 0.780373 -0.129618
C83   C     C_R   0.097415 0.300466 0.792328 -0.155643
C84   C     C_R   0.150662 0.670843 0.780374 -0.129763
C85   C     C_R   0.642032 0.075721 0.685713 -0.101745
C86   C     C_R   0.588754 0.892993 0.698258 -0.134502
C87   C     C_R   0.142042 0.575711 0.685716 -0.101503
C88   C     C_R   0.088745 0.392995 0.698264 -0.134542
H1    H     H_    0.383796 0.252740 0.022670 0.083012
H2    H     H_    0.330682 0.776587 0.100774 0.088783
H3    H     H_    0.883795 0.752740 0.022672 0.083037
H4    H     H_    0.830671 0.276603 0.100803 0.088809
H5    H     H_    0.180251 0.171158 0.671523 0.101794
H6    H     H_    0.165109 0.784698 0.649495 0.106399
H7    H     H_    0.680344 0.671204 0.671488 0.101801
H8    H     H_    0.665282 0.284803 0.649470 0.106339
H9    H     H_    0.345699 0.213251 0.434365 0.167574
H10   H     H_    0.383220 0.828956 0.484891 0.151226
H11   H     H_    0.845710 0.713305 0.434322 0.167583
H12   H     H_    0.883155 0.328949 0.484956 0.151245
H13   H     H_    0.764076 0.787002 0.583312 0.163295
H14   H     H_    0.793945 0.263460 0.640981 0.154863
H15   H     H_    0.264049 0.286907 0.583394 0.163273
H16   H     H_    0.293828 0.763602 0.640989 0.154846
H17   H     H_    0.703284 0.756881 0.352375 0.177727
H18   H     H_    0.903679 0.159133 0.312794 0.177409
H19   H     H_    0.203350 0.256941 0.352337 0.177739
H20   H     H_    0.403660 0.659179 0.312706 0.177430
H21   H     H_    0.638357 0.673527 0.410311 0.149330
H22   H     H_    0.807435 0.174482 0.327705 0.132825
H23   H     H_    0.138386 0.173606 0.410236 0.149325
H24   H     H_    0.307329 0.674505 0.327825 0.132797
H25   H     H_    0.552260 0.726317 0.578349 0.059961
H26   H     H_    0.736489 0.099739 0.472207 0.092583
H27   H     H_    0.052276 0.226401 0.578266 0.059963
H28   H     H_    0.236647 0.599587 0.472187 0.092653
H29   H     H_    0.326984 0.280528 0.361230 0.185125
H30   H     H_    0.440998 0.741529 0.414261 0.188509
H31   H     H_    0.826963 0.780543 0.361182 0.185135
H32   H     H_    0.941033 0.241582 0.414232 0.188442
H33   H     H_    0.398182 0.744574 0.175303 0.086656
H34   H     H_    0.328688 0.220690 0.198105 0.090840
H35   H     H_    0.898222 0.244569 0.175269 0.086673
H36   H     H_    0.828679 0.720685 0.198114 0.090846
H37   H     H_    0.743866 0.853053 0.512428 0.188517
H38   H     H_    0.858238 0.177778 0.577987 0.182290
H39   H     H_    0.243909 0.353023 0.512508 0.188370
H40   H     H_    0.358165 0.677921 0.578182 0.182243
H41   H     H_    0.218449 0.717696 0.138434 0.122749
H42   H     H_    0.305212 0.334650 0.007670 0.122683
H43   H     H_    0.718482 0.217676 0.138396 0.122757
H44   H     H_    0.805212 0.834650 0.007671 0.122700
H45   H     H_    0.682847 0.336643 0.017966 0.121987
H46   H     H_    0.793958 0.728525 0.852662 0.123627
H47   H     H_    0.182890 0.836626 0.017892 0.121980
H48   H     H_    0.293953 0.228523 0.852668 0.123608
H49   H     H_    0.307576 0.947142 0.914072 0.097495
H50   H     H_    0.362492 0.085148 0.834170 0.089214
H51   H     H_    0.807567 0.447146 0.914086 0.097494
H52   H     H_    0.862493 0.585149 0.834167 0.089250
H53   H     H_    0.348196 0.040663 0.377972 0.097609
H54   H     H_    0.409578 0.922903 0.364100 0.084615
H55   H     H_    0.848200 0.540650 0.377963 0.097630
H56   H     H_    0.909596 0.422891 0.364090 0.084608
H57   H     H_    0.616997 0.256193 0.984850 0.081554
H58   H     H_    0.671139 0.771195 0.904821 0.086521
H59   H     H_    0.116996 0.756191 0.984847 0.081551
H60   H     H_    0.171139 0.271196 0.904818 0.086520
H61   H     H_    0.600049 0.744783 0.823420 0.100452
H62   H     H_    0.668824 0.222924 0.802225 0.087907
H63   H     H_    0.100040 0.244779 0.823416 0.100407
H64   H     H_    0.168831 0.722915 0.802227 0.087969
H65   H     H_    0.651772 0.038647 0.622145 0.086586
H66   H     H_    0.583440 0.924901 0.642354 0.130559
H67   H     H_    0.151782 0.538635 0.622152 0.086548
H68   H     H_    0.083416 0.424908 0.642378 0.130579
H69   H     H_    0.690896 0.951731 0.089244 0.097718
H70   H     H_    0.638183 0.078541 0.165372 0.091250
H71   H     H_    0.190896 0.451731 0.089244 0.097711
H72   H     H_    0.138182 0.578544 0.165373 0.091247
H73   H     H_    0.249050 0.093964 0.530216 0.089686
H74   H     H_    0.249493 0.858382 0.507752 0.113006
H75   H     H_    0.749131 0.593998 0.530197 0.089676
H76   H     H_    0.749523 0.358420 0.507617 0.112997
N1    N     N_R   0.408680 0.130160 0.995800 -0.041175
N2    N     N_R   0.408680 0.869840 0.995800 -0.044322
N3    N     N_R   0.908680 0.630160 0.995800 -0.041175
N4    N     N_R   0.908680 0.369840 0.995800 -0.044320
N5    N     N_R   0.421680 0.867580 0.153120 -0.038110
N6    N     N_R   0.421680 0.132420 0.153120 -0.037882
N7    N     N_R   0.921680 0.367580 0.153120 -0.038123
N8    N     N_R   0.921680 0.632420 0.153120 -0.037878
N9    N     N_R   0.403730 0.921770 0.935950 -0.040261
N10   N     N_R   0.403730 0.078230 0.935950 -0.037189
N11   N     N_R   0.903730 0.421770 0.935950 -0.040258
N12   N     N_R   0.903730 0.578230 0.935950 -0.037196
N13   N     N_R   0.426630 0.075970 0.212960 -0.035739
N14   N     N_R   0.426630 0.924030 0.212960 -0.033478
N15   N     N_R   0.926630 0.575970 0.212960 -0.035742
N16   N     N_R   0.926630 0.424030 0.212960 -0.033477
N17   N     N_R   0.591320 0.134600 0.004200 -0.044199
N18   N     N_R   0.591320 0.865400 0.004200 -0.045887
N19   N     N_R   0.091320 0.634600 0.004200 -0.044188
N20   N     N_R   0.091320 0.365400 0.004200 -0.045884
N21   N     N_R   0.578320 0.867660 0.846880 -0.034871
N22   N     N_R   0.578320 0.132340 0.846880 -0.040294
N23   N     N_R   0.078320 0.367660 0.846880 -0.034870
N24   N     N_R   0.078320 0.632340 0.846880 -0.040323
N25   N     N_R   0.573370 0.074390 0.787040 -0.035820
N26   N     N_R   0.573370 0.925610 0.787040 -0.041299
N27   N     N_R   0.073370 0.574390 0.787040 -0.035868
N28   N     N_R   0.073370 0.425610 0.787040 -0.041302
N29   N     N_R   0.596270 0.927870 0.064040 -0.038732
N30   N     N_R   0.596270 0.072130 0.064040 -0.037683
N31   N     N_R   0.096270 0.427870 0.064040 -0.038727
N32   N     N_R   0.096270 0.572130 0.064040 -0.037681
Ni1   Ni    Ni4+2 0.500000 0.131190 0.000000 0.203441
Ni2   Ni    Ni4+2 0.500000 0.868810 0.000000 0.205413
Ni3   Ni    Ni4+2 0.000000 0.631190 0.000000 0.203438
Ni4   Ni    Ni4+2 0.000000 0.368810 0.000000 0.205413
Ni5   Ni    Ni4+2 0.488650 0.000000 0.862740 0.207077
Ni6   Ni    Ni4+2 0.988650 0.500000 0.862740 0.207064
Ni7   Ni    Ni4+2 0.511350 1.000000 0.137260 0.209431
Ni8   Ni    Ni4+2 0.011350 0.500000 0.137260 0.209435
C89   C     C_3   0.149540 0.053919 0.522652 -0.955028
H77   H     H_    0.133985 0.008194 0.583287 0.256379
H78   H     H_    0.089810 0.075042 0.538615 0.258799
H79   H     H_    0.187697 0.024638 0.441933 0.242137
C90   C     C_3   0.205690 0.820761 0.417063 -0.986371
H80   H     H_    0.139581 0.841158 0.475772 0.262200
H81   H     H_    0.239731 0.870260 0.359877 0.259241
H82   H     H_    0.207184 0.769849 0.370587 0.244047
C91   C     C_3   0.649603 0.553889 0.522702 -0.955072
H83   H     H_    0.634097 0.508169 0.583322 0.256368
H84   H     H_    0.589847 0.574981 0.538713 0.258807
H85   H     H_    0.687744 0.524610 0.441982 0.242146
C92   C     C_3   0.705704 0.320652 0.416999 -0.986487
H86   H     H_    0.639605 0.341089 0.475676 0.262213
H87   H     H_    0.739760 0.370093 0.359707 0.259273
H88   H     H_    0.707160 0.269677 0.370638 0.244008
N33   N     N_2   0.560731 0.642460 0.711972 -0.089829
H89   H     H_    0.511815 0.682491 0.746647 0.172869
C93   C     C_3   0.549863 0.585631 0.789521 -0.946471
H90   H     H_    0.490093 0.552808 0.824739 0.256487
H91   H     H_    0.546326 0.615964 0.856345 0.233977
H92   H     H_    0.603029 0.542972 0.750049 0.251320
N34   N     N_2   0.619060 0.211281 0.584883 -0.099035
H93   H     H_    0.629049 0.186935 0.516441 0.176625
C94   C     C_3   0.535187 0.241529 0.667057 -0.898226
H94   H     H_    0.487395 0.204351 0.670284 0.240130
H95   H     H_    0.529024 0.302782 0.648264 0.247103
H96   H     H_    0.522246 0.240026 0.748128 0.258371
N35   N     N_2   0.060647 0.142484 0.711931 -0.089823
H97   H     H_    0.011752 0.182536 0.746576 0.172875
C95   C     C_3   0.049720 0.085652 0.789512 -0.946443
H98   H     H_    0.989926 0.052870 0.824731 0.256484
H99   H     H_    0.046195 0.115978 0.856330 0.233983
H100  H     H_    0.102852 0.042957 0.750067 0.251319
N36   N     N_2   0.119162 0.711117 0.584612 -0.099038
H101  H     H_    0.129282 0.686827 0.516067 0.176631
C96   C     C_3   0.035206 0.741215 0.666752 -0.898364
H102  H     H_    0.987528 0.704007 0.669762 0.240063
H103  H     H_    0.028968 0.802490 0.648104 0.247127
H104  H     H_    0.022163 0.739609 0.747878 0.258458
N37   N     N_2   0.586270 0.839188 0.518666 -0.107965
H105  H     H_    0.525353 0.842278 0.541458 0.159389
C97   C     C_3   0.644973 0.890460 0.428627 -0.985678
H106  H     H_    0.624861 0.952446 0.453265 0.242641
H107  H     H_    0.644343 0.877191 0.358113 0.249795
H108  H     H_    0.710179 0.884334 0.403601 0.260175
N38   N     N_2   0.841612 0.066818 0.467142 -0.091735
H109  H     H_    0.823305 0.046664 0.541623 0.178515
C98   C     C_3   0.862210 0.002429 0.392941 -0.966019
H110  H     H_    0.903967 0.959897 0.394878 0.256972
H111  H     H_    0.895971 0.023895 0.308378 0.258772
H112  H     H_    0.803664 0.971718 0.417243 0.238531
N39   N     N_2   0.086364 0.339265 0.518576 -0.107985
H113  H     H_    0.025472 0.342380 0.541285 0.159370
C99   C     C_3   0.145129 0.390541 0.428580 -0.985588
H114  H     H_    0.125029 0.452529 0.453231 0.242633
H115  H     H_    0.144556 0.377314 0.358013 0.249762
H116  H     H_    0.210309 0.384386 0.403636 0.260193
N40   N     N_2   0.341838 0.566937 0.467106 -0.091704
H117  H     H_    0.323568 0.546809 0.541582 0.178510
C100  C     C_3   0.362565 0.502522 0.392890 -0.965804
H118  H     H_    0.404677 0.460253 0.394498 0.257026
H119  H     H_    0.395992 0.524011 0.308392 0.258676
H120  H     H_    0.304104 0.471509 0.417434 0.238483

loop_
_geom_bond_atom_site_label_1
_geom_bond_atom_site_label_2
_ccdc_geom_bond_type
C61   C70   A    
N4    N11   A    
C49   H25   S    
C54   C60   D    
C49   N37   S    
C2    C70   A    
C22   H6    S    
C20   C92   S    
C48   C76   A    
C39   C51   S    
N36   H101  S    
N18   Ni2   S    
C46   C74   A    
C99   H116  S    
N17   Ni1   S    
C25   C43   S    
C6    C9    A    
N16   Ni8   S    
C44   H16   S    
C93   H92   S    
C3    N3    A    
N21   N26   A    
C29   C49   S    
C89   H77   S    
C58   H46   S    
C92   H88   S    
C66   N14   A    
C27   H11   S    
N33   H89   S    
C65   N13   A    
C27   C35   S    
C82   N22   A    
N24   N27   A    
C88   H68   S    
C45   C73   A    
C27   H31   S    
C38   C42   S    
C94   H96   S    
N1    Ni1   S    
C32   H24   S    
C24   H8    S    
C98   H110  S    
C81   H61   S    
C58   C71   S    
C89   H79   S    
C7    H71   S    
C67   N15   A    
C85   N25   A    
C62   N10   A    
C13   C81   A    
C16   C84   A    
C90   H82   S    
C65   H53   S    
N8    Ni3   S    
C3    H3    S    
N39   H113  S    
C64   C71   A    
C28   C42   S    
C2    H2    S    
C32   C52   S    
C15   C88   A    
C48   N8    A    
C47   H35   S    
C26   C34   S    
C21   N35   S    
C20   C24   S    
C23   H7    S    
N20   Ni4   S    
C13   C86   A    
C16   C87   A    
C24   C38   S    
C95   H98   S    
N13   Ni7   S    
N22   Ni1   S    
C88   N28   A    
C9    C55   S    
N27   Ni6   S    
N28   Ni6   S    
N21   Ni2   S    
N32   Ni8   S    
C24   N34   S    
C10   C56   S    
C100  H118  S    
C2    N2    A    
C5    N29   A    
C13   C37   S    
C11   C53   S    
C28   H12   S    
C91   H84   S    
C51   N39   S    
N23   Ni4   S    
C67   H55   S    
N37   H105  S    
C30   H18   S    
C37   C41   S    
C47   N7    A    
C95   H99   S    
C83   N23   A    
C11   C79   A    
C17   C33   S    
C42   H14   S    
C81   N21   A    
C56   C58   D    
C6    H70   S    
C6    N30   A    
C90   H80   S    
C83   H63   S    
C52   H28   S    
C10   C78   A    
C7    C12   A    
C54   H42   S    
C35   C76   S    
C86   N26   A    
C8    C11   A    
N6    N13   A    
C26   C44   S    
C41   H37   S    
N40   H117  S    
C18   C90   S    
C61   N9    A    
C30   H22   S    
C93   H90   S    
N38   H109  S    
C28   H32   S    
N35   H97   S    
C43   H39   S    
C98   H111  S    
C78   H58   S    
C19   C23   S    
N9    Ni5   S    
C19   H75   S    
N31   Ni8   S    
C34   C73   S    
N24   Ni3   S    
C45   H33   S    
N1    N10   A    
C40   C52   S    
C66   C73   A    
C68   N16   A    
N10   Ni5   S    
C51   H27   S    
C65   C74   A    
C4    N4    A    
C62   C69   A    
C25   H29   S    
C68   C75   A    
C32   C34   S    
C80   H60   S    
C3    C71   A    
C17   C21   S    
N2    Ni2   S    
C94   H94   S    
C36   C75   S    
N12   Ni6   S    
C14   C38   S    
C37   C49   S    
C27   C41   S    
C8    N32   A    
C77   N17   A    
N34   H93   S    
C21   C39   S    
C1    N1    A    
C23   N33   S    
C22   C40   S    
C31   C33   S    
N19   N32   A    
C97   H107  S    
C14   C85   A    
N36   C96   S    
N18   N29   A    
C85   H65   S    
C62   H50   S    
N39   C99   S    
N17   N30   A    
C100  H119  S    
C15   C39   S    
N23   N28   A    
C56   H44   S    
C17   H73   S    
C16   C40   S    
C66   H54   S    
C84   H64   S    
N8    N15   A    
C25   H9    S    
C15   C83   A    
N34   C94   S    
C26   H10   S    
C19   C91   S    
C55   C57   D    
C95   H100  S    
C87   H67   S    
N7    N16   A    
C84   N24   A    
C96   H103  S    
C53   H41   S    
C14   C82   A    
C7    N31   A    
C99   H114  S    
C8    H72   S    
C77   H57   S    
N5    N14   A    
C4    C72   A    
C1    C69   A    
C17   C89   S    
C87   N27   A    
C22   N36   S    
C64   H52   S    
C97   H108  S    
C29   H21   S    
C41   H13   S    
N40   C100  S    
C52   N40   S    
C91   H85   S    
C55   H43   S    
C44   H40   S    
N2    N9    A    
C1    H1    S    
N4    Ni4   S    
C53   C59   D    
C18   C22   S    
C57   H45   S    
C31   H19   S    
N3    Ni3   S    
N7    Ni4   S    
N11   Ni6   S    
C31   C51   S    
C82   H62   S    
C43   H15   S    
C45   N5    A    
C48   H36   S    
C98   H112  S    
C79   H59   S    
C97   H106  S    
C93   H91   S    
N26   Ni5   S    
C63   N11   A    
C9    C77   A    
C38   C50   S    
C63   H51   S    
C92   H87   S    
N20   N31   A    
C26   H30   S    
C29   C35   S    
C5    H69   S    
N29   Ni7   S    
C30   C36   S    
C60   H48   S    
C96   H104  S    
N25   Ni5   S    
N22   N25   A    
N37   C97   S    
C64   N12   A    
C92   H86   S    
C47   C75   A    
C5    C10   A    
N33   C93   S    
C99   H115  S    
C23   C37   S    
C18   H74   S    
C61   H49   S    
C86   H66   S    
C21   H5    S    
C60   C69   S    
C18   C34   S    
C96   H102  S    
C91   H83   S    
N30   Ni7   S    
C12   C80   A    
C59   H47   S    
C90   H81   S    
C79   N19   A    
C68   H56   S    
C80   N20   A    
C57   C72   S    
C30   C50   S    
C100  H120  S    
N19   Ni3   S    
N15   Ni8   S    
C46   H34   S    
N38   C98   S    
C42   H38   S    
C59   C70   S    
C29   H17   S    
C20   C36   S    
C46   N6    A    
C33   C74   S    
C40   C44   S    
C63   C72   A    
C28   C36   S    
C94   H95   S    
C32   H20   S    
C39   C43   S    
N35   C95   S    
C31   H23   S    
N5    Ni2   S    
C19   C35   S    
C67   C76   A    
C50   H26   S    
N14   Ni7   S    
C89   H78   S    
N6    Ni1   S    
C12   C54   S    
C50   N38   S    
C78   N18   A    
C25   C33   S    
N3    N12   A    
C4    H4    S    
C20   H76   S    
