data_str_m3_o13_o15_f0_pcu.sym.167
_audit_creation_date              2012-12-10T17:28:33-0500
_audit_creation_method            fapswitch 2.2
_symmetry_space_group_name_H-M    P1
_symmetry_Int_Tables_number       1
_space_group_crystal_system       triclinic
_cell_length_a                    10.739376
_cell_length_b                    12.118986
_cell_length_c                    12.790151
_cell_angle_alpha                 89.988802
_cell_angle_beta                  92.817152
_cell_angle_gamma                 83.993269
_cell_volume                      1653.47844787

loop_
_atom_site_label
_atom_site_type_symbol
_atom_type_description
_atom_site_fract_x
_atom_site_fract_y
_atom_site_fract_z
_atom_type_partial_charge
C1    C     C_R   0.500817 0.519276 0.699725 0.875944
C2    C     C_R   0.499182 0.480724 0.300275 0.875930
C3    C     C_R   0.487472 0.471887 0.190168 -0.010127
C4    C     C_R   0.512529 0.528112 0.809833 -0.010127
C5    C     C_R   0.630797 0.579298 0.962949 -0.248224
C6    C     C_R   0.369209 0.420694 0.037052 -0.248218
C7    C     C_R   0.610879 0.581311 0.855369 -0.194273
C8    C     C_R   0.389125 0.418685 0.144632 -0.194283
C9    C     C_R   0.430266 0.477125 0.869038 -0.293653
C10   C     C_R   0.569738 0.522870 0.130962 -0.293636
C11   C     C_R   0.448985 0.474764 0.976379 0.188903
C12   C     C_R   0.551021 0.525229 0.023621 0.188918
C13   C     C_R   0.453990 0.958758 0.368455 0.520975
C14   C     C_R   0.546003 0.041244 0.631548 0.520992
C15   C     C_R   0.449947 0.843212 0.382898 -0.031752
C16   C     C_R   0.550055 0.156790 0.617102 -0.031746
C17   C     C_R   0.508693 0.857912 0.562572 -0.068224
C18   C     C_R   0.491296 0.142090 0.437430 -0.068213
C19   C     C_R   0.513147 0.974633 0.549061 -0.135922
C20   C     C_R   0.486839 0.025370 0.450943 -0.135952
C21   C     C_R   0.740025 0.496283 0.489534 0.881428
C22   C     C_R   0.259973 0.503717 0.510459 0.881421
C23   C     C_R   0.919753 0.287933 0.524836 -0.223068
C24   C     C_R   0.080245 0.712060 0.475105 -0.223079
C25   C     C_R   0.986536 0.207719 0.591624 0.067367
C26   C     C_R   0.013461 0.792261 0.408305 0.067384
C27   C     C_R   0.097457 0.234536 0.643178 -0.224936
C28   C     C_R   0.902536 0.765440 0.356762 -0.224927
C29   C     C_R   0.142543 0.335743 0.624052 -0.161758
C30   C     C_R   0.857445 0.664241 0.375912 -0.161769
C31   C     C_R   0.074841 0.415219 0.556363 0.085864
C32   C     C_R   0.925151 0.584774 0.443606 0.085877
C33   C     C_R   0.954840 0.396860 0.518100 0.068857
C34   C     C_R   0.045155 0.603135 0.481862 0.068854
C35   C     C_R   0.125041 0.512053 0.525509 -0.240538
C36   C     C_R   0.874953 0.487944 0.474467 -0.240547
H1    H     H_    0.847043 0.824338 0.305254 0.129540
H2    H     H_    0.152950 0.175630 0.694679 0.129547
H3    H     H_    0.839151 0.265185 0.479791 0.164096
H4    H     H_    0.160846 0.734819 0.520143 0.164107
H5    H     H_    0.229844 0.352314 0.664032 0.145065
H6    H     H_    0.770139 0.647667 0.335942 0.145059
H7    H     H_    0.645506 0.563152 0.168801 0.122501
H8    H     H_    0.354498 0.436843 0.831199 0.122505
H9    H     H_    0.325798 0.379278 0.192547 0.144932
H10   H     H_    0.674205 0.620719 0.807454 0.144934
H11   H     H_    0.708168 0.618987 0.998471 0.140719
H12   H     H_    0.291840 0.381004 0.001529 0.140723
H13   H     H_    0.466662 0.180542 0.361875 0.202961
H14   H     H_    0.533324 0.819461 0.638129 0.202961
N1    N     N_R   0.523130 0.207800 0.519340 -0.155469
N2    N     N_R   0.476870 0.792200 0.480660 -0.155469
O1    O     O_R   0.506170 0.421700 0.658830 -0.626531
O2    O     O_R   0.493830 0.578300 0.341170 -0.626541
O3    O     O_R   0.491330 0.609310 0.646410 -0.628921
O4    O     O_R   0.508670 0.390690 0.353590 -0.628923
O5    O     O_R   0.690650 0.406190 0.506220 -0.637945
O6    O     O_R   0.309350 0.593810 0.493780 -0.637943
O7    O     O_R   0.675800 0.593810 0.493800 -0.610713
O8    O     O_R   0.324200 0.406190 0.506200 -0.610710
Zn1   Zn    Zn3+2 0.509910 0.374730 0.508290 0.924524
Zn2   Zn    Zn3+2 0.490090 0.625270 0.491710 0.924520
F1    F     F_    0.421977 0.006894 0.273345 -0.696210
F2    F     F_    0.578018 0.993108 0.726657 -0.696218
C37   C     C_R   0.937083 0.099135 0.611534 0.097843
C38   C     C_R   0.865719 0.048084 0.533529 -0.167108
C39   C     C_R   0.820690 0.946362 0.552828 -0.118194
C40   C     C_R   0.844939 0.894203 0.649927 -0.032002
C41   C     C_R   0.913009 0.944570 0.728748 -0.101117
C42   C     C_R   0.958365 0.046415 0.710131 -0.166857
H15   H     H_    0.848147 0.084011 0.456156 0.132681
H16   H     H_    0.766950 0.907756 0.492041 0.142634
H17   H     H_    0.809862 0.815322 0.664330 0.130515
H18   H     H_    0.930211 0.904927 0.804664 0.126862
H19   H     H_    0.008217 0.084409 0.773765 0.124408
C43   C     C_R   0.062913 0.900840 0.388372 0.097850
C44   C     C_R   0.041641 0.953530 0.289761 -0.166858
C45   C     C_R   0.086988 0.055374 0.271123 -0.101114
C46   C     C_R   0.155036 0.105771 0.349938 -0.031960
C47   C     C_R   0.179276 0.053641 0.447051 -0.118178
C48   C     C_R   0.134260 0.951918 0.466369 -0.167117
H20   H     H_    0.991804 0.915513 0.226133 0.124404
H21   H     H_    0.069795 0.094994 0.195196 0.126858
H22   H     H_    0.190104 0.184653 0.335520 0.130497
H23   H     H_    0.232999 0.092270 0.507833 0.142645
H24   H     H_    0.151825 0.916010 0.543751 0.132686
C49   C     C_R   0.588554 0.215426 0.713105 0.212462
C50   C     C_R   0.524235 0.205463 0.805535 -0.087935
C51   C     C_R   0.576893 0.236049 0.902000 -0.113810
C52   C     C_R   0.691149 0.281741 0.906817 -0.098263
C53   C     C_R   0.753248 0.295873 0.815203 -0.177586
C54   C     C_R   0.702647 0.261436 0.719438 -0.075328
H25   H     H_    0.436405 0.168754 0.803433 0.126422
H26   H     H_    0.528927 0.224531 0.973009 0.150102
H27   H     H_    0.731108 0.306623 0.981371 0.133100
H28   H     H_    0.841745 0.331353 0.818524 0.135802
H29   H     H_    0.752329 0.268920 0.650322 0.149927
C55   C     C_R   0.411481 0.784575 0.286886 0.212491
C56   C     C_R   0.475828 0.794549 0.194473 -0.087965
C57   C     C_R   0.423196 0.763982 0.097993 -0.113800
C58   C     C_R   0.308939 0.718293 0.093144 -0.098235
C59   C     C_R   0.246814 0.704141 0.184741 -0.177577
C60   C     C_R   0.297389 0.738561 0.280521 -0.075337
H30   H     H_    0.563658 0.831262 0.196599 0.126403
H31   H     H_    0.471183 0.775514 0.026998 0.150101
H32   H     H_    0.268998 0.693427 0.018578 0.133101
H33   H     H_    0.158317 0.668659 0.181395 0.135793
H34   H     H_    0.247690 0.731057 0.349625 0.149911

loop_
_geom_bond_atom_site_label_1
_geom_bond_atom_site_label_2
_ccdc_geom_bond_type
O6    Zn2   S    
C49   C50   A    
C58   C59   A    
C27   C29   A    
C19   C20   A    
N1    Zn1   S    
C16   N1    A    
C52   H27   S    
C21   C36   S    
C44   C45   A    
C22   C35   S    
C5    H11   S    
C57   H31   S    
C6    H12   S    
C32   C36   A    
C24   C26   A    
C21   O7    A    
C22   O8    A    
C46   H22   S    
C34   C35   A    
C27   H2    S    
C37   C42   A    
O3    Zn2   S    
C33   C36   A    
C39   H16   S    
C51   H26   S    
C1    O1    A    
C8    H9    S    
C44   H20   S    
C17   C19   A    
C53   H28   S    
O1    Zn1   S    
C45   H21   S    
C56   C57   A    
C40   C41   A    
O7    Zn2   S    
C54   H29   S    
C16   C49   S    
C26   C43   S    
C31   C33   A    
C60   H34   S    
C18   C20   A    
C48   H24   S    
C38   C39   A    
C49   C54   A    
C41   C42   A    
C4    C7    A    
C17   N2    A    
C18   N1    A    
C39   C40   A    
C7    H10   S    
C41   H18   S    
C25   C37   S    
C43   C44   A    
C5    C12   A    
C3    C8    A    
C2    O2    A    
C6    C11   A    
C5    C7    A    
C45   C46   A    
C6    C8    A    
O2    Zn2   S    
C23   C33   A    
C40   H17   S    
C24   C34   A    
O8    Zn1   S    
C32   C34   A    
C43   C48   A    
C21   O5    A    
C47   H23   S    
C38   H15   S    
C13   F1    S    
C14   F2    S    
C59   H33   S    
C15   N2    A    
C9    C11   A    
C10   C12   A    
C55   C56   A    
C13   C15   A    
C14   C16   A    
C15   C55   S    
C51   C52   A    
C53   C54   A    
C58   H32   S    
C50   H25   S    
C9    H8    S    
C13   C20   A    
C29   H5    S    
C10   H7    S    
C14   C19   A    
C47   C48   A    
C17   H14   S    
C22   O6    A    
C11   C12   A    
O5    Zn1   S    
C25   C27   A    
C26   C28   A    
C1    C4    S    
C28   C30   A    
C2    C3    S    
C1    O3    A    
C29   C31   A    
C3    C10   A    
N2    Zn2   S    
C30   C32   A    
C52   C53   A    
C28   H1    S    
C23   H3    S    
C57   C58   A    
C24   H4    S    
C56   H30   S    
C31   C35   A    
C23   C25   A    
C59   C60   A    
C46   C47   A    
C50   C51   A    
C37   C38   A    
C42   H19   S    
O4    Zn1   S    
C30   H6    S    
C2    O4    A    
C4    C9    A    
C55   C60   A    
C18   H13   S    
