data_str_m9_o4_o16_f0_sra.sym.82
_audit_creation_date              2012-12-11T17:00:24-0500
_audit_creation_method            fapswitch 2.2
_symmetry_space_group_name_H-M    P1
_symmetry_Int_Tables_number       1
_space_group_crystal_system       triclinic
_cell_length_a                    6.961653
_cell_length_b                    13.584513
_cell_length_c                    20.278738
_cell_angle_alpha                 103.381979
_cell_angle_beta                  90.18216
_cell_angle_gamma                 90.488772
_cell_volume                      1865.60967588

loop_
_atom_site_label
_atom_site_type_symbol
_atom_type_description
_atom_site_fract_x
_atom_site_fract_y
_atom_site_fract_z
_atom_type_partial_charge
O1    O     O_R   0.506770 0.599700 0.449550 -0.539810
O2    O     O_R   0.179980 0.595740 0.587960 -0.546886
O3    O     O_R   0.004580 0.400300 0.550450 -0.536207
C1    C     C_R   0.348403 0.617524 0.615108 0.696831
O4    O     O_R   0.177380 0.611700 0.452380 -0.542349
O5    O     O_R   0.001970 0.416370 0.413900 -0.537745
C2    C     C_R   0.346778 0.638525 0.436265 0.696735
O6    O     O_R   0.509390 0.583630 0.586100 -0.538216
O7    O     O_3   0.337530 0.435890 0.487530 -0.369615
V1    V     V_3+5 0.064660 0.511890 0.502310 1.423299
O8    O     O_R   0.671950 0.404260 0.412040 -0.540730
C3    C     C_R   0.839946 0.383259 0.384664 0.694507
O9    O     O_R   0.674540 0.388300 0.547620 -0.543239
C4    C     C_R   0.843498 0.362337 0.564852 0.700974
V2    V     V_3+5 0.564030 0.488110 0.497690 1.424663
O10   O     O_3   0.841030 0.564110 0.512470 -0.373079
C5    C     C_R   0.969877 0.121335 0.613729 -0.162600
H1    H     H_    0.966477 0.171092 0.520851 0.104192
H2    H     H_    0.020844 0.000004 0.696882 0.122223
H3    H     H_    0.023590 0.047307 0.589145 0.112493
C6    C     C_R   0.857692 0.285040 0.604372 -0.042710
C7    C     C_R   0.811097 0.313653 0.931978 -0.142628
C8    C     C_R   0.803996 0.391922 0.898830 -0.132307
C9    C     C_R   0.835642 0.374343 0.829016 -0.027581
C10   C     C_R   0.863774 0.273423 0.789499 0.023331
C11   C     C_R   0.888006 0.195423 0.825699 0.062554
C12   C     C_R   0.875839 0.246058 0.716600 0.070151
C13   C     C_R   0.940461 0.147618 0.684061 0.149332
C14   C     C_R   0.973999 0.075439 0.721541 -0.205582
C15   C     C_R   0.943106 0.097934 0.790774 -0.191195
C16   C     C_R   0.820855 0.310640 0.674130 -0.211228
C17   C     C_R   0.934731 0.190875 0.574566 -0.170736
C18   C     C_R   0.858802 0.216458 0.896695 -0.076951
H4    H     H_    0.747254 0.380632 0.693176 0.126232
H5    H     H_    0.786599 0.329827 0.986176 0.121725
H6    H     H_    0.779359 0.467989 0.928610 0.128217
H7    H     H_    0.967336 0.038309 0.817069 0.113561
C19   C     C_R   0.968464 0.165438 0.237968 0.138720
C20   C     C_R   0.864797 0.186093 0.183493 -0.092835
C21   C     C_R   0.755715 0.275394 0.195500 -0.146629
H8    H     H_    0.675387 0.294566 0.154467 0.130381
C22   C     C_R   0.747266 0.339987 0.260945 -0.175018
H9    H     H_    0.660453 0.407459 0.268911 0.119984
C23   C     C_R   0.848584 0.316925 0.315690 -0.103952
C24   C     C_R   0.962815 0.230340 0.302578 0.118475
C25   C     C_3   0.949501 0.144353 0.336716 -0.445550
C26   C     C_3   0.948900 0.074102 0.266929 -0.420235
H10   H     H_    0.812159 0.142863 0.364385 0.167525
H11   H     H_    0.081077 0.138028 0.366610 0.172944
H12   H     H_    0.809632 0.033663 0.253431 0.179507
H13   H     H_    0.075641 0.024625 0.257891 0.186373
C27   C     C_R   0.502771 0.756884 0.703836 0.089028
C28   C     C_R   0.351475 0.688622 0.682496 -0.118355
C29   C     C_R   0.192841 0.693886 0.726167 -0.149029
H14   H     H_    0.071475 0.643828 0.711012 0.163011
C30   C     C_R   0.194950 0.758410 0.791408 -0.170213
H15   H     H_    0.076104 0.755852 0.825096 0.145314
C31   C     C_R   0.355982 0.819701 0.814742 -0.115238
C32   C     C_R   0.505558 0.820298 0.768610 0.112999
C33   C     C_3   0.715234 0.805072 0.776572 -0.396837
C34   C     C_3   0.712013 0.736880 0.705715 -0.399290
H16   H     H_    0.745189 0.763898 0.816829 0.187928
H17   H     H_    0.799634 0.875821 0.780089 0.162784
H18   H     H_    0.740727 0.656201 0.704442 0.197491
H19   H     H_    0.793114 0.768737 0.668199 0.166894
C35   C     C_R   0.424653 0.889385 0.394093 -0.152489
H20   H     H_    0.416079 0.837134 0.486013 0.102203
H21   H     H_    0.453229 0.016206 0.315490 0.127814
H22   H     H_    0.454632 0.966777 0.420876 0.111608
C36   C     C_R   0.359948 0.716595 0.398023 -0.031300
C37   C     C_R   0.329058 0.688752 0.072770 -0.208252
C38   C     C_R   0.320471 0.612350 0.107675 0.022395
C39   C     C_R   0.336964 0.635749 0.178038 -0.195818
C40   C     C_R   0.361117 0.737061 0.215652 0.064949
C41   C     C_R   0.375214 0.816076 0.179632 0.027344
C42   C     C_R   0.371783 0.761724 0.288069 0.081102
C43   C     C_R   0.409384 0.863136 0.323097 0.137914
C44   C     C_R   0.428183 0.938590 0.287663 -0.256585
C45   C     C_R   0.406296 0.917661 0.217602 -0.101875
C46   C     C_R   0.344450 0.689319 0.327438 -0.216386
C47   C     C_R   0.401536 0.816211 0.431314 -0.177035
C48   C     C_R   0.357064 0.789411 0.107368 -0.098050
H23   H     H_    0.310619 0.611085 0.305386 0.095971
H24   H     H_    0.315669 0.669686 0.017918 0.108089
H25   H     H_    0.332908 0.572471 0.201649 0.109388
O11   O     O_R   0.203450 0.916320 0.913910 -0.548369
O12   O     O_R   0.535520 0.888300 0.047620 -0.541714
O13   O     O_R   0.710860 0.083650 0.086100 -0.524782
C49   C     C_R   0.366772 0.863436 0.065467 0.715846
O14   O     O_R   0.532860 0.904250 0.912040 -0.545088
O15   O     O_R   0.708190 0.099710 0.949550 -0.540182
C50   C     C_R   0.364288 0.883536 0.884542 0.685861
O16   O     O_R   0.206120 0.900260 0.050460 -0.539836
O17   O     O_3   0.375280 0.064080 0.012470 -0.353147
V3    V     V_3+5 0.648180 0.988110 0.997690 1.452955
O18   O     O_R   0.038220 0.111740 0.952370 -0.538377
C51   C     C_R   0.869439 0.137520 0.935155 0.686410
O19   O     O_R   0.040880 0.095790 0.087940 -0.527124
C52   C     C_R   0.872580 0.116724 0.115417 0.706914
V4    V     V_3+5 0.148800 0.011950 0.002300 1.476418
O20   O     O_3   0.871820 0.935920 0.987530 -0.381666
C53   C     C_1   0.294935 0.508729 0.070884 0.278168
N1    N     N_1   0.274426 0.425560 0.041335 -0.360761
C54   C     C_1   0.404485 0.005964 0.189388 0.255313
N2    N     N_1   0.399952 0.078308 0.168580 -0.312912
C55   C     C_1   0.863337 0.464315 0.803853 0.277184
N3    N     N_1   0.885721 0.537351 0.784638 -0.417900

loop_
_geom_bond_atom_site_label_1
_geom_bond_atom_site_label_2
_ccdc_geom_bond_type
C1    C28   S    
C39   C40   A    
C1    O6    A    
C2    C36   S    
C31   C50   S    
O14   V3    S    
C28   C29   A    
C23   C24   A    
C7    H5    S    
C6    C16   A    
C25   H11   S    
C48   C49   S    
C40   C42   A    
C33   H17   S    
C4    C6    S    
C13   C14   A    
C27   C34   S    
O5    C3    A    
C19   C20   A    
C35   H22   S    
C55   N3    T    
V2    O10   S    
O19   C52   A    
C5    H3    S    
C30   H15   S    
C33   H16   S    
C7    C18   A    
C36   C47   A    
C19   C24   A    
C29   H14   S    
O14   C50   A    
O12   V3    S    
C8    C9    A    
O1    V2    S    
O11   V4    S    
O7    V1    S    
C37   C48   A    
O8    V2    S    
C21   C22   A    
O13   V3    S    
C32   C33   S    
O9    C4    A    
C49   O16   A    
O17   V3    S    
C22   C23   A    
C46   H23   S    
C54   N2    T    
C26   H12   S    
C25   H10   S    
C42   C43   A    
H21   C44   S    
C6    C17   A    
C29   C30   A    
C40   C41   A    
C12   C16   A    
C9    C10   A    
C20   C21   A    
O4    C2    A    
C44   C45   A    
C26   H13   S    
C31   C32   A    
C43   C44   A    
C36   C46   A    
C15   H7    S    
C33   C34   S    
C34   H18   S    
O2    C1    A    
C14   C15   A    
C27   C32   A    
C34   H19   S    
C11   C18   A    
C20   C52   S    
O17   V4    S    
O18   C51   A    
C16   H4    S    
O15   C51   A    
O16   V4    S    
C39   H25   S    
C19   C26   S    
O3    C4    A    
C21   H8    S    
C11   C15   A    
O6    V2    S    
O19   V4    S    
O12   C49   A    
C45   C54   S    
H1    C17   S    
C22   H9    S    
O2    V1    S    
C27   C28   A    
C37   H24   S    
C35   C43   A    
C25   C26   S    
O1    C2    A    
C5    C13   A    
C42   C46   A    
C38   C39   A    
O5    V1    S    
O8    C3    A    
C41   C48   A    
H20   C47   S    
C10   C12   A    
O9    V2    S    
C10   C11   A    
O4    V1    S    
C3    C23   S    
O3    V1    S    
O11   C50   A    
C35   C47   A    
C38   C53   S    
O18   V4    S    
V4    O20   S    
C30   C31   A    
C18   C51   S    
O7    V2    S    
C53   N1    T    
O13   C52   A    
O15   V3    S    
C24   C25   S    
C37   C38   A    
C9    C55   S    
C8    H6    S    
C12   C13   A    
C5    C17   A    
C7    C8    A    
V1    O10   S    
C41   C45   A    
V3    O20   S    
H2    C14   S    
