data_str_m9_o13_o17_f0_sra.sym.14
_audit_creation_date              2012-12-11T14:44:27-0500
_audit_creation_method            fapswitch 2.2
_symmetry_space_group_name_H-M    P1
_symmetry_Int_Tables_number       1
_space_group_crystal_system       triclinic
_cell_length_a                    19.777834
_cell_length_b                    7.24136
_cell_length_c                    19.841702
_cell_angle_alpha                 89.712208
_cell_angle_beta                  98.589697
_cell_angle_gamma                 89.569589
_cell_volume                      2809.68899651

loop_
_atom_site_label
_atom_site_type_symbol
_atom_type_description
_atom_site_fract_x
_atom_site_fract_y
_atom_site_fract_z
_atom_type_partial_charge
O1    O     O_R   0.673210 0.377390 0.686390 -0.532522
O2    O     O_R   0.326790 0.622610 0.313610 -0.532521
O3    O     O_R   0.826790 0.877390 0.813610 -0.526510
O4    O     O_R   0.173210 0.122610 0.186390 -0.526509
O5    O     O_R   0.810750 0.706450 0.681250 -0.534198
O6    O     O_R   0.189250 0.293550 0.318750 -0.534198
O7    O     O_R   0.689250 0.206450 0.818750 -0.529791
O8    O     O_R   0.310750 0.793550 0.181250 -0.529790
C1    C     C_R   0.831653 0.538636 0.666343 0.742780
C2    C     C_R   0.168347 0.461363 0.333657 0.742780
C3    C     C_R   0.667989 0.039147 0.833452 0.706555
C4    C     C_R   0.332011 0.960853 0.166548 0.706564
O9    O     O_R   0.672750 0.707060 0.678240 -0.536014
O10   O     O_R   0.327250 0.292940 0.321760 -0.536014
O11   O     O_R   0.827250 0.207060 0.821760 -0.528882
O12   O     O_R   0.172750 0.792940 0.178240 -0.528883
O13   O     O_R   0.687800 0.877990 0.810580 -0.525537
O14   O     O_R   0.312200 0.122010 0.189420 -0.525538
O15   O     O_R   0.812200 0.377990 0.689420 -0.524174
O16   O     O_R   0.187800 0.622010 0.310580 -0.524174
C5    C     C_R   0.647355 0.540594 0.662223 0.719216
C6    C     C_R   0.352645 0.459406 0.337778 0.719215
C7    C     C_R   0.852196 0.038493 0.838045 0.745824
C8    C     C_R   0.147804 0.961507 0.161955 0.745823
O17   O     O_3   0.755100 0.544060 0.793420 -0.369666
O18   O     O_3   0.244900 0.455940 0.206580 -0.369668
O19   O     O_3   0.744900 0.044060 0.706580 -0.378510
O20   O     O_3   0.255100 0.955940 0.293420 -0.378509
V1    V     V_3+5 0.749050 0.818670 0.741950 1.556256
V2    V     V_3+5 0.250950 0.181330 0.258050 1.556255
V3    V     V_3+5 0.750950 0.318670 0.758050 1.566468
V4    V     V_3+5 0.249050 0.681330 0.241950 1.566468
C9    C     C_R   0.084252 0.967060 0.110853 -0.105320
C10   C     C_R   0.915748 0.032940 0.889147 -0.105320
C11   C     C_R   0.415596 0.458056 0.390123 -0.139339
C12   C     C_R   0.584404 0.541944 0.609877 -0.139337
C13   C     C_R   0.031870 0.135562 0.932242 -0.191870
C14   C     C_R   0.968129 0.864438 0.067758 -0.191870
C15   C     C_R   0.479505 0.694096 0.553645 -0.187562
C16   C     C_R   0.520495 0.305904 0.446355 -0.187562
C17   C     C_R   0.976131 0.128441 0.878664 -0.054269
C18   C     C_R   0.023869 0.871559 0.121336 -0.054269
C19   C     C_R   0.532671 0.680473 0.609277 -0.047285
C20   C     C_R   0.467328 0.319527 0.390723 -0.047285
C21   C     C_R   0.914330 0.942986 0.952002 -0.213558
C22   C     C_R   0.085670 0.057014 0.047998 -0.213558
C23   C     C_R   0.578808 0.415532 0.555741 -0.183175
C24   C     C_R   0.421191 0.584467 0.444259 -0.183175
C25   C     C_R   0.970534 0.950974 0.004863 0.137617
C26   C     C_R   0.029466 0.049025 0.995137 0.137617
C27   C     C_R   0.524785 0.429356 0.500726 0.137938
C28   C     C_R   0.475214 0.570644 0.499275 0.137938
H1    H     H_    0.131564 0.129229 0.039622 0.115864
H2    H     H_    0.868435 0.870771 0.960378 0.115865
H3    H     H_    0.382089 0.690056 0.444699 0.133619
H4    H     H_    0.617911 0.309943 0.555301 0.133618
H5    H     H_    0.078054 0.207668 0.924809 0.163157
H6    H     H_    0.921946 0.792332 0.075191 0.163157
H7    H     H_    0.440293 0.799758 0.553378 0.157194
H8    H     H_    0.559707 0.200242 0.446622 0.157194
C29   C     C_R   0.563657 0.163516 0.879678 -0.023568
C30   C     C_R   0.436344 0.836486 0.120323 -0.023572
C31   C     C_R   0.950341 0.597710 0.637024 -0.070291
C32   C     C_R   0.049659 0.402290 0.362976 -0.070291
C33   C     C_R   0.616962 0.031229 0.881424 -0.160787
C34   C     C_R   0.383039 0.968771 0.118577 -0.160788
C35   C     C_R   0.883116 0.529398 0.619110 -0.148614
C36   C     C_R   0.116884 0.470602 0.380890 -0.148614
C37   C     C_R   0.622335 0.887954 0.929538 -0.141889
C38   C     C_R   0.377666 0.112047 0.070463 -0.141892
C39   C     C_R   0.863392 0.452623 0.554829 -0.179129
C40   C     C_R   0.136608 0.547377 0.445171 -0.179129
C41   C     C_R   0.575430 0.869709 0.975962 0.044086
C42   C     C_R   0.424572 0.130293 0.024039 0.044088
C43   C     C_R   0.908812 0.440219 0.506587 0.048144
C44   C     C_R   0.091188 0.559781 0.493413 0.048144
C45   C     C_R   0.523278 0.005597 0.976002 0.047343
C46   C     C_R   0.476724 0.994406 0.024000 0.047343
C47   C     C_R   0.976618 0.505301 0.524076 0.049580
C48   C     C_R   0.023381 0.494699 0.475924 0.049580
C49   C     C_R   0.517337 0.152292 0.927831 0.029268
C50   C     C_R   0.482665 0.847711 0.072171 0.029268
C51   C     C_R   0.997927 0.579850 0.589819 0.030549
C52   C     C_R   0.002073 0.420150 0.410181 0.030549
C53   C     C_R   0.580542 0.722434 0.023921 -0.025159
C54   C     C_R   0.419461 0.277571 0.976082 -0.025157
C55   C     C_R   0.887526 0.370184 0.440335 -0.029219
C56   C     C_R   0.112474 0.629816 0.559665 -0.029219
C57   C     C_R   0.535412 0.716309 0.071774 -0.195175
C58   C     C_R   0.464591 0.283697 0.928229 -0.195174
C59   C     C_R   0.933170 0.368449 0.392844 -0.169362
C60   C     C_R   0.066830 0.631550 0.607156 -0.169362
H9    H     H_    0.665140 0.793766 0.931183 0.164438
H10   H     H_    0.334860 0.206234 0.068817 0.164436
H11   H     H_    0.810875 0.409172 0.542457 0.145335
H12   H     H_    0.189125 0.590828 0.457543 0.145335
H13   H     H_    0.541443 0.603711 0.108207 0.183196
H14   H     H_    0.458562 0.396297 0.891796 0.183191
H15   H     H_    0.913562 0.324492 0.341819 0.190779
H16   H     H_    0.086438 0.675508 0.658181 0.190779
C61   C     C_2   0.015614 0.784246 0.187932 0.795406
O21   O     O_2   0.966776 0.684029 0.191767 -0.534958
O22   O     O_R   0.061297 0.821646 0.247001 -0.652188
H17   H     H_    0.047727 0.761082 0.289093 0.312761
C62   C     C_2   0.984386 0.215754 0.812068 0.795407
O23   O     O_2   0.033224 0.315971 0.808233 -0.534958
O24   O     O_R   0.938703 0.178354 0.752999 -0.652188
H18   H     H_    0.952273 0.238918 0.710907 0.312761
C63   C     C_2   0.469815 0.192072 0.332837 0.789206
O25   O     O_2   0.493000 0.035784 0.343403 -0.535833
O26   O     O_R   0.448741 0.252775 0.266049 -0.646016
H19   H     H_    0.457086 0.156943 0.231139 0.318700
C64   C     C_2   0.530185 0.807929 0.667163 0.789203
O27   O     O_2   0.507001 0.964217 0.656597 -0.535832
O28   O     O_R   0.551258 0.747226 0.733951 -0.646018
H20   H     H_    0.542914 0.843058 0.768860 0.318700
C65   C     C_2   0.554748 0.307157 0.825437 0.799148
O29   O     O_2   0.561132 0.470313 0.840358 -0.524347
O30   O     O_R   0.540013 0.254381 0.757270 -0.645909
H21   H     H_    0.533512 0.363919 0.724953 0.316375
C66   C     C_2   0.445253 0.692845 0.174565 0.799156
O31   O     O_2   0.438877 0.529688 0.159644 -0.524352
O32   O     O_R   0.459978 0.745623 0.242732 -0.645910
H22   H     H_    0.466482 0.636086 0.275049 0.316374
C67   C     C_2   0.969796 0.689689 0.704245 0.784484
O33   O     O_2   0.951717 0.625214 0.755687 -0.546993
O34   O     O_R   0.007753 0.852229 0.708552 -0.654878
H23   H     H_    0.023139 0.890407 0.757443 0.307796
C68   C     C_2   0.030204 0.310311 0.295755 0.784484
O35   O     O_2   0.048283 0.374786 0.244313 -0.546993
O36   O     O_R   0.992247 0.147771 0.291448 -0.654878
H24   H     H_    0.976861 0.109593 0.242557 0.307796
C69   C     C_2   0.631420 0.569202 0.026289 0.757264
O37   O     O_2   0.643651 0.497092 0.973829 -0.550127
O38   O     O_R   0.662819 0.500716 0.089387 -0.649843
H25   H     H_    0.695308 0.394123 0.084742 0.309079
C70   C     C_2   0.368584 0.430805 0.973715 0.757264
O39   O     O_2   0.356352 0.502910 0.026176 -0.550130
O40   O     O_R   0.337187 0.499299 0.910617 -0.649844
H26   H     H_    0.304699 0.605893 0.915263 0.309078
C71   C     C_2   0.818172 0.295181 0.417870 0.773133
O41   O     O_2   0.793151 0.184641 0.453673 -0.558368
O42   O     O_R   0.782965 0.344034 0.353762 -0.644002
H27   H     H_    0.736762 0.282241 0.343543 0.316282
C72   C     C_2   0.181828 0.704819 0.582130 0.773133
O43   O     O_2   0.206849 0.815359 0.546327 -0.558368
O44   O     O_R   0.217034 0.655966 0.646238 -0.644002
H28   H     H_    0.263238 0.717759 0.656457 0.316283

loop_
_geom_bond_atom_site_label_1
_geom_bond_atom_site_label_2
_ccdc_geom_bond_type
O17   V3    S    
C24   H3    S    
C39   C43   A    
O1    C5    A    
C61   O21   D    
C16   H8    S    
C55   C59   A    
C63   O25   D    
O19   V1    S    
O13   V1    S    
O3    C7    A    
O44   H28   S    
C40   C44   A    
O15   V3    S    
C72   O43   D    
O32   H22   S    
C5    C12   S    
C34   C38   A    
C45   C46   A    
O7    C3    A    
C6    C11   S    
C62   O24   S    
C50   C57   A    
C17   C62   S    
C9    C18   A    
C32   C36   A    
O9    V1    S    
C38   H10   S    
C14   C18   A    
C37   H9    S    
C63   O26   S    
O4    C8    A    
C39   H11   S    
O42   H27   S    
C31   C51   A    
O1    V3    S    
C12   C23   A    
O2    V4    S    
O3    V1    S    
C32   C52   A    
C54   C70   S    
C14   H6    S    
C1    O15   A    
C56   C60   A    
C2    O16   A    
C38   C42   A    
O24   H18   S    
C37   C41   A    
O14   V2    S    
C52   C59   A    
C45   C49   A    
C44   C56   A    
C16   C20   A    
C48   C52   A    
C20   C63   S    
O11   C7    A    
C15   C28   A    
C30   C50   A    
C70   O39   D    
C61   O22   S    
C9    C22   A    
C10   C17   A    
O10   V2    S    
C11   C24   A    
C72   O44   S    
O5    V1    S    
O40   H26   S    
C31   C35   A    
O7    V3    S    
C30   C34   A    
C29   C65   S    
C27   C28   A    
O8    V4    S    
O38   H25   S    
C54   C58   A    
C14   C25   A    
C53   C57   A    
O18   V4    S    
C23   C27   A    
C4    C34   S    
C42   C54   A    
C57   H13   S    
C36   C40   A    
C71   O42   S    
C1    C35   S    
O5    C1    A    
C51   C60   A    
C70   O40   S    
C46   C50   A    
C21   C25   A    
O8    C4    A    
C7    C10   S    
C15   H7    S    
C56   C72   S    
O9    C5    A    
C10   C21   A    
C55   C71   S    
C11   C20   A    
C41   C53   A    
C66   O31   D    
C31   C67   S    
C49   C58   A    
C43   C55   A    
O6    V2    S    
C21   H2    S    
C67   O33   D    
O36   H24   S    
C18   C61   S    
C60   H16   S    
C69   O38   S    
C64   O27   D    
O16   V4    S    
C3    O13   A    
O26   H19   S    
C3    C33   S    
C44   C48   A    
O6    C2    A    
C15   C19   A    
O30   H21   S    
O11   V3    S    
O34   H23   S    
C2    C36   S    
O12   V4    S    
C16   C27   A    
C62   O23   D    
C22   C26   A    
C8    C9    S    
O2    C6    A    
C65   O30   S    
C68   O35   D    
C29   C49   A    
C71   O41   D    
C19   C64   S    
C47   C51   A    
C13   C26   A    
O10   C6    A    
C69   O37   D    
C64   O28   S    
C33   C37   A    
C22   H1    S    
O20   V2    S    
C35   C39   A    
C13   C17   A    
O4    V2    S    
C66   O32   S    
C47   C48   A    
C40   H12   S    
C29   C33   A    
C24   C28   A    
C32   C68   S    
O12   C8    A    
C25   C26   A    
C42   C46   A    
C4    O14   A    
O22   H17   S    
C67   O34   S    
C41   C45   A    
C12   C19   A    
C59   H15   S    
C65   O29   D    
C43   C47   A    
C58   H14   S    
C30   C66   S    
C13   H5    S    
O28   H20   S    
C53   C69   S    
C23   H4    S    
C68   O36   S    
