data_str_m4_o17_o17_f0_acs.sym.122
_audit_creation_date              2012-12-11T14:30:00-0500
_audit_creation_method            fapswitch 2.2
_symmetry_space_group_name_H-M    P1
_symmetry_Int_Tables_number       1
_space_group_crystal_system       triclinic
_cell_length_a                    12.641539
_cell_length_b                    12.65291
_cell_length_c                    26.833915
_cell_angle_alpha                 90.003873
_cell_angle_beta                  89.790175
_cell_angle_gamma                 119.957463
_cell_volume                      3718.66642202

loop_
_atom_site_label
_atom_site_type_symbol
_atom_type_description
_atom_site_fract_x
_atom_site_fract_y
_atom_site_fract_z
_atom_type_partial_charge
C1    C     C_R   0.555692 0.457052 0.821786 0.557632
C2    C     C_R   0.902376 0.444521 0.678513 0.546421
C3    C     C_R   0.542352 0.097550 0.821396 0.541859
C4    C     C_R   0.556155 0.457420 0.678202 0.539797
C5    C     C_R   0.901388 0.444009 0.821601 0.559118
C6    C     C_R   0.542771 0.098114 0.678466 0.542515
C7    C     C_R   0.457497 0.555007 0.321327 0.534797
C8    C     C_R   0.444312 0.901394 0.178216 0.558504
C9    C     C_R   0.097773 0.542453 0.321549 0.537473
C10   C     C_R   0.457699 0.555255 0.178610 0.541998
C11   C     C_R   0.444089 0.901636 0.321647 0.558056
C12   C     C_R   0.098605 0.542687 0.178403 0.564404
C13   C     C_R   0.997503 0.505684 0.973728 0.029104
C14   C     C_R   0.513134 0.008716 0.526130 0.024971
C15   C     C_R   0.490166 0.491786 0.974003 0.030765
C16   C     C_R   0.995192 0.505177 0.526286 0.021689
C17   C     C_R   0.511940 0.005254 0.973304 0.026317
C18   C     C_R   0.497906 0.489874 0.525154 0.018287
C19   C     C_R   0.510536 0.004862 0.473410 0.030410
C20   C     C_R   0.002278 0.508127 0.026304 0.029242
C21   C     C_R   0.495321 0.490814 0.472533 0.020861
C22   C     C_R   0.509839 0.001663 0.026014 0.030811
C23   C     C_R   0.997853 0.506200 0.473547 0.021673
C24   C     C_R   0.488122 0.493291 0.026712 0.026325
C25   C     C_R   0.993039 0.695414 0.974229 -0.130501
C26   C     C_R   0.710955 0.020701 0.524363 -0.119386
C27   C     C_R   0.298704 0.300048 0.974406 -0.138521
C28   C     C_R   0.982260 0.690465 0.525129 -0.133513
C29   C     C_R   0.709047 0.015574 0.974104 -0.119777
C30   C     C_R   0.304377 0.299302 0.525786 -0.127528
C31   C     C_R   0.703131 0.006502 0.472862 -0.139398
C32   C     C_R   0.007052 0.702458 0.025711 -0.130556
C33   C     C_R   0.298892 0.303459 0.474085 -0.128503
C34   C     C_R   0.701527 0.001408 0.025633 -0.138689
C35   C     C_R   0.992937 0.695335 0.473451 -0.120082
C36   C     C_R   0.291185 0.306726 0.025933 -0.119757
C37   C     C_R   0.967211 0.585091 0.895632 0.067673
C38   C     C_R   0.618560 0.028369 0.605039 0.085452
C39   C     C_R   0.412935 0.381075 0.896057 0.070919
C40   C     C_R   0.975788 0.590670 0.605483 0.083443
C41   C     C_R   0.617018 0.024917 0.894004 0.083864
C42   C     C_R   0.412811 0.385408 0.604016 0.069294
C43   C     C_R   0.587557 0.971195 0.395147 0.069913
C44   C     C_R   0.032800 0.618022 0.104350 0.067432
C45   C     C_R   0.384502 0.409292 0.395036 0.069204
C46   C     C_R   0.587194 0.968260 0.103978 0.070690
C47   C     C_R   0.022344 0.613633 0.395196 0.066618
C48   C     C_R   0.383187 0.408061 0.106028 0.084022
C49   C     C_R   0.033643 0.520614 0.130069 0.039087
C50   C     C_R   0.488059 0.968514 0.369740 0.039157
C51   C     C_R   0.479972 0.509682 0.130727 0.012260
C52   C     C_R   0.029866 0.519165 0.369587 0.009671
C53   C     C_R   0.488805 0.967417 0.129848 0.039613
C54   C     C_R   0.480538 0.509116 0.368863 0.010185
C55   C     C_R   0.521361 0.032156 0.630239 0.013772
C56   C     C_R   0.966263 0.486734 0.869955 0.039809
C57   C     C_R   0.514890 0.480024 0.629342 0.010658
C58   C     C_R   0.520161 0.029769 0.869279 0.012310
C59   C     C_R   0.969917 0.488669 0.630383 0.014101
C60   C     C_R   0.511136 0.478549 0.870166 0.039031
C61   C     C_R   0.988376 0.597546 0.947507 0.018527
C62   C     C_R   0.614487 0.017318 0.552237 0.036560
C63   C     C_R   0.398511 0.391205 0.947804 0.018949
C64   C     C_R   0.986645 0.597745 0.552688 0.036274
C65   C     C_R   0.612853 0.013244 0.946750 0.036931
C66   C     C_R   0.403303 0.392159 0.551979 0.055922
C67   C     C_R   0.602505 0.996627 0.446764 0.017891
C68   C     C_R   0.011579 0.609234 0.052478 0.018527
C69   C     C_R   0.393541 0.399115 0.446872 0.055789
C70   C     C_R   0.601606 0.992763 0.052227 0.018780
C71   C     C_R   0.002136 0.604533 0.447079 0.055477
C72   C     C_R   0.387316 0.400484 0.053281 0.036777
C73   C     C_R   0.004441 0.413277 0.895183 -0.021722
C74   C     C_R   0.410963 0.995724 0.604761 -0.025351
C75   C     C_R   0.581861 0.590706 0.895124 -0.031906
C76   C     C_R   0.005576 0.413735 0.604636 -0.020598
C77   C     C_R   0.409649 0.992753 0.895104 -0.028737
C78   C     C_R   0.592457 0.589604 0.603202 -0.009637
C79   C     C_R   0.416005 0.008775 0.395003 -0.036006
C80   C     C_R   0.995255 0.408950 0.104896 -0.022388
C81   C     C_R   0.593455 0.580601 0.393289 -0.026875
C82   C     C_R   0.417885 0.008749 0.104881 -0.032023
C83   C     C_R   0.992723 0.407905 0.394910 -0.022482
C84   C     C_R   0.590428 0.583033 0.104890 -0.029182
C85   C     C_R   0.003053 0.411820 0.947539 0.029541
C86   C     C_R   0.412272 0.000171 0.552485 0.027692
C87   C     C_R   0.583773 0.591206 0.947558 0.025354
C88   C     C_R   0.003144 0.412341 0.552307 0.031307
C89   C     C_R   0.411160 0.997285 0.947403 0.024958
C90   C     C_R   0.593747 0.588172 0.550784 0.030531
C91   C     C_R   0.415589 0.008841 0.447442 0.027262
C92   C     C_R   0.996579 0.408719 0.052540 0.029628
C93   C     C_R   0.595341 0.582603 0.445676 0.025151
C94   C     C_R   0.416064 0.007413 0.052445 0.025277
C95   C     C_R   0.994136 0.407732 0.447294 0.027881
C96   C     C_R   0.588848 0.586017 0.052593 0.024974
C97   C     C_R   0.995937 0.312843 0.025854 -0.117186
C98   C     C_R   0.320013 0.008381 0.474453 -0.121652
C99   C     C_R   0.684189 0.681748 0.025667 -0.123492
C100  C     C_R   0.995137 0.312789 0.473905 -0.121704
C101  C     C_R   0.320781 0.008008 0.025926 -0.123690
C102  C     C_R   0.693043 0.676705 0.471783 -0.126128
C103  C     C_R   0.316026 0.999321 0.526037 -0.121711
C104  C     C_R   0.003508 0.316554 0.974270 -0.117158
C105  C     C_R   0.690284 0.681636 0.523425 -0.116891
C106  C     C_R   0.315679 0.997649 0.974316 -0.123592
C107  C     C_R   0.003738 0.317155 0.525438 -0.117243
C108  C     C_R   0.678986 0.686992 0.974060 -0.123607
Cr1   Cr    Cr6+3 0.487630 0.241180 0.750000 1.012929
Cr2   Cr    Cr6+3 0.753550 0.512370 0.750000 1.032179
Cr3   Cr    Cr6+3 0.758820 0.246450 0.750000 1.023557
Cr4   Cr    Cr6+3 0.241180 0.487630 0.250000 1.003458
Cr5   Cr    Cr6+3 0.512370 0.753550 0.250000 1.043411
Cr6   Cr    Cr6+3 0.246450 0.758820 0.250000 1.011493
H1    H     H_    0.013110 0.781315 0.044138 0.093620
H2    H     H_    0.777761 0.004683 0.453811 0.095001
H3    H     H_    0.208615 0.236820 0.043319 0.104805
H4    H     H_    0.993092 0.770744 0.454289 0.136611
H5    H     H_    0.775911 0.998870 0.044311 0.092088
H6    H     H_    0.219634 0.231212 0.455665 0.136902
H7    H     H_    0.794047 0.034109 0.541264 0.105226
H8    H     H_    0.987105 0.768250 0.955767 0.093618
H9    H     H_    0.230126 0.222903 0.545036 0.135984
H10   H     H_    0.791648 0.028162 0.956701 0.105001
H11   H     H_    0.969805 0.760456 0.542418 0.103480
H12   H     H_    0.224387 0.223205 0.955736 0.092166
H13   H     H_    0.994706 0.236493 0.044582 0.101150
H14   H     H_    0.244348 0.008849 0.455920 0.109580
H15   H     H_    0.761145 0.755990 0.044367 0.097458
H16   H     H_    0.994478 0.236804 0.455091 0.103985
H17   H     H_    0.246306 0.010323 0.044936 0.097381
H18   H     H_    0.769907 0.750254 0.452498 0.100798
H19   H     H_    0.238783 0.996096 0.545018 0.105013
H20   H     H_    0.004613 0.241323 0.955578 0.101209
H21   H     H_    0.766765 0.757313 0.541683 0.102256
H22   H     H_    0.238670 0.994959 0.955605 0.097396
H23   H     H_    0.006104 0.242462 0.544003 0.104133
H24   H     H_    0.753338 0.763698 0.955037 0.097424
O1    O     O_R   0.460870 0.120930 0.805240 -0.509035
O2    O     O_R   0.660060 0.539130 0.694760 -0.503495
O3    O     O_R   0.879070 0.339940 0.805240 -0.515196
O4    O     O_R   0.460870 0.120930 0.694760 -0.530862
O5    O     O_R   0.660060 0.539130 0.805240 -0.518366
O6    O     O_R   0.879070 0.339940 0.694760 -0.508324
O7    O     O_R   0.120930 0.460870 0.305240 -0.526261
O8    O     O_R   0.539130 0.660060 0.194760 -0.509799
O9    O     O_R   0.339940 0.879070 0.305240 -0.539164
O10   O     O_R   0.120930 0.460870 0.194760 -0.511649
O11   O     O_R   0.539130 0.660060 0.305240 -0.505924
O12   O     O_R   0.339940 0.879070 0.194760 -0.517741
O13   O     O_R   0.498910 0.350470 0.801870 -0.454107
O14   O     O_R   0.851560 0.501090 0.698130 -0.472574
O15   O     O_R   0.649530 0.148440 0.801870 -0.476226
O16   O     O_R   0.498910 0.350470 0.698130 -0.506889
O17   O     O_R   0.851560 0.501090 0.801870 -0.459098
O18   O     O_R   0.649530 0.148440 0.698130 -0.472602
O19   O     O_R   0.350470 0.498910 0.301870 -0.509858
O20   O     O_R   0.501090 0.851560 0.198130 -0.454088
O21   O     O_R   0.148440 0.649530 0.301870 -0.504794
O22   O     O_R   0.350470 0.498910 0.198130 -0.473616
O23   O     O_R   0.501090 0.851560 0.301870 -0.451807
O24   O     O_R   0.148440 0.649530 0.198130 -0.455116
O25   O     O_3   0.666667 0.333333 0.750000 -0.237618
O26   O     O_3   0.333333 0.666667 0.250000 -0.236853
N1    N     N_3   0.060286 0.727576 0.130638 -0.606399
H25   H     H_    0.136967 0.800141 0.114005 0.237851
H26   H     H_    0.986588 0.742734 0.127906 0.203554
N2    N     N_3   0.667592 0.940067 0.369080 -0.603324
H27   H     H_    0.665149 0.865888 0.387249 0.235502
H28   H     H_    0.756532 0.013855 0.369860 0.205517
N3    N     N_3   0.281309 0.316551 0.134607 -0.600441
H29   H     H_    0.247742 0.230860 0.118574 0.189768
H30   H     H_    0.315197 0.304082 0.168244 0.219962
N4    N     N_3   0.036189 0.719495 0.369626 -0.670721
H31   H     H_    0.128374 0.777114 0.361489 0.271955
H32   H     H_    0.985085 0.692712 0.336808 0.232909
N5    N     N_3   0.666848 0.936769 0.129788 -0.602922
H33   H     H_    0.663213 0.861928 0.111768 0.236231
H34   H     H_    0.756054 0.010036 0.128308 0.203791
N6    N     N_3   0.276996 0.318628 0.370087 -0.670137
H35   H     H_    0.220939 0.355067 0.362199 0.273794
H36   H     H_    0.302072 0.292136 0.337251 0.231044
N7    N     N_3   0.720492 0.038823 0.633306 -0.599520
H37   H     H_    0.756873 0.989889 0.616508 0.190819
H38   H     H_    0.686032 0.989581 0.666421 0.218143
N8    N     N_3   0.939907 0.667280 0.869293 -0.607023
H39   H     H_    0.863273 0.663497 0.885897 0.237772
H40   H     H_    0.013689 0.755930 0.872010 0.203187
N9    N     N_3   0.318363 0.282090 0.630165 -0.670850
H41   H     H_    0.350003 0.222568 0.639208 0.272903
H42   H     H_    0.294348 0.311650 0.662434 0.231478
N10   N     N_3   0.719014 0.035174 0.865479 -0.601353
H43   H     H_    0.752059 0.982426 0.881424 0.189664
H44   H     H_    0.685399 0.989445 0.831715 0.219463
N11   N     N_3   0.965926 0.682383 0.633972 -0.602480
H45   H     H_    0.016341 0.767783 0.617395 0.191520
H46   H     H_    0.013965 0.695856 0.667206 0.220569
N12   N     N_3   0.333548 0.269940 0.870285 -0.604106
H47   H     H_    0.337485 0.198924 0.888334 0.237041
H48   H     H_    0.244227 0.253867 0.871750 0.202900
C109  C     C_3   0.949400 0.290252 0.133120 -0.380396
H49   H     H_    0.020914 0.263795 0.134346 0.165518
H50   H     H_    0.919679 0.296079 0.171503 0.145530
H51   H     H_    0.866959 0.217630 0.114428 0.112785
C110  C     C_3   0.344852 0.056658 0.366847 -0.388698
H52   H     H_    0.378635 0.082688 0.328034 0.142869
H53   H     H_    0.246134 0.988338 0.366623 0.140269
H54   H     H_    0.357915 0.141329 0.384894 0.144995
C111  C     C_3   0.710561 0.647705 0.132508 -0.386267
H55   H     H_    0.747869 0.747594 0.133109 0.129796
H56   H     H_    0.701534 0.613757 0.171319 0.146238
H57   H     H_    0.776971 0.627709 0.113760 0.124340
C112  C     C_3   0.942291 0.288691 0.366875 -0.385909
H58   H     H_    0.917199 0.296743 0.328036 0.150196
H59   H     H_    0.008266 0.255217 0.366719 0.133851
H60   H     H_    0.856450 0.219990 0.385221 0.122633
C113  C     C_3   0.353807 0.063915 0.133364 -0.393854
H61   H     H_    0.253547 0.002633 0.133381 0.128880
H62   H     H_    0.386589 0.086241 0.172342 0.144223
H63   H     H_    0.376372 0.151839 0.115581 0.121829
C114  C     C_3   0.711852 0.647162 0.364075 -0.383417
H64   H     H_    0.701268 0.611925 0.325446 0.141523
H65   H     H_    0.745864 0.746526 0.362992 0.139327
H66   H     H_    0.781807 0.631060 0.381774 0.144679
C115  C     C_3   0.290938 0.942817 0.632706 -0.393728
H67   H     H_    0.298650 0.917295 0.671541 0.143215
H68   H     H_    0.255852 0.007491 0.632929 0.135284
H69   H     H_    0.223916 0.856864 0.614270 0.118671
C116  C     C_3   0.050178 0.340150 0.867017 -0.381211
H70   H     H_    0.978534 0.242386 0.865772 0.165776
H71   H     H_    0.080092 0.375612 0.828646 0.143347
H72   H     H_    0.132476 0.349619 0.885771 0.112384
C117  C     C_3   0.668079 0.708987 0.630438 -0.381308
H73   H     H_    0.632304 0.706538 0.668515 0.139483
H74   H     H_    0.765060 0.732207 0.632176 0.169915
H75   H     H_    0.661550 0.782373 0.610662 0.104827
C118  C     C_3   0.289535 0.937448 0.867468 -0.386785
H76   H     H_    0.252131 0.000032 0.866861 0.129783
H77   H     H_    0.298628 0.912529 0.828659 0.145554
H78   H     H_    0.223179 0.851159 0.886207 0.123971
C119  C     C_3   0.049492 0.338571 0.632447 -0.380740
H79   H     H_    0.079698 0.373461 0.670766 0.138307
H80   H     H_    0.976370 0.241385 0.633910 0.170744
H81   H     H_    0.131106 0.345772 0.613516 0.136088
C120  C     C_3   0.645616 0.709816 0.866639 -0.394351
H82   H     H_    0.745912 0.748834 0.866598 0.128651
H83   H     H_    0.612767 0.699321 0.827669 0.142986
H84   H     H_    0.622830 0.775062 0.884435 0.121898

loop_
_geom_bond_atom_site_label_1
_geom_bond_atom_site_label_2
_ccdc_geom_bond_type
C44   C49   A    
C4    O16   A    
N3    H29   S    
C29   H10   S    
C120  H83   S    
C80   C92   A    
N1    H25   S    
C82   C94   A    
C5    O17   A    
C18   C21   A    
C2    O6    A    
C109  H49   S    
C5    C56   S    
C11   O23   A    
C6    C55   S    
C97   H13   S    
C8    O20   A    
C50   C79   A    
C111  H57   S    
C73   C116  S    
C12   C49   S    
Cr2   O2    S    
C112  H58   S    
C78   C90   A    
C113  H63   S    
C31   C67   A    
C99   C108  A    
N3    H30   S    
C77   C89   A    
C114  H64   S    
C104  H20   S    
Cr1   O13   S    
C102  H18   S    
Cr6   O9    S    
C116  H72   S    
Cr2   O14   S    
N7    H38   S    
C44   C68   A    
C27   H12   S    
C100  H16   S    
N2    H28   S    
Cr6   O24   S    
C9    O21   A    
C98   C103  A    
C14   C62   A    
C96   C99   A    
C3    O15   A    
C115  H69   S    
C47   N4    S    
Cr4   O7    S    
C102  C105  A    
C119  H79   S    
C84   C96   A    
N9    H42   S    
N4    H31   S    
Cr2   O17   S    
C58   C77   A    
C115  H68   S    
C7    O11   A    
C55   C74   A    
Cr6   O26   S    
C48   C51   A    
C87   C108  A    
C80   C109  S    
C94   C101  A    
N5    H34   S    
C89   C106  A    
C74   C115  S    
C117  H74   S    
C19   C67   A    
N12   H47   S    
C110  H52   S    
C26   H7    S    
Cr5   O20   S    
C6    O4    A    
C25   H8    S    
C34   C70   A    
C113  H62   S    
C79   C91   A    
C45   N6    S    
C120  H84   S    
C33   C69   A    
C32   C68   A    
C25   C32   A    
C98   H14   S    
C35   C71   A    
C26   C31   A    
N1    H26   S    
C40   C59   A    
C120  H82   S    
C4    C57   S    
C77   C118  S    
C109  H50   S    
C46   N5    S    
Cr2   O5    S    
C9    C52   S    
C48   C72   A    
C86   C103  A    
C14   C19   A    
C42   C57   A    
C83   C112  S    
N6    H36   S    
C92   C97   A    
C111  H55   S    
C110  H53   S    
C2    O14   A    
Cr4   O26   S    
C16   C88   A    
Cr4   O19   S    
C38   C55   A    
C45   C69   A    
C18   C90   A    
Cr5   O11   S    
C17   C89   A    
C28   C35   A    
Cr1   O25   S    
C1    C60   S    
C88   C107  A    
C99   H15   S    
C95   C100  A    
C41   C65   A    
C13   C85   A    
C113  H61   S    
C43   N2    S    
Cr5   O23   S    
C29   C34   A    
C22   C94   A    
C38   N7    S    
Cr4   O10   S    
C21   C69   A    
C53   C82   A    
C119  H80   S    
N10   H44   S    
Cr5   O8    S    
C107  H23   S    
C52   C83   A    
C8    O12   A    
N7    H37   S    
C43   C67   A    
C30   C33   A    
C116  H70   S    
C1    O5    A    
C23   C71   A    
C4    O2    A    
C48   N3    S    
C81   C93   A    
C5    O3    A    
C37   N8    S    
C83   C95   A    
C115  H67   S    
Cr3   O25   S    
C41   N10   S    
C25   C61   A    
C74   C86   A    
C36   H3    S    
Cr3   O15   S    
C14   C86   A    
C30   C66   A    
C85   C104  A    
C27   C63   A    
Cr3   O6    S    
C10   O8    A    
C29   C65   A    
C101  H17   S    
C75   C87   A    
N2    H27   S    
C39   N12   S    
C45   C54   A    
C16   C23   A    
C118  H77   S    
C91   C98   A    
C109  H51   S    
C20   C92   A    
C3    O1    A    
C47   C71   A    
N8    H40   S    
C84   C111  S    
C10   O22   A    
C31   H2    S    
C101  C106  A    
C39   C63   A    
C28   H11   S    
C24   C72   A    
C15   C87   A    
C117  H73   S    
C110  H54   S    
C34   H5    S    
C76   C88   A    
C18   C66   A    
C15   C24   A    
C100  C107  A    
C15   C63   A    
C56   C73   A    
Cr4   O22   S    
C13   C20   A    
C2    C59   S    
C93   C102  A    
C57   C78   A    
C20   C68   A    
Cr1   O16   S    
C90   C105  A    
C75   C120  S    
C8    C53   S    
C41   C58   A    
C37   C61   A    
Cr2   O25   S    
C43   C50   A    
C28   C64   A    
C112  H60   S    
C7    O19   A    
C27   C36   A    
C114  H66   S    
C81   C114  S    
C60   C75   A    
C17   C65   A    
C17   C22   A    
C40   C64   A    
C49   C80   A    
C105  H21   S    
Cr1   O1    S    
C119  H81   S    
C10   C51   S    
N10   H43   S    
C12   O10   A    
C24   C96   A    
C76   C119  S    
C103  H19   S    
C112  H59   S    
C73   C85   A    
C114  H65   S    
C11   C50   S    
C79   C110  S    
Cr5   O26   S    
C108  H24   S    
C42   N9    S    
C11   O9    A    
C82   C113  S    
C21   C93   A    
C78   C117  S    
C39   C60   A    
C59   C76   A    
C46   C53   A    
C9    O7    A    
C111  H56   S    
C23   C95   A    
C1    O13   A    
C44   N1    S    
C32   H1    S    
C26   C62   A    
N9    H41   S    
C117  H75   S    
N4    H32   S    
Cr6   O21   S    
C46   C70   A    
C97   C104  A    
C19   C91   A    
Cr3   O3    S    
C12   O24   A    
N11   H45   S    
C3    C58   S    
Cr3   O18   S    
C13   C61   A    
C30   H9    S    
C33   H6    S    
C116  H71   S    
N5    H33   S    
C118  H78   S    
C47   C52   A    
C37   C56   A    
C42   C66   A    
Cr6   O12   S    
C35   H4    S    
N12   H48   S    
C16   C64   A    
C7    C54   S    
C38   C62   A    
N8    H39   S    
C118  H76   S    
C51   C84   A    
C22   C70   A    
C54   C81   A    
C6    O18   A    
N6    H35   S    
C36   C72   A    
Cr1   O4    S    
C106  H22   S    
N11   H46   S    
C40   N11   S    
