data_str_m9_o11_o16_f0_sra.sym.189
_audit_creation_date              2012-12-11T14:17:36-0500
_audit_creation_method            fapswitch 2.2
_symmetry_space_group_name_H-M    P1
_symmetry_Int_Tables_number       1
_space_group_crystal_system       triclinic
_cell_length_a                    6.943049
_cell_length_b                    13.638983
_cell_length_c                    20.471396
_cell_angle_alpha                 102.168824
_cell_angle_beta                  90.340078
_cell_angle_gamma                 90.870997
_cell_volume                      1894.70206362

loop_
_atom_site_label
_atom_site_type_symbol
_atom_type_description
_atom_site_fract_x
_atom_site_fract_y
_atom_site_fract_z
_atom_type_partial_charge
O1    O     O_R   0.506860 0.599390 0.449240 -0.543778
O2    O     O_R   0.180220 0.594600 0.586780 -0.546601
O3    O     O_R   0.004500 0.400610 0.550760 -0.536987
C1    C     C_R   0.349672 0.612761 0.614470 0.693474
O4    O     O_R   0.177490 0.611290 0.451970 -0.544536
O5    O     O_R   0.001750 0.417420 0.414990 -0.540969
C2    C     C_R   0.346896 0.637485 0.434830 0.688847
O6    O     O_R   0.509610 0.582580 0.585010 -0.543633
O7    O     O_3   0.337420 0.436370 0.488020 -0.363946
V1    V     V_3+5 0.064680 0.511800 0.502220 1.464302
O8    O     O_R   0.671710 0.405400 0.413220 -0.539810
C3    C     C_R   0.838969 0.383783 0.386696 0.802755
O9    O     O_R   0.674440 0.388710 0.548030 -0.536125
C4    C     C_R   0.842660 0.361772 0.564259 0.786169
V2    V     V_3+5 0.564010 0.488200 0.497780 1.485692
O10   O     O_3   0.841140 0.563630 0.511980 -0.382847
C5    C     C_R   0.848708 0.108164 0.607994 -0.170054
H1    H     H_    0.854051 0.981440 0.687655 0.159926
H2    H     H_    0.846529 0.029895 0.582566 0.147587
C6    C     C_R   0.849317 0.282809 0.602320 -0.118134
C7    C     C_R   0.865563 0.310230 0.924572 -0.230433
C8    C     C_R   0.863174 0.386122 0.889003 0.022742
C9    C     C_R   0.859459 0.362487 0.819450 -0.169650
C10   C     C_R   0.858397 0.261476 0.783316 0.039832
C11   C     C_R   0.860289 0.182631 0.819991 -0.011120
C12   C     C_R   0.855562 0.236914 0.711783 0.088642
C13   C     C_R   0.853324 0.134841 0.678097 0.007377
C14   C     C_R   0.855373 0.059296 0.714097 -0.192024
C15   C     C_R   0.859147 0.080939 0.783474 0.315225
C16   C     C_R   0.854477 0.310180 0.672062 -0.264858
C17   C     C_R   0.845933 0.181581 0.570050 0.375146
C18   C     C_R   0.863908 0.209623 0.891403 -0.082316
H3    H     H_    0.856368 0.389454 0.693183 0.120748
H4    H     H_    0.869136 0.329573 0.978803 0.104081
H5    H     H_    0.857520 0.425349 0.795329 0.125178
C19   C     C_2   0.004884 0.287100 0.287536 -0.159160
C20   C     C_2   0.840461 0.314133 0.320592 -0.336625
H6    H     H_    0.140477 0.317029 0.310793 0.176957
H7    H     H_    0.702485 0.284033 0.300058 0.159973
C21   C     C_2   0.019323 0.215808 0.221620 0.410934
C22   C     C_2   0.865444 0.184087 0.180664 -0.359488
H8    H     H_    0.722881 0.210191 0.195994 0.147144
C23   C     C_2   0.208952 0.775815 0.786893 -0.100847
C24   C     C_2   0.361812 0.828609 0.816749 -0.259913
H9    H     H_    0.073845 0.777942 0.813563 0.195913
H10   H     H_    0.493472 0.831901 0.789073 0.180830
C25   C     C_2   0.211348 0.719306 0.716059 -0.164303
C26   C     C_2   0.363867 0.668921 0.684878 -0.203704
H11   H     H_    0.075723 0.716769 0.689002 0.165843
C27   C     C_R   0.418955 0.886040 0.386523 -0.105587
H12   H     H_    0.414812 0.835899 0.479037 0.114228
H13   H     H_    0.455062 0.009982 0.303414 0.168925
H14   H     H_    0.449568 0.963148 0.411277 0.160895
C28   C     C_R   0.359206 0.714217 0.394649 -0.038469
C29   C     C_R   0.315440 0.686292 0.071846 -0.133926
C30   C     C_R   0.294534 0.610817 0.107551 -0.097427
C31   C     C_R   0.309941 0.632766 0.177045 -0.158127
C32   C     C_R   0.347742 0.732015 0.212969 0.080058
C33   C     C_R   0.371203 0.808954 0.175846 0.048268
C34   C     C_R   0.362552 0.757534 0.284330 0.073689
C35   C     C_R   0.401828 0.858931 0.316619 0.110196
C36   C     C_R   0.424878 0.932627 0.279074 -0.146704
C37   C     C_R   0.409908 0.908219 0.209896 -0.172577
C38   C     C_R   0.340625 0.686093 0.325041 -0.210466
C39   C     C_R   0.398740 0.813986 0.425227 -0.161749
C40   C     C_R   0.353932 0.785068 0.105171 -0.080602
H15   H     H_    0.311477 0.607824 0.304468 0.096248
H16   H     H_    0.300704 0.667695 0.017885 0.121751
H17   H     H_    0.291122 0.570192 0.200963 0.114674
H18   H     H_    0.264878 0.534507 0.081147 0.128043
H19   H     H_    0.429585 0.968157 0.183217 0.167563
O11   O     O_R   0.203230 0.917310 0.915020 -0.522573
O12   O     O_R   0.535500 0.888690 0.048040 -0.546037
O13   O     O_R   0.711080 0.082610 0.085000 -0.543811
C41   C     C_R   0.366159 0.862541 0.065233 0.682403
O14   O     O_R   0.532630 0.905370 0.913230 -0.521025
O15   O     O_R   0.708190 0.099410 0.949230 -0.533767
C42   C     C_R   0.363784 0.886377 0.886131 0.775102
O16   O     O_R   0.206120 0.900510 0.050790 -0.538389
O17   O     O_3   0.375360 0.063570 0.011990 -0.369335
V3    V     V_3+5 0.648170 0.988200 0.997780 1.547017
O18   O     O_R   0.038240 0.111390 0.951940 -0.539492
C43   C     C_R   0.870192 0.136277 0.933977 0.789597
O19   O     O_R   0.041120 0.094710 0.086750 -0.509009
C44   C     C_R   0.874148 0.115182 0.113916 0.772936
V4    V     V_3+5 0.148810 0.011930 0.002180 1.561781
O20   O     O_3   0.871750 0.936430 0.988010 -0.361140
Cl1   Cl    Cl    0.838127 0.144645 0.482239 -0.676301
Cl2   Cl    Cl    0.256452 0.176238 0.200455 -0.705932
C45   C     C_1   0.540232 0.657495 0.720746 0.329797
N1    N     N_1   0.681111 0.647892 0.749108 -0.372588
C46   C     C_1   0.865366 0.489492 0.924257 0.296264
N2    N     N_1   0.867194 0.572463 0.952564 -0.356731
Cl3   Cl    Cl    0.861949 0.973135 0.818264 -0.701129

loop_
_geom_bond_atom_site_label_1
_geom_bond_atom_site_label_2
_ccdc_geom_bond_type
C29   C30   A    
C22   H8    S    
C1    O6    A    
C29   H16   S    
C31   C32   A    
C25   H11   S    
C28   C39   A    
C6    C16   A    
C12   C13   A    
C19   C20   D    
O14   C42   A    
C33   C40   A    
O5    C3    A    
C15   Cl3   S    
O15   C43   A    
C32   C34   A    
V2    O10   S    
C30   C31   A    
H12   C39   S    
C3    C20   S    
O11   C42   A    
O8    V2    S    
O17   V4    S    
C9    C10   A    
O1    V2    S    
C21   Cl2   S    
O7    V1    S    
C11   C18   A    
C26   C45   S    
O9    C4    A    
O12   C41   A    
O12   V3    S    
C24   H10   S    
C11   C15   A    
C7    C18   A    
C27   H14   S    
C5    C13   A    
C38   H15   S    
C4    C6    S    
C19   C21   S    
H1    C14   S    
C10   C11   A    
O4    C2    A    
V4    O20   S    
C7    H4    S    
C32   C33   A    
O18   V4    S    
C34   C35   A    
O2    C1    A    
C23   C24   D    
C36   C37   A    
C25   C26   D    
O15   V3    S    
O19   C44   A    
C23   H9    S    
V3    O20   S    
O3    C4    A    
C21   C22   D    
C37   H19   S    
C12   C16   A    
O6    V2    S    
C9    H5    S    
O9    V2    S    
C5    C17   A    
C41   O16   A    
O13   V3    S    
O2    V1    S    
C29   C40   A    
C1    C26   S    
C18   C43   S    
C14   C15   A    
C17   Cl1   S    
C16   H3    S    
O1    C2    A    
C33   C37   A    
C10   C12   A    
O17   V3    S    
O14   V3    S    
O5    V1    S    
O11   V4    S    
O8    C3    A    
C22   C44   S    
C30   H18   S    
C34   C38   A    
C24   C42   S    
O7    V2    S    
O4    V1    S    
C20   H7    S    
O3    V1    S    
V1    O10   S    
C45   N1    T    
C28   C38   A    
C40   C41   S    
C19   H6    S    
C46   N2    T    
C5    H2    S    
O13   C44   A    
C35   C36   A    
C27   C39   A    
O18   C43   A    
C13   C14   A    
C27   C35   A    
C8    C46   S    
C8    C9    A    
O19   V4    S    
H13   C36   S    
C2    C28   S    
C31   H17   S    
C7    C8    A    
C23   C25   S    
O16   V4    S    
C6    C17   A    
