data_str_m2_o22_o24_f0_pcu.sym.83
_audit_creation_date              2012-12-10T18:11:09-0500
_audit_creation_method            fapswitch 2.2
_symmetry_space_group_name_H-M    P1
_symmetry_Int_Tables_number       1
_space_group_crystal_system       triclinic
_cell_length_a                    10.752737
_cell_length_b                    9.631071
_cell_length_c                    10.648787
_cell_angle_alpha                 90.753122
_cell_angle_beta                  88.909705
_cell_angle_gamma                 89.855824
_cell_volume                      1102.49322692

loop_
_atom_site_label
_atom_site_type_symbol
_atom_type_description
_atom_site_fract_x
_atom_site_fract_y
_atom_site_fract_z
_atom_type_partial_charge
C1    C     C_R   0.260544 0.500267 0.498786 0.732881
C2    C     C_3   0.502192 0.495946 0.123413 -0.031402
C3    C     C_3   0.072127 0.625926 0.421115 -0.149067
C4    C     C_3   0.068052 0.517807 0.636217 -0.154115
C5    C     C_3   0.928581 0.623482 0.419174 -0.385367
C6    C     C_3   0.923025 0.515149 0.633813 -0.355101
C7    C     C_3   0.072927 0.362228 0.442504 -0.387471
C8    C     C_3   0.121949 0.500900 0.499034 -0.001228
C9    C     C_3   0.877641 0.500593 0.497155 0.039829
C10   C     C_3   0.930727 0.364621 0.437384 -0.325491
C11   C     C_3   0.614486 0.081837 0.437860 -0.143449
C12   C     C_3   0.612250 0.915900 0.434043 -0.130061
C13   C     C_3   0.494138 0.086762 0.636075 0.014216
C14   C     C_3   0.499248 0.915853 0.636395 0.011589
C15   C     C_3   0.394289 0.081351 0.431423 -0.208573
C16   C     C_3   0.389532 0.917433 0.439311 -0.240723
C17   C     C_R   0.501035 0.498863 0.260181 0.830994
C18   C     C_R   0.739378 0.499923 0.497316 0.802901
C19   C     C_R   0.499825 0.500776 0.740437 0.757356
C20   C     C_3   0.398854 0.561132 0.047290 -0.187343
C21   C     C_3   0.503929 0.366007 0.038550 -0.058485
C22   C     C_3   0.400310 0.431865 0.960208 -0.208099
C23   C     C_3   0.500408 0.501604 0.878259 -0.001863
C24   C     C_3   0.498929 0.630698 0.964179 -0.084977
C25   C     C_3   0.604260 0.435700 0.954655 -0.105003
C26   C     C_3   0.602578 0.565045 0.042214 -0.175931
Cu1   Cu    Cu3+1 0.499860 0.642410 0.500060 0.918710
Cu2   Cu    Cu3+1 0.499860 0.357590 0.500060 0.922576
H1    H     H_    0.315303 0.377374 0.929831 0.149331
H2    H     H_    0.903751 0.358314 0.337367 0.220328
H3    H     H_    0.893405 0.271949 0.486644 0.202811
H4    H     H_    0.698716 0.110075 0.489970 0.119463
H5    H     H_    0.698644 0.883423 0.480064 0.125872
H6    H     H_    0.303815 0.126864 0.459636 0.212420
H7    H     H_    0.301195 0.888129 0.486816 0.169275
H8    H     H_    0.398511 0.111217 0.331460 0.120800
H9    H     H_    0.380336 0.872162 0.343744 0.194299
H10   H     H_    0.314020 0.612983 0.085187 0.194731
H11   H     H_    0.504504 0.256520 0.068964 0.166519
H12   H     H_    0.495096 0.741329 0.942066 0.246047
H13   H     H_    0.689704 0.385872 0.914806 0.174355
H14   H     H_    0.686260 0.619118 0.077271 0.194539
H15   H     H_    0.099598 0.724184 0.469674 0.170044
H16   H     H_    0.096116 0.621693 0.672906 0.102434
H17   H     H_    0.892755 0.723835 0.458526 0.194163
H18   H     H_    0.886046 0.613309 0.676697 0.146713
H19   H     H_    0.894169 0.614046 0.321439 0.204703
H20   H     H_    0.882509 0.429392 0.690028 0.200700
H21   H     H_    0.113133 0.343190 0.346821 0.155204
H22   H     H_    0.101880 0.273045 0.500654 0.226816
N1    N     N_3   0.500250 0.143650 0.502780 -0.226844
N2    N     N_3   0.500250 0.856350 0.502780 -0.253413
O1    O     O_R   0.317570 0.620260 0.500070 -0.607248
O2    O     O_R   0.317570 0.379740 0.500070 -0.588634
O3    O     O_R   0.499850 0.620240 0.316900 -0.569270
O4    O     O_R   0.499850 0.379760 0.316900 -0.596690
O5    O     O_R   0.682190 0.620260 0.500030 -0.597818
O6    O     O_R   0.682190 0.379740 0.500030 -0.588988
O7    O     O_R   0.499910 0.620280 0.683200 -0.620176
O8    O     O_R   0.499910 0.379720 0.683200 -0.623241
C27   C     C_2   0.639105 0.142352 0.308495 0.509075
H23   H     H_    0.573916 0.127321 0.233583 0.029918
O9    O     O_2   0.736287 0.201671 0.283938 -0.575827
C28   C     C_2   0.628181 0.857061 0.301577 0.483539
H24   H     H_    0.557023 0.871789 0.232169 0.056745
O10   O     O_2   0.723774 0.796809 0.269437 -0.578718
C29   C     C_2   0.603220 0.145014 0.713221 0.364333
H25   H     H_    0.684587 0.191044 0.670148 0.090968
O11   O     O_2   0.599671 0.144463 0.828025 -0.529231
C30   C     C_2   0.614620 0.860650 0.705378 0.373150
H26   H     H_    0.684955 0.798178 0.658615 0.091518
O12   O     O_2   0.628815 0.880623 0.817539 -0.509672
C31   C     C_2   0.374882 0.142644 0.704408 0.530027
H27   H     H_    0.381088 0.200885 0.791638 0.110148
O13   O     O_2   0.270145 0.115075 0.669743 -0.588735
C32   C     C_2   0.386579 0.858741 0.710884 0.468017
H28   H     H_    0.320592 0.789189 0.668418 0.091966
O14   O     O_2   0.368151 0.890522 0.821152 -0.550500
C33   C     C_2   0.125180 0.630560 0.288894 0.367287
H29   H     H_    0.113412 0.543540 0.224544 0.068396
O15   O     O_2   0.179679 0.733987 0.252581 -0.562081
C34   C     C_2   0.123107 0.413567 0.725424 0.419435
H30   H     H_    0.222050 0.416772 0.741903 0.039819
O16   O     O_2   0.060019 0.326440 0.779085 -0.516123

loop_
_geom_bond_atom_site_label_1
_geom_bond_atom_site_label_2
_ccdc_geom_bond_type
C7    C10   S    
C22   H1    S    
C1    C8    S    
C31   O13   D    
C31   H27   S    
C4    C8    S    
C3    C33   S    
C6    C9    S    
Cu2   O4    S    
C7    C8    S    
C5    H19   S    
C3    H15   S    
C6    H20   S    
C32   O14   D    
C24   C26   S    
C16   H7    S    
C12   C28   S    
Cu2   N1    S    
Cu1   O3    S    
C15   C16   S    
C27   O9    D    
C1    O1    A    
C13   N1    S    
C10   H3    S    
C18   O6    A    
C14   N2    S    
C20   C24   S    
C23   C24   S    
C30   H26   S    
C15   N1    S    
C9    C10   S    
C17   O3    A    
C15   H6    S    
C16   H9    S    
C21   C22   S    
C2    C17   S    
C14   C30   S    
C12   N2    S    
Cu2   O8    S    
C2    C20   S    
C29   H25   S    
C32   H28   S    
C7    H21   S    
C4    C6    S    
C3    C8    S    
Cu1   O5    S    
C25   H13   S    
C33   O15   D    
Cu2   O2    S    
C4    H16   S    
C3    C5    S    
C25   C26   S    
C5    H17   S    
C29   O11   D    
C14   C32   S    
C19   C23   S    
C1    O2    A    
C5    C9    S    
C20   H10   S    
C10   H2    S    
C18   O5    A    
C21   H11   S    
C2    C21   S    
C2    C26   S    
C17   O4    A    
C13   C31   S    
C11   H4    S    
C34   O16   D    
C15   H8    S    
Cu1   N2    S    
C26   H14   S    
C13   C29   S    
C21   C25   S    
C6    H18   S    
C16   N2    S    
C7    H22   S    
C20   C22   S    
C11   C27   S    
C11   C12   S    
Cu1   O1    S    
Cu2   O6    S    
C19   O8    A    
C19   O7    A    
C28   H24   S    
Cu1   O7    S    
C24   H12   S    
C23   C25   S    
C27   H23   S    
C11   N1    S    
C33   H29   S    
C9    C18   S    
C4    C34   S    
C34   H30   S    
Cu1   Cu2   S    
C22   C23   S    
C30   O12   D    
C12   H5    S    
C13   C14   S    
C28   O10   D    
