data_str_m9_o17_o19_f0_sra.sym.76
_audit_creation_date              2012-12-11T15:19:39-0500
_audit_creation_method            fapswitch 2.2
_symmetry_space_group_name_H-M    P1
_symmetry_Int_Tables_number       1
_space_group_crystal_system       triclinic
_cell_length_a                    19.936139
_cell_length_b                    6.882614
_cell_length_c                    18.134436
_cell_angle_alpha                 89.749698
_cell_angle_beta                  104.038879
_cell_angle_gamma                 90.155203
_cell_volume                      2413.92784238

loop_
_atom_site_label
_atom_site_type_symbol
_atom_type_description
_atom_site_fract_x
_atom_site_fract_y
_atom_site_fract_z
_atom_type_partial_charge
O1    O     O_R   0.312200 0.620210 0.189560 -0.546160
O2    O     O_R   0.687800 0.379790 0.810440 -0.528476
O3    O     O_R   0.187800 0.120210 0.310440 -0.546040
O4    O     O_R   0.812200 0.879790 0.689560 -0.539053
O5    O     O_R   0.171590 0.286140 0.165000 -0.538688
O6    O     O_R   0.828410 0.713860 0.835000 -0.531297
O7    O     O_R   0.328410 0.786140 0.335000 -0.539093
O8    O     O_R   0.671590 0.213860 0.665000 -0.528638
C1    C     C_R   0.145699 0.459596 0.143816 0.722499
C2    C     C_R   0.853931 0.540412 0.856651 0.691304
C3    C     C_R   0.353746 0.959647 0.356903 0.688786
C4    C     C_R   0.645565 0.040573 0.643961 0.714092
O9    O     O_R   0.310670 0.290220 0.180540 -0.543340
O10   O     O_R   0.689330 0.709780 0.819460 -0.548630
O11   O     O_R   0.189330 0.790220 0.319460 -0.525833
O12   O     O_R   0.810670 0.209780 0.680540 -0.548407
O13   O     O_R   0.327870 0.124170 0.326080 -0.529022
O14   O     O_R   0.672130 0.875830 0.673920 -0.539334
O15   O     O_R   0.172130 0.624170 0.173920 -0.528073
O16   O     O_R   0.827870 0.375830 0.826080 -0.536712
C5    C     C_R   0.332812 0.459583 0.165985 0.747230
C6    C     C_R   0.667438 0.540476 0.834038 0.745801
C7    C     C_R   0.168082 0.958751 0.334803 0.752656
C8    C     C_R   0.833196 0.041560 0.666388 0.748815
O17   O     O_3   0.255480 0.455050 0.297740 -0.362493
O18   O     O_3   0.744520 0.544950 0.702260 -0.367985
O19   O     O_3   0.244520 0.955050 0.202260 -0.370226
O20   O     O_3   0.755480 0.044950 0.797740 -0.363374
V1    V     V_3+5 0.248980 0.178550 0.241140 1.424004
V2    V     V_3+5 0.751020 0.821450 0.758860 1.427792
V3    V     V_3+5 0.251020 0.678550 0.258860 1.452772
V4    V     V_3+5 0.748980 0.321450 0.741140 1.442557
C9    C     C_R   0.952421 0.096630 0.645176 0.362970
C10   C     C_R   0.049706 0.905260 0.355736 0.375979
C11   C     C_R   0.546364 0.496228 0.849471 0.384369
C12   C     C_R   0.452332 0.526480 0.148197 0.366594
C13   C     C_R   0.883168 0.033899 0.617739 -0.193318
C14   C     C_R   0.118632 0.967290 0.383435 -0.171773
C15   C     C_R   0.617389 0.529516 0.882054 -0.182031
C16   C     C_R   0.382846 0.470580 0.117485 -0.192175
C17   C     C_R   0.861639 0.960129 0.543754 -0.250412
C18   C     C_R   0.140409 0.039508 0.457509 -0.262090
C19   C     C_R   0.641075 0.548984 0.960942 -0.255170
C20   C     C_R   0.361167 0.422800 0.040210 -0.257197
C21   C     C_R   0.907906 0.946909 0.496316 0.038918
C22   C     C_R   0.094494 0.049250 0.505333 0.039508
C23   C     C_R   0.595199 0.533677 0.008670 0.042074
C24   C     C_R   0.407320 0.432907 0.992464 0.037334
C25   C     C_R   0.977591 0.004424 0.524368 -0.046264
C26   C     C_R   0.024938 0.990118 0.477501 -0.044094
C27   C     C_R   0.524513 0.493010 0.976631 -0.049189
C28   C     C_R   0.477463 0.480874 0.023902 -0.047700
C29   C     C_R   0.000170 0.075113 0.599393 0.008221
C30   C     C_R   0.002780 0.915612 0.402984 -0.013716
C31   C     C_R   0.500587 0.467476 0.897245 -0.006280
C32   C     C_R   0.500524 0.519149 0.102476 0.005592
C33   C     C_R   0.885855 0.877110 0.421291 0.403257
C34   C     C_R   0.116909 0.116412 0.580592 0.393512
C35   C     C_R   0.618914 0.554530 0.088036 0.397273
C36   C     C_R   0.384911 0.393770 0.914028 0.395079
C37   C     C_R   0.933849 0.855002 0.376638 -0.270636
C38   C     C_R   0.070379 0.121992 0.627483 -0.272896
C39   C     C_R   0.571398 0.550622 0.133837 -0.279996
C40   C     C_R   0.431078 0.415925 0.867055 -0.274266
H1    H     H_    0.808362 0.913865 0.523307 0.168703
H2    H     H_    0.193660 0.086182 0.477819 0.166513
H3    H     H_    0.695627 0.575745 0.984827 0.165289
H4    H     H_    0.307679 0.381530 0.017266 0.167242
H5    H     H_    0.916276 0.792794 0.320491 0.163406
H6    H     H_    0.089910 0.163759 0.686187 0.165309
H7    H     H_    0.590568 0.573272 0.194299 0.165032
H8    H     H_    0.411917 0.392863 0.806570 0.167978
C41   C     C_1   0.582854 0.027723 0.582016 -0.189773
C42   C     C_1   0.416025 0.972573 0.419438 -0.195281
C43   C     C_1   0.916405 0.527539 0.918930 -0.198179
C44   C     C_1   0.083216 0.472792 0.081582 -0.203844
C45   C     C_1   0.530335 0.011071 0.530842 0.002159
C46   C     C_1   0.468417 0.989152 0.470786 0.002552
C47   C     C_1   0.968887 0.511203 0.970175 0.012324
C48   C     C_1   0.030810 0.489574 0.030246 -0.009200
O21   O     O_3   0.975513 0.158783 0.719602 -0.586057
C49   C     C_3   0.960401 0.358264 0.725351 0.103080
H9    H     H_    0.940813 0.374233 0.777072 0.150048
H10   H     H_    0.919546 0.416372 0.676830 0.108629
C50   C     C_3   0.025917 0.481737 0.734776 -0.382804
H11   H     H_    0.069343 0.412644 0.776833 0.214918
H12   H     H_    0.039948 0.492841 0.679248 0.186075
C51   C     C_3   0.014891 0.685918 0.761876 -0.743500
H13   H     H_    0.967884 0.750896 0.724538 0.238212
H14   H     H_    0.060230 0.778617 0.760368 0.243087
H15   H     H_    0.008652 0.681042 0.821056 0.226687
O22   O     O_3   0.029034 0.827385 0.283479 -0.578031
C52   C     C_3   0.002064 0.977648 0.231450 0.044401
H16   H     H_    0.044330 0.077155 0.224698 0.124241
H17   H     H_    0.961938 0.063447 0.250439 0.114796
C53   C     C_3   0.968709 0.887122 0.154476 -0.282438
H18   H     H_    0.008522 0.805919 0.133693 0.207061
H19   H     H_    0.927728 0.783270 0.161098 0.196465
C54   C     C_3   0.936778 0.041392 0.095883 -0.819080
H20   H     H_    0.895883 0.122478 0.114849 0.228216
H21   H     H_    0.913254 0.970629 0.040717 0.237774
H22   H     H_    0.977144 0.144609 0.087484 0.238893
O23   O     O_3   0.521939 0.483785 0.771178 -0.586886
C55   C     C_3   0.514810 0.672760 0.738502 0.072570
H23   H     H_    0.521331 0.659852 0.679586 0.150898
H24   H     H_    0.555162 0.777064 0.768206 0.109772
C56   C     C_3   0.442856 0.756398 0.734989 -0.345057
H25   H     H_    0.402741 0.653040 0.704775 0.209041
H26   H     H_    0.436296 0.777607 0.793511 0.194734
C57   C     C_3   0.432524 0.951928 0.693769 -0.806194
H27   H     H_    0.471973 0.058211 0.723171 0.248766
H28   H     H_    0.380425 0.009522 0.693254 0.236839
H29   H     H_    0.436415 0.934753 0.634108 0.238648
O24   O     O_3   0.474550 0.573462 0.224424 -0.586484
C58   C     C_3   0.460144 0.771323 0.235395 0.103894
H30   H     H_    0.446094 0.780077 0.290657 0.147690
H31   H     H_    0.415863 0.832042 0.191475 0.112212
C59   C     C_3   0.524070 0.898052 0.239713 -0.393863
H32   H     H_    0.568628 0.832942 0.281122 0.215381
H33   H     H_    0.535833 0.905273 0.182974 0.203997
C60   C     C_3   0.512841 0.104260 0.264635 -0.756421
H34   H     H_    0.465379 0.166715 0.227091 0.240921
H35   H     H_    0.557752 0.196649 0.261207 0.237499
H36   H     H_    0.507619 0.104260 0.324173 0.231479
O25   O     O_3   0.817632 0.823195 0.392439 -0.555665
C61   C     C_3   0.785821 0.960679 0.336848 0.079017
H37   H     H_    0.808315 0.955562 0.286381 0.118323
H38   H     H_    0.791155 0.110760 0.360567 0.125492
C62   C     C_3   0.709297 0.914213 0.310348 -0.696844
H39   H     H_    0.684820 0.922470 0.359122 0.218889
H40   H     H_    0.683900 0.020560 0.266178 0.175678
H41   H     H_    0.702029 0.765812 0.285819 0.234733
O26   O     O_3   0.185721 0.163291 0.610197 -0.558524
C63   C     C_3   0.192000 0.367265 0.617050 0.082683
H42   H     H_    0.165263 0.422570 0.659963 0.119083
H43   H     H_    0.170295 0.440257 0.561364 0.127270
C64   C     C_3   0.268118 0.421083 0.643093 -0.697289
H44   H     H_    0.296369 0.369974 0.601059 0.219720
H45   H     H_    0.273554 0.581351 0.648531 0.187865
H46   H     H_    0.291217 0.353236 0.699133 0.228005
O27   O     O_3   0.687861 0.594936 0.120237 -0.557178
C65   C     C_3   0.719256 0.428924 0.160058 0.082087
H47   H     H_    0.712309 0.299486 0.122150 0.126293
H48   H     H_    0.697506 0.397089 0.209866 0.117583
C66   C     C_3   0.796428 0.465909 0.189230 -0.705336
H49   H     H_    0.805273 0.592582 0.228155 0.233414
H50   H     H_    0.821649 0.336159 0.220654 0.167498
H51   H     H_    0.820087 0.495733 0.140823 0.215779
O28   O     O_3   0.316205 0.350435 0.882034 -0.558127
C67   C     C_3   0.310502 0.151443 0.862759 0.075596
H52   H     H_    0.331668 0.058661 0.913606 0.124885
H53   H     H_    0.338102 0.118259 0.817793 0.125150
C68   C     C_3   0.234569 0.100163 0.832231 -0.672553
H54   H     H_    0.211876 0.190398 0.781467 0.231728
H55   H     H_    0.229415 0.944506 0.815892 0.190122
H56   H     H_    0.205705 0.126697 0.876462 0.215375

loop_
_geom_bond_atom_site_label_1
_geom_bond_atom_site_label_2
_ccdc_geom_bond_type
C34   C38   A    
O1    C5    A    
C52   H16   S    
O19   V1    S    
O13   V1    S    
O3    C7    A    
C12   O24   S    
C63   C64   S    
C55   H24   S    
C66   H49   S    
C50   H11   S    
O7    C3    A    
C64   H45   S    
C21   C33   A    
C26   C30   A    
O9    V1    S    
C14   C18   A    
C11   O23   S    
C33   O25   S    
O4    C8    A    
C58   H30   S    
C53   C54   S    
O1    V3    S    
C38   H6    S    
O2    V4    S    
C18   C22   A    
C33   C37   A    
O3    V1    S    
C59   H32   S    
C60   H36   S    
C57   H28   S    
C57   H27   S    
C1    O15   A    
C65   H47   S    
C2    O16   A    
C58   H31   S    
C67   C68   S    
C53   H19   S    
O2    C6    A    
C56   H25   S    
O14   V2    S    
C1    C44   S    
C21   C25   A    
C68   H55   S    
C16   C20   A    
C27   C31   A    
C62   H41   S    
O11   C7    A    
O15   V3    S    
O12   C8    A    
C4    C41   S    
C22   C34   A    
O17   V1    S    
C56   H26   S    
C65   C66   S    
O10   V2    S    
C55   H23   S    
C66   H50   S    
C24   C36   A    
O5    V1    S    
C50   H12   S    
C34   O26   S    
C9    C29   A    
C64   H46   S    
O7    V3    S    
C30   C37   A    
C11   C31   A    
C27   C28   A    
O8    V4    S    
O20   V4    S    
O18   V4    S    
C17   H1    S    
C61   C62   S    
C45   C46   S    
O19   V3    S    
C49   H9    S    
O21   C49   S    
C59   C60   S    
C11   C15   A    
O5    C1    A    
C12   C32   A    
C2    C43   S    
C54   H20   S    
C51   H15   S    
C12   C16   A    
O8    C4    A    
C58   C59   S    
C53   H18   S    
C8    C13   S    
C32   C39   A    
O9    C5    A    
C68   H56   S    
O11   V3    S    
C57   H29   S    
C60   H34   S    
C59   H33   S    
C19   H3    S    
C54   H21   S    
C51   H14   S    
C10   C30   A    
C52   C53   S    
C49   H10   S    
O25   C61   S    
C56   C57   S    
C65   H48   S    
C20   H4    S    
C49   C50   S    
C66   H51   S    
C9    C13   A    
C62   H39   S    
O16   V4    S    
C50   C51   S    
C37   H5    S    
C3    O13   A    
C61   H38   S    
O6    V2    S    
C10   C14   A    
O17   V3    S    
C44   C48   T    
C39   H7    S    
C3    C42   S    
O6    C2    A    
C23   C27   A    
O24   C58   S    
C63   H42   S    
C31   C40   A    
O12   V4    S    
C7    C14   S    
C64   H44   S    
C22   C26   A    
C35   C39   A    
C36   C40   A    
O10   C6    A    
O20   V2    S    
C9    O21   S    
C17   C21   A    
O28   C67   S    
O26   C63   S    
C5    C16   S    
C43   C47   T    
C61   H37   S    
C25   C29   A    
C6    C15   S    
O22   C52   S    
C63   H43   S    
C67   H53   S    
C36   O28   S    
C40   H8    S    
C13   C17   A    
C10   O22   S    
C60   H35   S    
C23   C35   A    
C47   C48   S    
C28   C32   A    
C24   C28   A    
C54   H22   S    
C51   H13   S    
C35   O27   S    
C29   C38   A    
C52   H17   S    
C25   C26   A    
C42   C46   T    
C15   C19   A    
C4    O14   A    
O23   C55   S    
C18   H2    S    
C41   C45   T    
C67   H52   S    
C68   H54   S    
O27   C65   S    
C19   C23   A    
C55   C56   S    
O4    V2    S    
C20   C24   A    
C62   H40   S    
O18   V2    S    
