data_str_m2_o10_o28_f0_pcu.sym.158
_audit_creation_date              2012-12-10T16:50:10-0500
_audit_creation_method            fapswitch 2.2
_symmetry_space_group_name_H-M    P1
_symmetry_Int_Tables_number       1
_space_group_crystal_system       triclinic
_cell_length_a                    23.527795
_cell_length_b                    8.73782
_cell_length_c                    7.521229
_cell_angle_alpha                 102.81853
_cell_angle_beta                  94.806093
_cell_angle_gamma                 93.623829
_cell_volume                      1497.0571355

loop_
_atom_site_label
_atom_site_type_symbol
_atom_type_description
_atom_site_fract_x
_atom_site_fract_y
_atom_site_fract_z
_atom_type_partial_charge
C1    C     C_R   0.497563 0.200456 0.454010 0.838015
C2    C     C_R   0.502453 0.799548 0.545990 0.837920
C3    C     C_R   0.243109 0.630744 0.470321 -0.080489
C4    C     C_R   0.756900 0.369309 0.529606 -0.080525
C5    C     C_R   0.302350 0.628589 0.472555 -0.196661
C6    C     C_R   0.697658 0.371439 0.527389 -0.196651
C7    C     C_R   0.329240 0.496897 0.503047 -0.071275
C8    C     C_R   0.670761 0.503135 0.496952 -0.071269
C9    C     C_R   0.296039 0.365824 0.530696 -0.076974
C10   C     C_R   0.703954 0.634235 0.469338 -0.076956
C11   C     C_R   0.237146 0.372200 0.538168 -0.110707
C12   C     C_R   0.762847 0.627883 0.461840 -0.110701
C13   C     C_R   0.210041 0.503185 0.505203 0.307860
C14   C     C_R   0.789961 0.496894 0.494751 0.307858
C15   C     C_2   0.488569 0.033479 0.433277 -0.246455
C16   C     C_2   0.511474 0.966526 0.566715 -0.246566
C17   C     C_R   0.391375 0.497655 0.500860 0.804425
C18   C     C_R   0.608625 0.502348 0.499140 0.804480
C19   C     C_R   0.885334 0.622490 0.605747 0.537364
C20   C     C_R   0.114668 0.377606 0.394169 0.537359
C21   C     C_R   0.874880 0.371866 0.394981 0.557488
C22   C     C_R   0.125121 0.628240 0.604918 0.557492
C23   C     C_R   0.934437 0.368699 0.399212 -0.019116
C24   C     C_R   0.065564 0.631410 0.600678 -0.019123
C25   C     C_R   0.969944 0.500189 0.500322 -0.020052
C26   C     C_R   0.030058 0.499917 0.499571 -0.020052
C27   C     C_R   0.945408 0.631833 0.601407 -0.057276
C28   C     C_R   0.054593 0.368272 0.398489 -0.057276
C29   C     C_R   0.958874 0.236163 0.304912 -0.180257
C30   C     C_R   0.041126 0.763949 0.694968 -0.180251
C31   C     C_R   0.018139 0.233421 0.305809 -0.038410
C32   C     C_R   0.981861 0.766690 0.694072 -0.038398
Cu1   Cu    Cu3+1 0.506340 0.517380 0.684380 1.005400
Cu2   Cu    Cu3+1 0.493660 0.482620 0.315620 1.005335
H1    H     H_    0.931734 0.132288 0.232683 0.202013
H2    H     H_    0.068266 0.867829 0.767189 0.202013
H3    H     H_    0.222963 0.731607 0.440865 0.177373
H4    H     H_    0.777052 0.268442 0.559022 0.177374
H5    H     H_    0.327173 0.729338 0.449047 0.210827
H6    H     H_    0.672842 0.270666 0.550862 0.210827
H7    H     H_    0.211827 0.272677 0.563697 0.167938
H8    H     H_    0.788159 0.727426 0.436327 0.167947
N1    N     N_R   0.851380 0.496627 0.498788 -0.459006
N2    N     N_R   0.148622 0.503469 0.501132 -0.459012
N3    N     N_2   0.484110 0.456420 0.038520 -0.227520
N4    N     N_2   0.515890 0.543580 0.961480 -0.227512
O1    O     O_R   0.504120 0.286130 0.619770 -0.590581
O2    O     O_R   0.495880 0.713870 0.380230 -0.590691
O3    O     O_R   0.493410 0.256770 0.308360 -0.560301
O4    O     O_R   0.506590 0.743230 0.691640 -0.560141
O5    O     O_R   0.423230 0.514630 0.655730 -0.600772
O6    O     O_R   0.576770 0.485370 0.344270 -0.600782
O7    O     O_R   0.412530 0.485280 0.344320 -0.570291
O8    O     O_R   0.587470 0.514720 0.655680 -0.570228
O9    O     O_2   0.860928 0.735896 0.719256 -0.523951
O10   O     O_2   0.139077 0.264191 0.280681 -0.523942
O11   O     O_2   0.840701 0.251651 0.286058 -0.526275
O12   O     O_2   0.159300 0.748461 0.713832 -0.526262
C33   C     C_1   0.039500 0.086304 0.219801 0.345998
N5    N     N_1   0.056516 0.968124 0.151996 -0.255558
C34   C     C_1   0.960499 0.913813 0.780054 0.345983
N6    N     N_1   0.943482 0.031999 0.847835 -0.255563
C35   C     C_1   0.319909 0.218594 0.534912 0.262528
N7    N     N_1   0.338073 0.098775 0.535736 -0.237104
C36   C     C_1   0.680075 0.781462 0.465173 0.262472
N8    N     N_1   0.661904 0.901278 0.464390 -0.237281
C37   C     C_2   0.446069 0.949563 0.277502 0.889234
O13   O     O_2   0.405452 0.866686 0.305228 -0.600219
O14   O     O_R   0.451949 0.969071 0.100258 -0.699145
H9    H     H_    0.420622 0.906568 0.006738 0.343302
C38   C     C_2   0.553997 0.050426 0.722453 0.889306
O15   O     O_2   0.594537 0.133582 0.694757 -0.600202
O16   O     O_R   0.548242 0.030565 0.899599 -0.699151
H10   H     H_    0.579573 0.093095 0.993079 0.343318
C39   C     C_1   0.449228 0.331769 0.929731 0.606619
N9    N     N_1   0.419844 0.226098 0.842586 -0.308052
C40   C     C_1   0.550780 0.668213 0.070273 0.606866
N10   N     N_1   0.580171 0.773867 0.157424 -0.307953

loop_
_geom_bond_atom_site_label_1
_geom_bond_atom_site_label_2
_ccdc_geom_bond_type
O16   H10   S    
C20   O10   S    
C17   O5    A    
C18   O6    A    
C40   N10   T    
C23   C29   A    
C24   C26   A    
C32   C34   S    
C15   C16   D    
C31   C33   S    
C12   H8    S    
C2    O4    A    
C21   N1    A    
C22   N2    A    
C7    C17   S    
C1    C15   S    
C19   C27   A    
C3    C13   A    
C33   N5    T    
Cu1   N4    S    
C34   N6    T    
C16   C38   S    
C20   N2    A    
C19   N1    A    
C37   O13   D    
C4    C6    A    
C5    C7    A    
C1    O1    A    
C6    C8    A    
C20   C28   A    
C2    O2    A    
C25   C26   A    
N3    N4    D    
C8    C18   S    
Cu1   O5    S    
C37   O14   S    
C39   N9    T    
C21   O11   S    
C15   C37   S    
Cu1   Cu2   S    
Cu2   N3    S    
C9    C11   A    
C10   C12   A    
C12   C14   A    
C21   C23   A    
Cu1   O1    S    
C22   C24   A    
Cu2   O2    S    
C17   O7    A    
C2    C16   S    
C38   O16   S    
C10   C36   S    
C19   O9    S    
Cu1   O8    S    
C7    C9    A    
Cu2   O3    S    
C27   C32   A    
C9    C35   S    
Cu2   O6    S    
C28   C31   A    
C4    H4    S    
C3    C5    A    
C22   O12   S    
N4    C40   S    
C25   C27   A    
C29   H1    S    
C26   C28   A    
C30   H2    S    
N3    C39   S    
C5    H5    S    
Cu1   O4    S    
C38   O15   D    
C29   C31   A    
C30   C32   A    
C11   C13   A    
C11   H7    S    
C6    H6    S    
C23   C25   A    
C4    C14   A    
O14   H9    S    
C24   C30   A    
C18   O8    A    
C35   N7    T    
C3    H3    S    
Cu2   O7    S    
C8    C10   A    
C36   N8    T    
C1    O3    A    
C13   N2    S    
C14   N1    S    
