data_str_m4_o1_o24_f0_acs.sym.135
_audit_creation_date              2012-12-11T14:52:28-0500
_audit_creation_method            fapswitch 2.2
_symmetry_space_group_name_H-M    P1
_symmetry_Int_Tables_number       1
_space_group_crystal_system       triclinic
_cell_length_a                    18.989144
_cell_length_b                    11.092257
_cell_length_c                    18.868757
_cell_angle_alpha                 90.052379
_cell_angle_beta                  90.192455
_cell_angle_gamma                 89.961278
_cell_volume                      3974.34782607

loop_
_atom_site_label
_atom_site_type_symbol
_atom_type_description
_atom_site_fract_x
_atom_site_fract_y
_atom_site_fract_z
_atom_type_partial_charge
C1    C     C_R   0.274369 0.033032 0.857017 0.603069
C2    C     C_R   0.725639 0.033007 0.142974 0.607128
C3    C     C_R   0.774369 0.533032 0.857017 0.603077
C4    C     C_R   0.225639 0.533007 0.142974 0.607114
C5    C     C_3   0.526673 0.730163 0.969452 0.000984
C6    C     C_3   0.473559 0.730100 0.030336 0.001111
C7    C     C_3   0.026672 0.230163 0.969452 0.000984
C8    C     C_3   0.973559 0.230100 0.030337 0.001110
C9    C     C_R   0.301545 0.523175 0.954577 -0.118652
C10   C     C_R   0.698551 0.523082 0.045395 -0.118718
C11   C     C_R   0.801546 0.023175 0.954577 -0.118652
C12   C     C_R   0.198551 0.023082 0.045395 -0.118717
C13   C     C_R   0.297504 0.496756 0.027013 0.058715
C14   C     C_R   0.702567 0.496726 0.972934 0.058393
C15   C     C_R   0.797504 0.996756 0.027013 0.058709
C16   C     C_R   0.202567 0.996726 0.972934 0.058395
C17   C     C_R   0.240195 0.550303 0.066655 0.055540
C18   C     C_R   0.759835 0.550289 0.933343 0.056036
C19   C     C_R   0.740195 0.050303 0.066655 0.055539
C20   C     C_R   0.259835 0.050289 0.933343 0.056037
C21   C     C_R   0.184720 0.604576 0.028487 -0.150833
C22   C     C_R   0.815300 0.604480 0.971544 -0.150221
C23   C     C_R   0.684720 0.104576 0.028487 -0.150833
C24   C     C_R   0.315301 0.104480 0.971544 -0.150218
C25   C     C_R   0.186765 0.614448 0.955924 -0.104751
C26   C     C_R   0.813276 0.614313 0.044107 -0.105136
C27   C     C_R   0.686765 0.114448 0.955924 -0.104749
C28   C     C_R   0.313276 0.114313 0.044107 -0.105138
C29   C     C_R   0.247203 0.582319 0.919418 0.043679
C30   C     C_R   0.752865 0.582190 0.080588 0.043375
C31   C     C_R   0.747203 0.082319 0.919418 0.043681
C32   C     C_R   0.252865 0.082189 0.080588 0.043372
C33   C     C_R   0.509691 0.720211 0.538079 -0.011444
C34   C     C_R   0.496290 0.721007 0.465107 -0.000084
C35   C     C_R   0.009664 0.220207 0.538064 -0.011438
C36   C     C_R   0.996258 0.220991 0.465091 -0.000125
C37   C     C_R   0.502436 0.830962 0.427318 -0.031421
C38   C     C_R   0.504660 0.829856 0.576417 -0.002944
C39   C     C_R   0.002397 0.330943 0.427299 -0.031188
C40   C     C_R   0.004628 0.329857 0.576399 -0.002919
C41   C     C_R   0.503872 0.941515 0.465180 -0.059472
C42   C     C_R   0.507660 0.941063 0.539875 -0.025696
C43   C     C_R   0.003812 0.441492 0.465153 -0.059465
C44   C     C_R   0.007594 0.441060 0.539846 -0.025978
C45   C     C_R   0.465210 0.821256 0.857367 0.609520
C46   C     C_R   0.534910 0.821196 0.142580 0.610209
C47   C     C_R   0.965210 0.321256 0.857367 0.609516
C48   C     C_R   0.034910 0.321196 0.142580 0.610208
C49   C     C_R   0.204304 0.679790 0.528660 -0.090314
C50   C     C_R   0.790227 0.690758 0.473273 -0.055739
C51   C     C_R   0.704272 0.179726 0.528673 -0.090419
C52   C     C_R   0.290234 0.190757 0.473272 -0.055724
C53   C     C_R   0.204632 0.677743 0.455857 -0.012798
C54   C     C_R   0.791693 0.683279 0.545974 0.001849
C55   C     C_R   0.704600 0.177698 0.455870 -0.012793
C56   C     C_R   0.291705 0.183276 0.545973 0.001952
C57   C     C_R   0.249099 0.594241 0.421654 0.015234
C58   C     C_R   0.749894 0.594705 0.578925 0.014208
C59   C     C_R   0.749087 0.094234 0.421659 0.015237
C60   C     C_R   0.249896 0.094718 0.578927 0.014185
C61   C     C_R   0.300368 0.531100 0.460615 -0.099014
C62   C     C_R   0.700247 0.529019 0.539177 -0.095547
C63   C     C_R   0.800368 0.031113 0.460616 -0.099048
C64   C     C_R   0.200237 0.029055 0.539183 -0.095558
C65   C     C_R   0.304878 0.545744 0.533117 -0.146299
C66   C     C_R   0.695538 0.545272 0.466850 -0.145408
C67   C     C_R   0.804881 0.045757 0.533117 -0.146295
C68   C     C_R   0.195523 0.045316 0.466858 -0.145414
C69   C     C_R   0.254315 0.614293 0.567686 -0.000618
C70   C     C_R   0.743592 0.619938 0.433367 0.000262
C71   C     C_R   0.754305 0.114268 0.567693 -0.000642
C72   C     C_R   0.243588 0.119954 0.433370 0.000137
C73   C     C_R   0.259295 0.633184 0.849604 0.596160
C74   C     C_R   0.740725 0.633149 0.150405 0.593512
C75   C     C_R   0.759295 0.133184 0.849604 0.596168
C76   C     C_R   0.240725 0.133149 0.150405 0.593499
C77   C     C_R   0.270890 0.047554 0.647194 0.542834
C78   C     C_R   0.729028 0.047706 0.352876 0.541459
C79   C     C_R   0.770890 0.547551 0.647193 0.542837
C80   C     C_R   0.229030 0.547707 0.352875 0.541416
C81   C     C_R   0.472073 0.823365 0.647770 0.590331
C82   C     C_R   0.529556 0.823643 0.353505 0.559724
C83   C     C_R   0.972066 0.323365 0.647764 0.590287
C84   C     C_R   0.029546 0.323639 0.353498 0.559827
C85   C     C_R   0.261276 0.642189 0.641861 0.550387
C86   C     C_R   0.738049 0.644475 0.358791 0.543337
C87   C     C_R   0.761273 0.142181 0.641864 0.550396
C88   C     C_R   0.238047 0.144483 0.358794 0.543248
C89   C     C_3   0.473011 0.928405 0.031282 -0.167432
C90   C     C_3   0.527047 0.928471 0.968823 -0.166066
C91   C     C_3   0.973011 0.428405 0.031282 -0.167426
C92   C     C_3   0.027047 0.428471 0.968823 -0.166070
C93   C     C_3   0.430397 0.828357 0.993809 0.027093
C94   C     C_3   0.569751 0.828374 0.006136 0.027454
C95   C     C_3   0.930396 0.328357 0.993809 0.027094
C96   C     C_3   0.069751 0.328374 0.006136 0.027450
C97   C     C_3   0.483945 0.828943 0.932408 -0.017648
C98   C     C_3   0.516199 0.828820 0.067538 -0.017876
C99   C     C_3   0.983945 0.328943 0.932408 -0.017649
C100  C     C_3   0.016199 0.328820 0.067538 -0.017876
Cr1   Cr    Cr6+3 0.229630 0.835900 0.747350 1.120597
Cr2   Cr    Cr6+3 0.770370 0.835900 0.252650 1.114268
Cr3   Cr    Cr6+3 0.729630 0.335900 0.747350 1.120596
Cr4   Cr    Cr6+3 0.270370 0.335900 0.252650 1.114161
Cr5   Cr    Cr6+3 0.387410 0.989850 0.750850 1.094542
Cr6   Cr    Cr6+3 0.612590 0.989850 0.249150 1.051526
Cr7   Cr    Cr6+3 0.887410 0.489850 0.750850 1.094482
Cr8   Cr    Cr6+3 0.112590 0.489850 0.249150 1.051714
Cr9   Cr    Cr6+3 0.385800 0.677120 0.749340 1.094223
Cr10  Cr    Cr6+3 0.614200 0.677120 0.250660 1.092692
Cr11  Cr    Cr6+3 0.885800 0.177120 0.749340 1.094232
Cr12  Cr    Cr6+3 0.114200 0.177120 0.250660 1.092707
H1    H     H_    0.167165 0.739353 0.554533 0.186861
H2    H     H_    0.824407 0.755852 0.448113 0.197445
H3    H     H_    0.667118 0.239256 0.554550 0.186816
H4    H     H_    0.324421 0.255836 0.448110 0.197482
H5    H     H_    0.335353 0.467094 0.435571 0.185971
H6    H     H_    0.667309 0.460917 0.563242 0.184959
H7    H     H_    0.835362 0.967126 0.435568 0.185993
H8    H     H_    0.167290 0.960967 0.563251 0.184977
H9    H     H_    0.347102 0.503608 0.562259 0.207919
H10   H     H_    0.655534 0.498973 0.436813 0.207889
H11   H     H_    0.847119 0.003654 0.562254 0.208016
H12   H     H_    0.155505 0.999045 0.436824 0.207987
H13   H     H_    0.451852 0.009100 0.058555 0.132546
H14   H     H_    0.548141 0.009228 0.941693 0.134537
H15   H     H_    0.951851 0.509100 0.058555 0.132557
H16   H     H_    0.048141 0.509228 0.941693 0.134533
H17   H     H_    0.347532 0.497135 0.924413 0.197718
H18   H     H_    0.652596 0.497065 0.075555 0.197482
H19   H     H_    0.847532 0.997135 0.924413 0.197719
H20   H     H_    0.152596 0.997065 0.075555 0.197483
H21   H     H_    0.137497 0.637023 0.054213 0.171325
H22   H     H_    0.862497 0.636898 0.945840 0.171397
H23   H     H_    0.637497 0.137023 0.054213 0.171324
H24   H     H_    0.362497 0.136898 0.945840 0.171396
H25   H     H_    0.142523 0.654762 0.928724 0.160764
H26   H     H_    0.857496 0.654652 0.071326 0.159268
H27   H     H_    0.642523 0.154762 0.928724 0.160767
H28   H     H_    0.357496 0.154651 0.071326 0.159260
O1    O     O_R   0.214270 0.709000 0.827470 -0.463629
O2    O     O_R   0.785730 0.709000 0.172530 -0.468074
O3    O     O_R   0.714270 0.209000 0.827470 -0.463622
O4    O     O_R   0.285730 0.209000 0.172530 -0.468098
O5    O     O_R   0.445950 0.919440 0.676520 -0.463626
O6    O     O_R   0.554050 0.919440 0.323480 -0.525437
O7    O     O_R   0.945950 0.419440 0.676520 -0.463718
O8    O     O_R   0.054050 0.419440 0.323480 -0.525195
O9    O     O_R   0.456730 0.717630 0.669840 -0.492038
O10   O     O_R   0.543270 0.717630 0.330160 -0.476790
O11   O     O_R   0.956730 0.217630 0.669840 -0.492012
O12   O     O_R   0.043270 0.217630 0.330160 -0.476857
O13   O     O_R   0.320620 0.625640 0.672920 -0.515537
O14   O     O_R   0.679380 0.625640 0.327080 -0.515506
O15   O     O_R   0.820620 0.125640 0.672920 -0.515533
O16   O     O_R   0.179380 0.125640 0.327080 -0.515477
O17   O     O_3   0.334280 0.834290 0.749180 -0.288542
O18   O     O_3   0.665720 0.834290 0.250820 -0.279417
O19   O     O_3   0.834280 0.334290 0.749180 -0.288532
O20   O     O_3   0.165720 0.334290 0.250820 -0.279433
O21   O     O_R   0.236160 0.958490 0.823130 -0.441525
O22   O     O_R   0.763840 0.958490 0.176870 -0.439383
O23   O     O_R   0.736160 0.458490 0.823130 -0.441522
O24   O     O_R   0.263840 0.458490 0.176870 -0.439386
O25   O     O_R   0.332080 0.075470 0.831280 -0.528160
O26   O     O_R   0.667920 0.075470 0.168720 -0.526604
O27   O     O_R   0.832080 0.575470 0.831280 -0.528153
O28   O     O_R   0.167920 0.575470 0.168720 -0.526603
O29   O     O_R   0.446300 0.918110 0.826620 -0.496159
O30   O     O_R   0.553700 0.918110 0.173380 -0.499337
O31   O     O_R   0.946300 0.418110 0.826620 -0.496169
O32   O     O_R   0.053700 0.418110 0.173380 -0.499320
O33   O     O_R   0.457110 0.716200 0.831760 -0.480494
O34   O     O_R   0.542890 0.716200 0.168240 -0.478961
O35   O     O_R   0.957110 0.216200 0.831760 -0.480490
O36   O     O_R   0.042890 0.216200 0.168240 -0.478963
O37   O     O_R   0.320980 0.624310 0.823030 -0.499230
O38   O     O_R   0.679020 0.624310 0.176970 -0.498263
O39   O     O_R   0.820980 0.124310 0.823030 -0.499229
O40   O     O_R   0.179020 0.124310 0.176970 -0.498255
O41   O     O_R   0.213890 0.710430 0.665540 -0.507284
O42   O     O_R   0.786110 0.710430 0.334460 -0.509499
O43   O     O_R   0.713890 0.210430 0.665540 -0.507315
O44   O     O_R   0.286110 0.210430 0.334460 -0.509654
O45   O     O_R   0.235810 0.959820 0.673020 -0.502810
O46   O     O_R   0.764190 0.959820 0.326980 -0.501383
O47   O     O_R   0.735810 0.459820 0.673020 -0.502790
O48   O     O_R   0.264190 0.459820 0.326980 -0.501397
O49   O     O_R   0.331700 0.076900 0.669350 -0.522663
O50   O     O_R   0.668300 0.076900 0.330650 -0.548956
O51   O     O_R   0.831700 0.576900 0.669350 -0.522709
O52   O     O_R   0.168300 0.576900 0.330650 -0.548897
C101  C     C_2   0.352594 0.820753 0.991327 0.554346
O53   O     O_2   0.322529 0.814846 0.934431 -0.548409
O54   O     O_R   0.314957 0.817440 0.054662 -0.667002
H29   H     H_    0.262752 0.805655 0.046908 0.335564
C102  C     C_2   0.647562 0.820790 0.008586 0.554711
O55   O     O_2   0.677649 0.814799 0.065463 -0.546933
O56   O     O_R   0.685182 0.817602 0.945233 -0.665691
H30   H     H_    0.737399 0.805791 0.952946 0.335570
C103  C     C_2   0.852594 0.320753 0.991327 0.554347
O57   O     O_2   0.822529 0.314846 0.934431 -0.548410
O58   O     O_R   0.814957 0.317440 0.054662 -0.666993
H31   H     H_    0.762752 0.305655 0.046908 0.335564
C104  C     C_2   0.147561 0.320790 0.008586 0.554710
O59   O     O_2   0.177649 0.314799 0.065463 -0.546930
O60   O     O_R   0.185182 0.317602 0.945234 -0.665695
H32   H     H_    0.237399 0.305791 0.952946 0.335570
C105  C     C_2   0.156755 0.761063 0.417498 0.200967
H33   H     H_    0.169913 0.792281 0.364674 0.138884
O61   O     O_2   0.101754 0.794671 0.444420 -0.522720
C106  C     C_2   0.839749 0.764678 0.585371 0.232645
H34   H     H_    0.826026 0.795883 0.638095 0.127025
O62   O     O_2   0.895907 0.795226 0.559765 -0.498312
C107  C     C_2   0.656706 0.261004 0.417521 0.200982
H35   H     H_    0.669856 0.292245 0.364699 0.138871
O63   O     O_2   0.601701 0.294583 0.444449 -0.522600
C108  C     C_2   0.339779 0.264653 0.585366 0.232810
H36   H     H_    0.326061 0.295877 0.638088 0.126918
O64   O     O_2   0.395944 0.295161 0.559759 -0.497923
C109  C     C_2   0.550859 0.626910 0.925279 0.619523
O65   O     O_2   0.518358 0.531967 0.926867 -0.445991
O66   O     O_R   0.601579 0.647981 0.873200 -0.655131
H37   H     H_    0.602659 0.583286 0.835375 0.366202
C110  C     C_2   0.449416 0.626792 0.074337 0.619372
O67   O     O_2   0.481855 0.531725 0.072488 -0.446796
O68   O     O_R   0.398766 0.647884 0.126521 -0.656654
H38   H     H_    0.397754 0.583150 0.164252 0.365302
C111  C     C_2   0.050859 0.126910 0.925279 0.619524
O69   O     O_2   0.018358 0.031967 0.926867 -0.445991
O70   O     O_R   0.101579 0.147981 0.873200 -0.655136
H39   H     H_    0.102659 0.083286 0.835375 0.366200
C112  C     C_2   0.949416 0.126792 0.074337 0.619372
O71   O     O_2   0.981855 0.031725 0.072488 -0.446791
O72   O     O_R   0.898766 0.147884 0.126521 -0.656641
H40   H     H_    0.897754 0.083150 0.164253 0.365312
C113  C     C_2   0.352864 0.408866 0.051851 0.605291
O73   O     O_2   0.364474 0.388699 0.114145 -0.471097
O74   O     O_R   0.395789 0.351928 0.001572 -0.709681
H41   H     H_    0.434517 0.301191 0.023620 0.345421
C114  C     C_2   0.647196 0.408945 0.948026 0.604907
O75   O     O_2   0.635571 0.388756 0.885719 -0.468559
O76   O     O_R   0.604247 0.352189 0.998259 -0.710159
H42   H     H_    0.565483 0.301604 0.976172 0.346050
C115  C     C_2   0.852864 0.908866 0.051851 0.605286
O77   O     O_2   0.864474 0.888699 0.114145 -0.471084
O78   O     O_R   0.895789 0.851928 0.001572 -0.709681
H43   H     H_    0.934517 0.801191 0.023620 0.345424
C116  C     C_2   0.147196 0.908945 0.948026 0.604907
O79   O     O_2   0.135572 0.888756 0.885719 -0.468559
O80   O     O_R   0.104247 0.852189 0.998259 -0.710157
H44   H     H_    0.065483 0.801604 0.976172 0.346050
C117  C     C_2   0.529848 0.606893 0.575606 0.620602
O81   O     O_2   0.577939 0.609806 0.618839 -0.526365
O82   O     O_R   0.490331 0.501626 0.567718 -0.625069
H45   H     H_    0.509202 0.432878 0.597660 0.363275
C118  C     C_2   0.473671 0.609272 0.427473 0.625166
O83   O     O_2   0.424214 0.614716 0.385942 -0.527533
O84   O     O_R   0.512486 0.502784 0.432999 -0.622541
H46   H     H_    0.492006 0.435368 0.403038 0.369862
C119  C     C_2   0.029834 0.106899 0.575594 0.620598
O85   O     O_2   0.077926 0.109831 0.618825 -0.526371
O86   O     O_R   0.990325 0.001621 0.567715 -0.625069
H47   H     H_    0.009204 0.932881 0.597658 0.363283
C120  C     C_2   0.973653 0.109248 0.427455 0.625113
O87   O     O_2   0.924210 0.114687 0.385905 -0.527510
O88   O     O_R   0.012465 0.002761 0.433000 -0.622543
H48   H     H_    0.991996 0.935340 0.403035 0.369842
C121  C     C_2   0.498755 0.057888 0.427293 0.256882
H49   H     H_    0.543876 0.094371 0.399928 0.181102
O89   O     O_2   0.443559 0.114159 0.427272 -0.485343
C122  C     C_2   0.521406 0.056026 0.578583 0.273672
H50   H     H_    0.505348 0.141822 0.556377 0.194704
O90   O     O_2   0.554331 0.056447 0.634303 -0.489311
C123  C     C_2   0.998730 0.557840 0.427248 0.256995
H51   H     H_    0.043960 0.594492 0.400139 0.181012
O91   O     O_2   0.943437 0.613848 0.426895 -0.485390
C124  C     C_2   0.021263 0.556057 0.578540 0.273553
H52   H     H_    0.005036 0.641800 0.556368 0.194579
O92   O     O_2   0.054294 0.556574 0.634199 -0.489214

loop_
_geom_bond_atom_site_label_1
_geom_bond_atom_site_label_2
_ccdc_geom_bond_type
C58   C62   A    
C49   H1    S    
O58   H31   S    
C49   C53   A    
C115  O78   S    
C90   C94   S    
C55   C59   A    
C34   C37   A    
C77   O45   A    
C36   C120  S    
C14   C18   A    
C5    C109  S    
C123  H51   S    
C78   O50   A    
C43   C44   A    
Cr9   O17   S    
Cr2   O18   S    
C56   C108  S    
C5    C94   S    
C96   C104  S    
C3    O27   A    
C7    C8    S    
Cr7   O31   S    
C104  O59   D    
C46   C98   S    
C15   C19   A    
C7    C96   S    
C116  O79   D    
Cr2   O46   S    
C7    C99   S    
C22   H22   S    
C37   C41   A    
Cr3   O43   S    
C5    C6    S    
C88   O16   A    
C123  O91   D    
C39   C84   S    
Cr5   O29   S    
Cr12  O20   S    
C108  O64   D    
C107  O63   D    
C55   C107  S    
C119  O85   D    
C30   C74   S    
Cr9   O33   S    
C106  O62   D    
C88   O44   A    
C43   C123  S    
Cr10  O38   S    
C95   C99   S    
O76   H42   S    
C6    C110  S    
Cr10  O14   S    
C92   C96   S    
C47   C99   S    
C3    C18   S    
C114  O75   D    
C41   C42   A    
C102  O56   S    
C9    C13   A    
Cr11  O19   S    
C111  O70   S    
C82   O6    A    
C48   O32   A    
Cr1   O1    S    
Cr5   O17   S    
O74   H41   S    
C122  H50   S    
C101  O54   S    
C28   H28   S    
C44   C124  S    
C91   H15   S    
Cr1   O21   S    
O72   H40   S    
C4    O24   A    
C41   C121  S    
C78   O46   A    
C65   H9    S    
C91   C100  S    
C75   O39   A    
C120  O87   D    
C2    O26   A    
C90   C97   S    
C67   C71   A    
C121  H49   S    
Cr10  O18   S    
C9    C29   A    
O84   H46   S    
Cr12  O40   S    
C73   O37   A    
C8    C112  S    
C24   H24   S    
C54   C106  S    
Cr8   O28   S    
Cr1   O17   S    
O56   H30   S    
C42   C122  S    
C79   O51   A    
C115  O77   D    
C12   C32   A    
Cr11  O39   S    
C103  O58   S    
C40   C83   S    
C68   H12   S    
C8    C95   S    
C11   C15   A    
Cr4   O20   S    
Cr1   O45   S    
C45   O29   A    
C92   H16   S    
C59   C78   S    
C21   H21   S    
C72   C88   S    
C60   C64   A    
C110  O67   D    
C83   O11   A    
C52   H4    S    
C122  O90   D    
C25   C29   A    
C64   H8    S    
Cr4   O48   S    
C105  H33   S    
Cr7   O27   S    
C60   C77   S    
C116  O80   S    
C62   C66   A    
C27   C31   A    
O60   H32   S    
Cr2   O42   S    
C12   C16   A    
O86   H47   S    
C48   C100  S    
Cr3   O47   S    
C22   C26   A    
O66   H37   S    
O80   H44   S    
C10   C14   A    
C91   C92   S    
C117  O82   S    
C53   C57   A    
C19   C23   A    
C13   C113  S    
O54   H29   S    
C51   C55   A    
C26   H26   S    
Cr6   O18   S    
C61   H5    S    
C89   C93   S    
C27   H27   S    
C4    O28   A    
C34   C118  S    
Cr11  O11   S    
C68   C72   A    
C114  O76   S    
C35   C36   A    
O88   H48   S    
C48   O36   A    
C84   O8    A    
C25   H25   S    
C107  H35   S    
C10   H18   S    
C63   C67   A    
C32   C76   S    
C111  O69   D    
C52   C72   A    
C69   C85   S    
C45   O33   A    
C14   C114  S    
Cr7   O7    S    
C10   C30   A    
C31   C75   S    
O68   H38   S    
C74   O38   A    
C28   C32   A    
Cr9   O9    S    
C16   C20   A    
C6    C93   S    
Cr5   O5    S    
Cr7   O19   S    
C118  O83   D    
C66   H10   S    
C33   C34   A    
C80   O48   A    
C74   O2    A    
C11   C31   A    
C109  O65   D    
C85   O13   A    
C57   C61   A    
C112  O72   S    
C82   O10   A    
C46   O30   A    
C75   O3    A    
C58   C79   S    
C71   C87   S    
C4    C17   S    
C76   O4    A    
C6    C98   S    
Cr12  O36   S    
C57   C80   S    
C26   C30   A    
C23   C27   A    
C113  O74   S    
C38   C81   S    
Cr12  O16   S    
C54   C58   A    
Cr11  O35   S    
C37   C82   S    
C73   O1    A    
Cr6   O50   S    
Cr7   O51   S    
O82   H45   S    
C70   C86   S    
C64   C68   A    
C93   C97   S    
C50   C54   A    
Cr9   O13   S    
Cr2   O22   S    
C119  O86   S    
C7    C111  S    
C59   C63   A    
C65   C69   A    
C21   C25   A    
C105  O61   D    
C1    C20   S    
C85   O41   A    
C12   H20   S    
Cr4   O44   S    
C2    C19   S    
C18   C22   A    
Cr3   O23   S    
C84   O12   A    
C36   C39   A    
C93   C101  S    
C24   C28   A    
C5    C97   S    
C83   O7    A    
C76   O40   A    
C15   C115  S    
Cr3   O3    S    
Cr12  O12   S    
Cr4   O24   S    
C47   O31   A    
O78   H43   S    
C51   C71   A    
C92   C99   S    
C79   O47   A    
Cr8   O20   S    
C1    O25   A    
C9    H17   S    
C95   C103  S    
C66   C70   A    
C81   O5    A    
C33   C38   A    
Cr6   O6    S    
C103  O57   D    
C23   H23   S    
C89   C98   S    
C89   H13   S    
C94   C102  S    
C77   O49   A    
C3    O23   A    
C35   C119  S    
C121  O89   D    
C35   C40   A    
C86   O14   A    
C11   H19   S    
C67   H11   S    
C109  O66   S    
C120  O88   S    
C45   C97   S    
C101  O53   D    
C87   O43   A    
Cr3   O19   S    
C108  H36   S    
C117  O81   D    
Cr10  O34   S    
Cr10  O10   S    
Cr6   O26   S    
Cr8   O32   S    
C81   O9    A    
C96   C100  S    
C33   C117  S    
C110  O68   S    
Cr5   O49   S    
Cr5   O25   S    
C124  O92   D    
C61   C65   A    
C8    C100  S    
C102  O55   D    
Cr1   O41   S    
C51   H3    S    
C50   C70   A    
C62   H6    S    
Cr4   O4    S    
C80   O52   A    
C1    O21   A    
C13   C17   A    
C38   C42   A    
C56   C60   A    
C90   H14   S    
C40   C44   A    
C29   C73   S    
C106  H34   S    
C16   C116  S    
C91   C95   S    
C53   C105  S    
C63   H7    S    
Cr6   O30   S    
C39   C43   A    
C46   O34   A    
O70   H39   S    
C86   O42   A    
Cr9   O37   S    
C94   C98   S    
C124  H52   S    
Cr8   O52   S    
C50   H2    S    
C49   C69   A    
Cr2   O2    S    
C118  O84   S    
C89   C90   S    
C113  O73   D    
C104  O60   S    
Cr11  O15   S    
C20   C24   A    
C47   O35   A    
C87   O15   A    
C52   C56   A    
C112  O71   D    
C2    O22   A    
Cr8   O8    S    
C17   C21   A    
