data_str_m12_o4_o9_f0_bcu.sym.17
_audit_creation_date              2012-12-11T17:10:23-0500
_audit_creation_method            fapswitch 2.2
_symmetry_space_group_name_H-M    P1
_symmetry_Int_Tables_number       1
_space_group_crystal_system       triclinic
_cell_length_a                    14.786696
_cell_length_b                    14.880738
_cell_length_c                    14.870452
_cell_angle_alpha                 109.551738
_cell_angle_beta                  109.769078
_cell_angle_gamma                 109.022731
_cell_volume                      2520.91683011

loop_
_atom_site_label
_atom_site_type_symbol
_atom_type_description
_atom_site_fract_x
_atom_site_fract_y
_atom_site_fract_z
_atom_type_partial_charge
C1    C     C_R   0.185379 0.278917 0.253653 -0.142091
C2    C     C_R   0.403873 0.495020 0.194594 -0.142862
C3    C     C_R   0.563961 0.815239 0.591261 -0.132961
C4    C     C_R   0.525343 0.432439 0.746509 -0.146712
C5    C     C_R   0.723159 0.476785 0.408606 -0.120117
C6    C     C_R   0.548051 0.824841 0.497793 0.072241
C7    C     C_R   0.827031 0.555545 0.501254 0.053944
C8    C     C_R   0.433264 0.432026 0.130958 0.082009
C9    C     C_R   0.801905 0.803342 0.868267 0.077588
C10   C     C_R   0.100790 0.598140 0.183689 -0.126670
C11   C     C_R   0.102154 0.623733 0.283765 -0.147561
C12   C     C_R   0.451058 0.449656 0.776548 0.072044
C13   C     C_R   0.020658 0.548194 0.289708 0.113891
C14   C     C_R   0.936846 0.447647 0.193562 -0.179425
C15   C     C_R   0.935903 0.422498 0.093727 -0.106551
C16   C     C_R   0.505143 0.201043 0.407808 -0.173458
C17   C     C_R   0.017862 0.497578 0.088832 -0.100349
C18   C     C_R   0.928673 0.569089 0.399823 -0.233463
C19   C     C_R   0.930707 0.606191 0.500666 0.053608
C20   C     C_R   0.034339 0.676447 0.598989 0.032474
C21   C     C_R   0.126651 0.672938 0.595982 -0.235398
C22   C     C_R   0.117750 0.610539 0.495378 0.054917
C23   C     C_R   0.566080 0.197047 0.498115 0.077890
C24   C     C_R   0.023257 0.575202 0.396226 0.030716
C25   C     C_R   0.997012 0.822335 0.694118 -0.140298
C26   C     C_R   0.014256 0.903811 0.789625 -0.103017
C27   C     C_R   0.084224 0.923434 0.893058 -0.081933
C28   C     C_R   0.291224 0.598557 0.589489 -0.133463
C29   C     C_R   0.135425 0.860211 0.901217 -0.118197
C30   C     C_R   0.118455 0.778476 0.805890 -0.178952
C31   C     C_R   0.049358 0.759053 0.701185 0.111429
C32   C     C_R   0.449711 0.344593 0.876025 0.163504
C33   C     C_R   0.405755 0.400562 0.832354 0.033962
C34   C     C_R   0.198260 0.571450 0.496878 0.066922
C35   C     C_R   0.332314 0.425553 0.861610 -0.199792
C36   C     C_R   0.328191 0.421888 0.953081 -0.206699
C37   C     C_R   0.396912 0.392394 0.014129 0.032495
C38   C     C_R   0.444828 0.340147 0.965490 0.164506
C39   C     C_3   0.556952 0.350633 0.014560 -0.522482
C40   C     C_R   0.595842 0.290075 0.590554 -0.133001
C41   C     C_3   0.562840 0.356174 0.917330 -0.519341
C42   C     C_R   0.548138 0.925318 0.393918 0.143959
C43   C     C_R   0.592859 0.925509 0.493521 0.041179
C44   C     C_R   0.666789 0.027628 0.591270 -0.207381
C45   C     C_R   0.474297 0.720959 0.406842 -0.141859
C46   C     C_R   0.670995 0.123157 0.591732 -0.185711
C47   C     C_R   0.602162 0.116100 0.494125 -0.005739
C48   C     C_R   0.554132 0.019960 0.394118 0.140219
C49   C     C_3   0.441120 0.956633 0.292886 -0.013116
C50   C     C_3   0.434602 0.853528 0.293710 -0.622024
C51   C     C_R   0.967381 0.074622 0.121977 0.168272
C52   C     C_R   0.199595 0.504590 0.407197 -0.154355
C53   C     C_R   0.067164 0.074566 0.168131 0.028179
C54   C     C_R   0.062865 0.972462 0.140791 -0.217997
C55   C     C_R   0.968144 0.876849 0.048495 -0.200220
C56   C     C_R   0.815499 0.566324 0.592820 -0.133974
C57   C     C_R   0.878316 0.884200 0.985093 0.026779
C58   C     C_R   0.874028 0.980397 0.031813 0.168146
C59   C     C_3   0.837111 0.042470 0.980845 -0.536204
C60   C     C_3   0.939299 0.145494 0.078896 -0.524019
C61   C     C_R   0.435287 0.527285 0.750999 -0.124025
C62   C     C_R   0.276007 0.184764 0.248928 -0.130469
C63   C     C_R   0.172533 0.175135 0.223787 0.065182
C64   C     C_3   0.534758 0.971197 0.180922 -0.896249
C65   C     C_R   0.494327 0.402277 0.195522 -0.162138
C66   C     C_R   0.707035 0.799260 0.803629 -0.166016
C67   C     C_R   0.801438 0.710256 0.805138 -0.114641
H1    H     H_    0.123764 0.302838 0.250772 0.112564
H2    H     H_    0.164085 0.656204 0.179669 0.104640
H3    H     H_    0.167051 0.701832 0.356730 0.114466
H4    H     H_    0.552596 0.374155 0.749105 0.110791
H5    H     H_    0.873456 0.388148 0.196301 0.111208
H6    H     H_    0.871799 0.344609 0.020207 0.112800
H7    H     H_    0.852953 0.531942 0.323231 0.122161
H8    H     H_    0.204470 0.717538 0.672254 0.118956
H9    H     H_    0.943862 0.809494 0.614664 0.116302
H10   H     H_    0.974000 0.952341 0.783491 0.110345
H11   H     H_    0.098741 0.987742 0.966827 0.122995
H12   H     H_    0.878437 0.616515 0.678600 0.116976
H13   H     H_    0.188666 0.874921 0.981528 0.098227
H14   H     H_    0.158726 0.730231 0.813900 0.106525
H15   H     H_    0.289581 0.461280 0.824230 0.126686
H16   H     H_    0.486309 0.154616 0.324371 0.124228
H17   H     H_    0.282519 0.455070 0.982849 0.124044
H18   H     H_    0.619400 0.428582 0.093812 0.200836
H19   H     H_    0.553150 0.275012 0.015224 0.190168
H20   H     H_    0.628631 0.437544 0.942287 0.203146
H21   H     H_    0.563145 0.284058 0.862499 0.190667
H22   H     H_    0.709957 0.032722 0.669383 0.124148
H23   H     H_    0.513362 0.337619 0.167528 0.104663
H24   H     H_    0.716941 0.198243 0.670278 0.122681
H25   H     H_    0.378623 0.974616 0.308060 0.101927
H26   H     H_    0.369750 0.815280 0.311797 0.183308
H27   H     H_    0.324725 0.659897 0.673655 0.084591
H28   H     H_    0.433020 0.795547 0.222035 0.202575
H29   H     H_    0.136141 0.967601 0.179924 0.127233
H30   H     H_    0.971819 0.801766 0.019810 0.130826
H31   H     H_    0.838276 0.024833 0.902512 0.196964
H32   H     H_    0.759559 0.038235 0.977730 0.191897
H33   H     H_    0.997894 0.185688 0.055396 0.200589
H34   H     H_    0.670010 0.846195 0.831255 0.105274
H35   H     H_    0.920412 0.200742 0.131721 0.194942
H36   H     H_    0.657254 0.321869 0.674638 0.083261
H37   H     H_    0.147970 0.475370 0.321514 0.120669
H38   H     H_    0.381752 0.559521 0.761948 0.093436
H39   H     H_    0.297135 0.120396 0.237373 0.092405
H40   H     H_    0.447132 0.696436 0.321483 0.115288
H41   H     H_    0.364998 0.901615 0.123572 0.168899
H42   H     H_    0.519340 0.972745 0.103145 0.234281
H43   H     H_    0.549386 0.901601 0.176213 0.249923
H44   H     H_    0.609635 0.049945 0.249902 0.250667
H45   H     H_    0.854478 0.678861 0.834502 0.087670
H46   H     H_    0.342368 0.518094 0.165635 0.087397
H47   H     H_    0.616944 0.879650 0.676536 0.094023
H48   H     H_    0.700535 0.446158 0.323082 0.093122
H49   H     H_    0.017076 0.477854 0.011502 0.097398
N1    N     N_R   0.291070 0.347930 0.293870 -0.039688
N2    N     N_R   0.497240 0.291100 0.443210 -0.036418
N3    N     N_R   0.347890 0.554050 0.556810 -0.038298
N4    N     N_R   0.554050 0.347900 0.556830 -0.038342
N5    N     N_R   0.291070 0.497250 0.443190 -0.039698
N6    N     N_R   0.497240 0.554030 0.706140 -0.040002
N7    N     N_R   0.347890 0.291110 0.293870 -0.038087
N8    N     N_R   0.445950 0.652100 0.443170 -0.039946
N9    N     N_2   0.439813 0.958861 0.195012 -0.105890
N10   N     N_R   0.708930 0.502750 0.556810 -0.042495
N11   N     N_R   0.502760 0.445970 0.293860 -0.038045
N12   N     N_R   0.652110 0.708890 0.706130 -0.038217
N13   N     N_R   0.708930 0.652070 0.706130 -0.041381
N14   N     N_R   0.445950 0.502780 0.293850 -0.038286
N15   N     N_R   0.502760 0.708900 0.556790 -0.039338
N16   N     N_R   0.652110 0.445950 0.443190 -0.039747
N17   N     N_R   0.554050 0.497220 0.706150 -0.040905
Ni1   Ni    Ni4+2 0.369690 0.500010 0.369700 0.212955
Ni2   Ni    Ni4+2 0.630310 0.499990 0.630300 0.208051
Ni3   Ni    Ni4+2 0.500000 0.369720 0.369720 0.211978
Ni4   Ni    Ni4+2 0.500000 0.630280 0.630280 0.207888

loop_
_geom_bond_atom_site_label_1
_geom_bond_atom_site_label_2
_ccdc_geom_bond_type
C25   C31   A    
C6    C45   A    
C27   C29   A    
C59   H32   S    
C35   C36   A    
N12   Ni4   S    
C3    C6    A    
N12   N13   A    
C64   H42   S    
C11   H3    S    
C39   C41   S    
C67   N13   A    
C53   C54   A    
C26   C27   A    
C29   C30   A    
C56   H12   S    
C3    N15   A    
C65   N11   A    
C36   C37   A    
C30   C31   A    
C2    H46   S    
C60   H35   S    
C50   H28   S    
C10   C17   A    
C23   C40   A    
C1    H1    S    
C28   H27   S    
C18   C19   A    
C46   C47   A    
C9    C66   A    
C53   C63   S    
C33   C35   A    
N13   Ni2   S    
C5    N16   A    
C19   C20   A    
C32   C41   S    
C32   C38   A    
H41   N9    S    
C4    C12   A    
C61   H38   S    
C54   H29   S    
C27   H11   S    
C28   C34   A    
C59   C60   S    
C18   H7    S    
C21   C22   A    
C5    H48   S    
C66   H34   S    
N14   Ni1   S    
C7    C56   A    
C22   C34   S    
N1    Ni1   S    
C1    C63   A    
C62   N7    A    
C35   H15   S    
C44   C46   A    
N3    N5    A    
C45   N8    A    
C65   H23   S    
C41   H20   S    
C26   H10   S    
C23   C47   S    
N3    Ni4   S    
N11   Ni3   S    
C9    C57   S    
C5    C7    A    
C64   H44   S    
C42   C48   A    
C46   H24   S    
C25   C26   A    
C28   N3    A    
C16   H16   S    
N8    N15   A    
C61   N6    A    
C51   C53   A    
C43   C44   A    
C9    C67   A    
N6    N17   A    
C37   C38   A    
N15   Ni4   S    
C16   N2    A    
C52   N5    A    
C64   H43   S    
C47   C48   A    
N10   N16   A    
N16   Ni3   S    
C55   H30   S    
C62   C63   A    
C51   C58   A    
C1    N1    A    
C42   C50   S    
C48   C49   S    
C40   N4    A    
N10   Ni2   S    
C49   C50   S    
C16   C23   A    
C7    C19   S    
C6    C43   S    
C55   C57   A    
N5    Ni1   S    
C18   C24   A    
C8    C37   S    
C39   H18   S    
C49   H25   S    
C56   N10   A    
N2    Ni3   S    
C15   C17   A    
C41   H21   S    
C54   C55   A    
C52   H37   S    
C15   H6    S    
C14   H5    S    
C2    C8    A    
N6    Ni4   S    
C60   H33   S    
C3    H47   S    
C50   H26   S    
C62   H39   S    
C49   N9    S    
C21   H8    S    
C34   C52   A    
N8    Ni1   S    
N7    Ni3   S    
C25   H9    S    
C32   C33   A    
N4    Ni2   S    
C30   H14   S    
C58   C59   S    
N11   N14   A    
C40   H36   S    
C12   C61   A    
C11   C13   A    
C57   C58   A    
C38   C39   S    
C29   H13   S    
C36   H17   S    
C2    N14   A    
C66   N12   A    
C22   C24   A    
N1    N7    A    
N2    N4    A    
C10   C11   A    
C10   H2    S    
C67   H45   S    
C8    C65   A    
C20   C21   A    
C13   C24   S    
C64   N9    S    
C42   C43   A    
N17   Ni2   S    
C59   H31   S    
C14   C15   A    
C51   C60   S    
C39   H19   S    
C12   C33   S    
C13   C14   A    
C4    H4    S    
C44   H22   S    
C45   H40   S    
C17   H49   S    
C4    N17   A    
C20   C31   S    
