data_str_m2_o10_o29_f0_pcu.sym.177
_audit_creation_date              2012-12-10T16:51:16-0500
_audit_creation_method            fapswitch 2.2
_symmetry_space_group_name_H-M    P1
_symmetry_Int_Tables_number       1
_space_group_crystal_system       triclinic
_cell_length_a                    27.787263
_cell_length_b                    8.675348
_cell_length_c                    7.438226
_cell_angle_alpha                 103.055684
_cell_angle_beta                  93.883928
_cell_angle_gamma                 92.43751
_cell_volume                      1739.64069303

loop_
_atom_site_label
_atom_site_type_symbol
_atom_type_description
_atom_site_fract_x
_atom_site_fract_y
_atom_site_fract_z
_atom_type_partial_charge
C1    C     C_R   0.498542 0.199650 0.453154 0.890951
C2    C     C_R   0.501458 0.800350 0.546846 0.890951
C3    C     C_R   0.102213 0.498576 0.514930 -0.042064
C4    C     C_R   0.897787 0.501422 0.485069 -0.042065
C5    C     C_R   0.125163 0.354301 0.481583 -0.024219
C6    C     C_R   0.874837 0.645698 0.518415 -0.024219
C7    C     C_R   0.097288 0.211475 0.441682 -0.143199
C8    C     C_R   0.902711 0.788524 0.558316 -0.143198
C9    C     C_R   0.130709 0.642143 0.554678 -0.033518
C10   C     C_R   0.869291 0.357856 0.445323 -0.033517
C11   C     C_R   0.354721 0.498428 0.509988 -0.113712
C12   C     C_R   0.645278 0.501571 0.490012 -0.113712
C13   C     C_R   0.971522 0.353694 0.457776 0.044250
C14   C     C_R   0.028478 0.646305 0.542223 0.044250
C15   C     C_R   0.977201 0.647017 0.534073 0.045490
C16   C     C_R   0.022799 0.352982 0.465926 0.045490
C17   C     C_R   0.949070 0.500709 0.492222 0.073106
C18   C     C_R   0.050930 0.499289 0.507777 0.073106
C19   C     C_R   0.941570 0.211871 0.415928 -0.210594
C20   C     C_R   0.058430 0.788128 0.584073 -0.210594
C21   C     C_R   0.891610 0.214330 0.410497 -0.131420
C22   C     C_R   0.108389 0.785669 0.589504 -0.131421
C23   C     C_R   0.407524 0.499547 0.502967 0.826206
C24   C     C_R   0.592476 0.500453 0.497032 0.826207
C25   C     C_R   0.047241 0.210411 0.433779 -0.210126
C26   C     C_R   0.952759 0.789588 0.566219 -0.210126
C27   C     C_2   0.497842 0.031672 0.426808 -0.353690
C28   C     C_2   0.502158 0.968328 0.573192 -0.353690
C29   C     C_R   0.175780 0.356258 0.487884 0.572285
C30   C     C_R   0.824220 0.643740 0.512115 0.572287
C31   C     C_R   0.181190 0.638809 0.557717 0.623609
C32   C     C_R   0.818810 0.361189 0.442284 0.623608
C33   C     C_R   0.284080 0.534143 0.687577 0.436185
C34   C     C_R   0.715920 0.465857 0.312423 0.436185
C35   C     C_R   0.334183 0.534475 0.681066 -0.249136
C36   C     C_R   0.665817 0.465526 0.318934 -0.249136
C37   C     C_R   0.324368 0.460529 0.345410 -0.167222
C38   C     C_R   0.675632 0.539468 0.654590 -0.167221
C39   C     C_R   0.274407 0.458784 0.351875 -0.109315
C40   C     C_R   0.725593 0.541212 0.648125 -0.109316
C41   C     C_R   0.254061 0.496372 0.522149 0.261789
C42   C     C_R   0.745939 0.503626 0.477851 0.261790
Cu1   Cu    Cu3+1 0.505380 0.517380 0.684380 0.966586
Cu2   Cu    Cu3+1 0.494620 0.482620 0.315620 0.966586
H1    H     H_    0.339152 0.431474 0.211649 0.188597
H2    H     H_    0.660848 0.568521 0.788351 0.188598
H3    H     H_    0.462177 0.378233 0.948638 0.228054
H4    H     H_    0.537823 0.621767 0.051362 0.228054
H5    H     H_    0.251298 0.428717 0.224360 0.203894
H6    H     H_    0.748702 0.571278 0.775640 0.203895
H7    H     H_    0.114071 0.098931 0.415192 0.187020
H8    H     H_    0.885928 0.901068 0.584804 0.187019
H9    H     H_    0.643070 0.436236 0.190347 0.188034
H10   H     H_    0.356930 0.563767 0.809653 0.188034
H11   H     H_    0.870465 0.102316 0.378310 0.195021
H12   H     H_    0.129535 0.897683 0.621692 0.195021
H13   H     H_    0.955271 0.095574 0.386026 0.137642
H14   H     H_    0.044729 0.904424 0.613976 0.137643
H15   H     H_    0.029007 0.094574 0.401547 0.134646
H16   H     H_    0.970992 0.905425 0.598449 0.134645
H17   H     H_    0.493777 0.959824 0.285851 0.180791
H18   H     H_    0.506223 0.040176 0.714149 0.180791
N1    N     N_R   0.202571 0.497200 0.524909 -0.455292
N2    N     N_R   0.797429 0.502799 0.475091 -0.455292
N3    N     N_2   0.486510 0.456430 0.038510 -0.216733
N4    N     N_2   0.513490 0.543570 0.961490 -0.216733
O1    O     O_R   0.503500 0.286120 0.619780 -0.583515
O2    O     O_R   0.496500 0.713880 0.380220 -0.583515
O3    O     O_R   0.494410 0.256780 0.308360 -0.583534
O4    O     O_R   0.505590 0.743220 0.691640 -0.583534
O5    O     O_R   0.434810 0.514700 0.655690 -0.592181
O6    O     O_R   0.565190 0.485300 0.344310 -0.592181
O7    O     O_R   0.425720 0.485350 0.344280 -0.581379
O8    O     O_R   0.574280 0.514650 0.655720 -0.581379
O9    O     O_2   0.198105 0.218603 0.457076 -0.499161
O10   O     O_2   0.801895 0.781395 0.542922 -0.499160
O11   O     O_2   0.791271 0.224216 0.408304 -0.476818
O12   O     O_2   0.208729 0.775782 0.591697 -0.476818
Cl1   Cl    Cl    0.740375 0.419773 0.096116 -0.607331
Cl2   Cl    Cl    0.259625 0.580229 0.903884 -0.607329

loop_
_geom_bond_atom_site_label_1
_geom_bond_atom_site_label_2
_ccdc_geom_bond_type
C29   N1    A    
C30   N2    A    
C8    C26   A    
C14   C18   A    
C34   C42   A    
C39   C41   A    
C19   H13   S    
C19   C21   A    
C2    O2    A    
C9    C22   A    
C3    C18   A    
C11   C37   A    
C36   H9    S    
C27   H17   S    
C1    O1    A    
C32   O11   S    
C12   C36   A    
C8    H8    S    
Cu1   O8    S    
C40   C42   A    
C35   H10   S    
Cu2   N3    S    
C23   O7    A    
C5    C29   A    
C10   C21   A    
C13   C19   A    
C14   C20   A    
C32   N2    A    
C4    C6    A    
C21   H11   S    
C15   C26   A    
C6    C8    A    
C1    O3    A    
Cu1   Cu2   S    
C3    C9    A    
C23   O5    A    
C34   Cl1   S    
C30   O10   S    
Cu2   O3    S    
C4    C17   A    
C16   C18   A    
C39   H5    S    
C20   C22   A    
Cu1   O4    S    
Cu2   O2    S    
C41   N1    S    
C20   H14   S    
C42   N2    S    
C24   O6    A    
C31   O12   S    
C5    C7    A    
C16   C25   A    
C15   C17   A    
Cu1   O5    S    
C6    C30   A    
C4    C10   A    
C3    C5    A    
C22   H12   S    
C33   Cl2   S    
C29   O9    S    
C31   N1    A    
C12   C24   S    
C7    C25   A    
C13   C17   A    
C33   C41   A    
C11   C35   A    
C7    H7    S    
C37   C39   A    
C38   C40   A    
C24   O8    A    
C26   H16   S    
Cu1   N4    S    
C40   H6    S    
C11   C23   S    
C33   C35   A    
Cu2   O6    S    
C34   C36   A    
C12   C38   A    
Cu2   O7    S    
C38   H2    S    
C9    C31   A    
C10   C32   A    
Cu1   O1    S    
N3    N4    D    
C13   C16   A    
C27   C28   D    
C1    C27   S    
C14   C15   A    
C2    C28   S    
C25   H15   S    
H4    N4    S    
C2    O4    A    
C37   H1    S    
H3    N3    S    
C28   H18   S    
