data_str_m2_o10_o28_f0_pcu.sym.188
_audit_creation_date              2012-12-10T16:50:12-0500
_audit_creation_method            fapswitch 2.2
_symmetry_space_group_name_H-M    P1
_symmetry_Int_Tables_number       1
_space_group_crystal_system       triclinic
_cell_length_a                    23.495954
_cell_length_b                    8.696329
_cell_length_c                    7.410229
_cell_angle_alpha                 101.651907
_cell_angle_beta                  94.357776
_cell_angle_gamma                 91.514016
_cell_volume                      1477.27920783

loop_
_atom_site_label
_atom_site_type_symbol
_atom_type_description
_atom_site_fract_x
_atom_site_fract_y
_atom_site_fract_z
_atom_type_partial_charge
C1    C     C_R   0.496136 0.200926 0.456588 0.897878
C2    C     C_R   0.503036 0.798991 0.543382 0.879579
C3    C     C_R   0.240277 0.574687 0.650293 -0.046580
C4    C     C_R   0.769339 0.474160 0.604705 -0.062627
C5    C     C_R   0.300135 0.579302 0.661778 -0.076626
C6    C     C_R   0.710700 0.456308 0.621267 -0.044730
C7    C     C_R   0.328036 0.508876 0.504438 -0.164434
C8    C     C_R   0.671839 0.510333 0.493213 -0.150020
C9    C     C_R   0.295006 0.443341 0.338914 -0.176215
C10   C     C_R   0.693293 0.580983 0.355773 -0.247393
C11   C     C_R   0.235536 0.446850 0.325567 0.473871
C12   C     C_R   0.751985 0.597088 0.340126 0.419150
C13   C     C_R   0.207889 0.510234 0.484524 0.167182
C14   C     C_R   0.790205 0.541290 0.465396 0.183438
C15   C     C_2   0.483808 0.038070 0.444246 0.084712
C16   C     C_2   0.515155 0.961341 0.555236 0.097213
C17   C     C_R   0.390909 0.503861 0.502761 0.857016
C18   C     C_R   0.609138 0.499131 0.497963 0.860892
C19   C     C_R   0.883055 0.678280 0.501824 0.649174
C20   C     C_R   0.114482 0.378414 0.453730 0.648026
C21   C     C_R   0.875322 0.399196 0.398885 0.590019
C22   C     C_R   0.122010 0.658700 0.503781 0.597004
C23   C     C_R   0.934861 0.391057 0.407025 -0.024161
C24   C     C_R   0.062469 0.667091 0.501745 -0.012426
C25   C     C_R   0.968647 0.531641 0.454109 -0.013278
C26   C     C_R   0.028667 0.526425 0.462469 -0.004013
C27   C     C_R   0.942608 0.677156 0.496972 -0.023929
C28   C     C_R   0.054756 0.380486 0.435033 -0.025733
C29   C     C_R   0.961277 0.246074 0.373675 -0.136216
C30   C     C_R   0.036050 0.811990 0.538260 -0.150642
C31   C     C_R   0.020670 0.240803 0.390746 -0.164379
C32   C     C_R   0.976734 0.816901 0.538889 -0.148702
Cu1   Cu    Cu3+1 0.506340 0.517380 0.684380 1.062419
Cu2   Cu    Cu3+1 0.493660 0.482620 0.315620 1.089802
H1    H     H_    0.936186 0.136284 0.338231 0.206676
H2    H     H_    0.061155 0.921768 0.569992 0.193511
H3    H     H_    0.039755 0.127229 0.366984 0.188496
H4    H     H_    0.957732 0.930302 0.571219 0.187872
H5    H     H_    0.218141 0.627128 0.769229 0.222951
H6    H     H_    0.799962 0.432371 0.698656 0.214778
H7    H     H_    0.315804 0.390586 0.217336 0.215179
H8    H     H_    0.663876 0.624952 0.260277 0.191283
H9    H     H_    0.455613 0.380258 0.948947 0.241544
H10   H     H_    0.544388 0.619753 0.051047 0.241353
N1    N     N_R   0.850635 0.541066 0.448302 -0.453580
N2    N     N_R   0.146768 0.515692 0.478998 -0.450925
N3    N     N_2   0.484110 0.456420 0.038520 -0.183214
N4    N     N_2   0.515890 0.543580 0.961480 -0.187930
O1    O     O_R   0.504120 0.286130 0.619770 -0.577308
O2    O     O_R   0.495880 0.713870 0.380230 -0.565919
O3    O     O_R   0.493410 0.256770 0.308360 -0.532301
O4    O     O_R   0.506590 0.743230 0.691640 -0.538256
O5    O     O_R   0.423230 0.514630 0.655730 -0.632506
O6    O     O_R   0.576770 0.485370 0.344270 -0.590942
O7    O     O_R   0.412530 0.485280 0.344320 -0.538485
O8    O     O_R   0.587470 0.514720 0.655680 -0.580990
O9    O     O_2   0.857970 0.814283 0.564469 -0.473387
O10   O     O_2   0.140136 0.240793 0.448536 -0.459871
O11   O     O_2   0.842211 0.266062 0.345621 -0.473123
O12   O     O_2   0.154933 0.792149 0.530079 -0.484339
C33   C     C_2   0.331568 0.668323 0.834058 0.487195
H11   H     H_    0.373724 0.720385 0.831198 0.125447
O13   O     O_2   0.309890 0.688594 0.981275 -0.472040
C34   C     C_2   0.692589 0.376618 0.769230 0.556898
H12   H     H_    0.648566 0.366198 0.797559 0.141042
O14   O     O_2   0.727608 0.319415 0.864017 -0.485590
S1    S     S_3+6 0.197682 0.378040 0.106352 0.039362
O15   O     O_2   0.148802 0.481660 0.080163 -0.303192
O16   O     O_2   0.236974 0.378298 0.955629 -0.280731
O17   O     O_3   0.172253 0.193056 0.091656 -0.467036
H13   H     H_    0.149278 0.166000 0.970975 0.383539
S2    S     S_3+6 0.775882 0.685188 0.161920 0.056732
O18   O     O_2   0.823090 0.593102 0.072177 -0.250767
O19   O     O_2   0.727751 0.690377 0.017964 -0.309079
O20   O     O_3   0.800702 0.870198 0.250176 -0.426930
H14   H     H_    0.768105 0.923791 0.309013 0.376379
S3    S     S_3+6 0.420241 0.958878 0.306116 0.023794
O21   O     O_2   0.436523 0.861080 0.127734 -0.275577
O22   O     O_2   0.386033 0.858664 0.405525 -0.300190
O23   O     O_3   0.380030 0.105369 0.258998 -0.539023
H15   H     H_    0.347043 0.052330 0.176656 0.398243
S4    S     S_3+6 0.581814 0.035143 0.676023 -0.002305
O24   O     O_2   0.614993 0.116084 0.553891 -0.360824
O25   O     O_2   0.571940 0.148872 0.851386 -0.268413
O26   O     O_3   0.619750 0.886770 0.729688 -0.516705
H16   H     H_    0.657301 0.935977 0.784378 0.403935

loop_
_geom_bond_atom_site_label_1
_geom_bond_atom_site_label_2
_ccdc_geom_bond_type
C10   H8    S    
O26   H16   S    
C19   O9    S    
Cu1   O4    S    
Cu2   O3    S    
C23   C29   A    
C24   C26   A    
C21   O11   S    
C22   O12   S    
C13   N2    S    
Cu1   O1    S    
C15   C16   D    
C6    C34   S    
C33   O13   D    
C2    O2    A    
C4    H6    S    
C7    C17   S    
O17   H13   S    
C1    C15   S    
C32   H4    S    
C2    C16   S    
C17   O7    A    
C3    C13   A    
C18   O8    A    
Cu1   O8    S    
C12   S2    S    
C3    H5    S    
Cu2   O7    S    
S2    O20   S    
C10   C12   A    
C11   S1    S    
C14   N1    S    
C21   N1    A    
S3    O22   D    
Cu1   O5    S    
Cu2   O2    S    
S1    O15   D    
C4    C6    A    
C5    C7    A    
O23   H15   S    
C6    C8    A    
C20   C28   A    
C25   C26   A    
S3    O21   D    
C8    C18   S    
C31   H3    S    
S1    O16   D    
C34   O14   D    
O20   H14   S    
C1    O3    A    
N3    N4    D    
C16   S4    S    
Cu1   Cu2   S    
C5    C33   S    
C9    C11   A    
C2    O4    A    
S2    O19   D    
C22   N2    A    
C12   C14   A    
Cu2   O6    S    
S4    O25   D    
C21   C23   A    
C22   C24   A    
C20   O10   S    
C17   O5    A    
C19   C27   A    
S3    O23   S    
C7    C9    A    
C27   C32   A    
C26   C28   A    
C28   C31   A    
S2    O18   D    
C3    C5    A    
C19   N1    A    
C25   C27   A    
S4    O26   S    
C29   H1    S    
C9    H7    S    
C30   H2    S    
S1    O17   S    
C34   H12   S    
C29   C31   A    
C30   C32   A    
C11   C13   A    
C15   S3    S    
C1    O1    A    
C23   C25   A    
C4    C14   A    
C33   H11   S    
C24   C30   A    
C18   O6    A    
C8    C10   A    
S4    O24   D    
Cu1   N4    S    
Cu2   N3    S    
H9    N3    S    
C20   N2    A    
H10   N4    S    
