data_str_m4_o1_o1_f0_acs.sym.33
_audit_creation_date              2012-12-11T14:49:45-0500
_audit_creation_method            fapswitch 2.2
_symmetry_space_group_name_H-M    P1
_symmetry_Int_Tables_number       1
_space_group_crystal_system       monoclinic
_cell_length_a                    10.893881
_cell_length_b                    10.89388
_cell_length_c                    18.973223
_cell_angle_alpha                 90.0
_cell_angle_beta                  90.0
_cell_angle_gamma                 120.000177
_cell_volume                      1950.00705339

loop_
_atom_site_label
_atom_site_type_symbol
_atom_type_description
_atom_site_fract_x
_atom_site_fract_y
_atom_site_fract_z
_atom_type_partial_charge
C1    C     C_R   0.530087 0.465015 0.644994 0.545798
C2    C     C_R   0.468917 0.528921 0.353495 0.539840
C3    C     C_R   0.471079 0.939995 0.146505 0.539840
C4    C     C_R   0.060005 0.531083 0.353496 0.539839
C5    C     C_R   0.378942 0.993355 0.537636 -0.053628
C6    C     C_R   0.614413 0.621059 0.962364 -0.053629
C7    C     C_R   0.006646 0.385588 0.537636 -0.053628
C8    C     C_R   0.378942 0.993355 0.962364 -0.053628
C9    C     C_R   0.614413 0.621059 0.537636 -0.053629
C10   C     C_R   0.006646 0.385587 0.962364 -0.053629
C11   C     C_R   0.015276 0.385507 0.036222 -0.045784
C12   C     C_R   0.934928 0.469913 0.855006 0.545797
C13   C     C_R   0.614493 0.629769 0.463778 -0.045784
C14   C     C_R   0.370232 0.984725 0.036222 -0.045784
C15   C     C_R   0.015276 0.385507 0.463778 -0.045784
C16   C     C_R   0.614493 0.629769 0.036222 -0.045784
C17   C     C_R   0.370232 0.984725 0.463778 -0.045784
C18   C     C_R   0.487606 0.998857 0.424363 -0.003559
C19   C     C_R   0.511251 0.512394 0.075637 -0.003559
C20   C     C_R   0.001143 0.488749 0.424363 -0.003559
C21   C     C_R   0.487607 0.998857 0.075637 -0.003559
C22   C     C_R   0.511251 0.512394 0.424363 -0.003559
C23   C     C_R   0.534985 0.065072 0.644994 0.545797
C24   C     C_R   0.001143 0.488749 0.075637 -0.003559
C25   C     C_R   0.973841 0.481621 0.929199 0.002987
C26   C     C_R   0.518379 0.492220 0.570801 0.002987
C27   C     C_R   0.507779 0.026159 0.929199 0.002987
C28   C     C_R   0.973841 0.481621 0.570801 0.002987
C29   C     C_R   0.518379 0.492220 0.929199 0.002987
C30   C     C_R   0.507780 0.026159 0.570801 0.002987
C31   C     C_R   0.616071 0.039551 0.458089 -0.148484
C32   C     C_R   0.423481 0.383929 0.041911 -0.148484
C33   C     C_R   0.960448 0.576519 0.458089 -0.148484
C34   C     C_R   0.530087 0.465015 0.855006 0.545798
C35   C     C_R   0.616071 0.039551 0.041911 -0.148484
C36   C     C_R   0.423481 0.383929 0.458089 -0.148484
C37   C     C_R   0.960448 0.576519 0.041911 -0.148484
C38   C     C_R   0.949075 0.574535 0.969972 -0.137990
C39   C     C_R   0.425464 0.374539 0.530028 -0.137990
C40   C     C_R   0.625460 0.050925 0.969972 -0.137990
C41   C     C_R   0.949075 0.574535 0.530028 -0.137990
C42   C     C_R   0.425464 0.374539 0.969972 -0.137990
C43   C     C_R   0.625460 0.050925 0.530028 -0.137990
C44   C     C_1   0.254834 0.964562 0.578701 0.214187
C45   C     C_R   0.934928 0.469913 0.644994 0.545797
C46   C     C_1   0.709729 0.745166 0.921299 0.214186
C47   C     C_1   0.035438 0.290272 0.578702 0.214187
C48   C     C_1   0.254834 0.964562 0.921299 0.214186
C49   C     C_1   0.709729 0.745166 0.578701 0.214187
C50   C     C_1   0.035438 0.290272 0.921298 0.214187
C51   C     C_1   0.037440 0.278931 0.070361 0.223325
C52   C     C_1   0.721070 0.758510 0.429639 0.223325
C53   C     C_1   0.241491 0.962560 0.070361 0.223325
C54   C     C_1   0.037440 0.278931 0.429639 0.223325
C55   C     C_1   0.721070 0.758510 0.070361 0.223325
C56   C     C_R   0.534985 0.065072 0.855006 0.545797
C57   C     C_1   0.241491 0.962560 0.429639 0.223325
C58   C     C_R   0.468917 0.528921 0.146505 0.539840
C59   C     C_R   0.471079 0.939995 0.353495 0.539840
C60   C     C_R   0.060005 0.531083 0.146504 0.539840
Cr1   Cr    Cr6+3 0.776430 0.541680 0.750000 1.090368
Cr2   Cr    Cr6+3 0.765250 0.223570 0.750000 1.090368
Cr3   Cr    Cr6+3 0.458320 0.234750 0.750000 1.090369
Cr4   Cr    Cr6+3 0.541680 0.776430 0.250000 1.082425
Cr5   Cr    Cr6+3 0.223570 0.765250 0.250000 1.082425
Cr6   Cr    Cr6+3 0.234750 0.458320 0.250000 1.082426
H1    H     H_    0.708755 0.055842 0.429133 0.170126
H2    H     H_    0.918120 0.645653 0.553462 0.171315
H3    H     H_    0.354346 0.272467 0.946538 0.171316
H4    H     H_    0.727533 0.081879 0.553462 0.171316
H5    H     H_    0.347087 0.291245 0.070867 0.170127
H6    H     H_    0.944158 0.652912 0.429133 0.170126
H7    H     H_    0.708755 0.055842 0.070867 0.170126
H8    H     H_    0.347087 0.291245 0.429133 0.170127
H9    H     H_    0.944158 0.652912 0.070867 0.170126
H10   H     H_    0.918120 0.645653 0.946538 0.171315
H11   H     H_    0.354346 0.272467 0.553462 0.171316
H12   H     H_    0.727533 0.081879 0.946538 0.171316
N1    N     N_1   0.155710 0.941443 0.611286 -0.236397
N2    N     N_1   0.054539 0.193474 0.402547 -0.239740
N3    N     N_1   0.806527 0.861065 0.097453 -0.239741
N4    N     N_1   0.138936 0.945462 0.402546 -0.239741
N5    N     N_1   0.785733 0.844290 0.888714 -0.236397
N6    N     N_1   0.058558 0.214269 0.611286 -0.236397
N7    N     N_1   0.155710 0.941443 0.888714 -0.236397
N8    N     N_1   0.785733 0.844290 0.611286 -0.236397
N9    N     N_1   0.058558 0.214269 0.888714 -0.236397
N10   N     N_1   0.054538 0.193474 0.097453 -0.239740
N11   N     N_1   0.806527 0.861065 0.402546 -0.239740
N12   N     N_1   0.138936 0.945462 0.097454 -0.239741
O1    O     O_R   0.916700 0.566820 0.669930 -0.503531
O2    O     O_R   0.566820 0.916700 0.330070 -0.504502
O3    O     O_R   0.083300 0.650120 0.169930 -0.504501
O4    O     O_R   0.349880 0.433180 0.330070 -0.504501
O5    O     O_R   0.649840 0.534790 0.674920 -0.494580
O6    O     O_R   0.884950 0.350160 0.825080 -0.494580
O7    O     O_R   0.465210 0.115050 0.674920 -0.494580
O8    O     O_R   0.649840 0.534790 0.825080 -0.494580
O9    O     O_R   0.884950 0.350160 0.674920 -0.494580
O10   O     O_R   0.465210 0.115050 0.825080 -0.494580
O11   O     O_R   0.534790 0.649840 0.174920 -0.493514
O12   O     O_R   0.650120 0.083300 0.830070 -0.503531
O13   O     O_R   0.350160 0.884950 0.325080 -0.493513
O14   O     O_R   0.115050 0.465210 0.174920 -0.493513
O15   O     O_R   0.534790 0.649840 0.325080 -0.493514
O16   O     O_R   0.350160 0.884950 0.174920 -0.493513
O17   O     O_R   0.115050 0.465210 0.325080 -0.493513
O18   O     O_3   0.666667 0.333333 0.750000 -0.283558
O19   O     O_3   0.333333 0.666667 0.250000 -0.270023
O20   O     O_R   0.433180 0.349880 0.669930 -0.503531
O21   O     O_R   0.916700 0.566820 0.830070 -0.503531
O22   O     O_R   0.650120 0.083300 0.669930 -0.503531
O23   O     O_R   0.433180 0.349880 0.830070 -0.503531
O24   O     O_R   0.566820 0.916700 0.169930 -0.504502
O25   O     O_R   0.083300 0.650120 0.330070 -0.504501
O26   O     O_R   0.349880 0.433180 0.169930 -0.504501

loop_
_geom_bond_atom_site_label_1
_geom_bond_atom_site_label_2
_ccdc_geom_bond_type
Cr2   O6    S    
C29   C42   A    
C28   C41   A    
C4    O25   A    
Cr1   O8    S    
Cr6   O17   S    
Cr4   O15   S    
C38   H10   S    
C34   O23   A    
C31   H1    S    
C23   O22   A    
Cr3   O10   S    
C31   C43   A    
C39   H11   S    
C14   C21   A    
C1    O20   A    
C26   C39   A    
C5    C17   A    
C11   C24   A    
Cr1   O18   S    
C9    C13   A    
C33   H6    S    
C2    C22   S    
C55   N3    T    
C24   C60   S    
Cr6   O4    S    
C60   O3    A    
Cr5   O3    S    
C37   H9    S    
C3    O16   A    
C58   O26   A    
Cr5   O25   S    
C52   N11   T    
Cr4   O11   S    
C19   C32   A    
C9    C26   A    
C17   C18   A    
C32   H5    S    
C54   N2    T    
C44   N1    T    
C19   C58   S    
C32   C42   A    
C15   C20   A    
C4    O17   A    
C28   C45   S    
Cr4   O24   S    
C23   C30   S    
Cr6   O14   S    
C2    O4    A    
C9    C49   S    
C15   C54   S    
C45   O9    A    
C27   C56   S    
C6    C16   A    
C29   C34   S    
C42   H3    S    
C7    C28   A    
Cr2   O9    S    
C7    C47   S    
C8    C48   S    
C37   C38   A    
C25   C38   A    
C13   C52   S    
C27   C40   A    
C1    O5    A    
C6    C29   A    
C24   C37   A    
Cr2   O22   S    
C58   O11   A    
C47   N6    T    
Cr5   O19   S    
C36   H8    S    
C50   N9    T    
C20   C33   A    
C10   C25   A    
C23   O7    A    
C5    C44   S    
C43   H4    S    
C1    C26   S    
C40   H12   S    
C30   C43   A    
C3    C21   S    
Cr5   O13   S    
C10   C50   S    
Cr5   O16   S    
C5    C30   A    
C41   H2    S    
C35   H7    S    
C8    C14   A    
C6    C46   S    
C57   N4    T    
C49   N8    T    
C36   C39   A    
C3    O24   A    
C51   N10   T    
Cr1   O5    S    
C21   C35   A    
C22   C36   A    
C2    O15   A    
C12   C25   S    
C33   C41   A    
Cr3   O20   S    
C35   C40   A    
Cr6   O26   S    
C16   C55   S    
C59   O13   A    
Cr3   O7    S    
Cr4   O19   S    
C16   C19   A    
C7    C15   A    
C34   O8    A    
C13   C22   A    
Cr3   O23   S    
C59   O2    A    
Cr6   O19   S    
C45   O1    A    
C11   C51   S    
C10   C11   A    
C56   O12   A    
C46   N5    T    
C4    C20   S    
C18   C59   S    
C14   C53   S    
Cr2   O18   S    
C53   N12   T    
C8    C27   A    
C56   O10   A    
C48   N7    T    
C12   O6    A    
C18   C31   A    
Cr4   O2    S    
Cr3   O18   S    
C60   O14   A    
C12   O21   A    
Cr1   O1    S    
C17   C57   S    
Cr2   O12   S    
Cr1   O21   S    
