data_str_m9_o2_o25_f0_sra.sym.215
_audit_creation_date              2013-03-05T16:03:26-0500
_audit_creation_method            fapswitch 2.2
_symmetry_space_group_name_H-M    P1
_symmetry_Int_Tables_number       1
_space_group_crystal_system       triclinic
_cell_length_a                    6.949504
_cell_length_b                    18.2392
_cell_length_c                    20.240989
_cell_angle_alpha                 68.605403
_cell_angle_beta                  90.898646
_cell_angle_gamma                 91.165703
_cell_volume                      2388.22967456

loop_
_atom_site_label
_atom_site_type_symbol
_atom_site_description
_atom_site_fract_x
_atom_site_fract_y
_atom_site_fract_z
_atom_type_partial_charge
O1    O     O_R   0.488960 0.443750 0.941980 -0.585856
O2    O     O_R   0.823890 0.406510 0.087590 -0.595942
O3    O     O_R   0.999680 0.556250 0.058020 -0.583190
C1    C     C_R   0.654114 0.381615 0.113960 0.983580
O4    O     O_R   0.818360 0.434410 0.944340 -0.601946
O5    O     O_R   0.994110 0.584350 0.913750 -0.591072
C2    C     C_R   0.648813 0.422546 0.922104 0.988592
O6    O     O_R   0.494530 0.415650 0.086250 -0.580657
O7    O     O_3   0.662590 0.549160 0.990130 -0.267180
V1    V     V_3+5 0.935320 0.490880 0.001830 1.173522
O8    O     O_R   0.324180 0.593490 0.912410 -0.597835
C3    C     C_R   0.155484 0.615977 0.884702 0.982324
O9    O     O_R   0.329720 0.565590 0.055660 -0.581761
C4    C     C_R   0.162892 0.580449 0.075390 0.964844
V2    V     V_3+5 0.435990 0.509120 0.998170 1.183681
O10   O     O_3   0.158850 0.450840 0.009870 -0.276667
C5    C     C_3   0.024941 0.717394 0.299604 0.197685
C6    C     C_3   0.213119 0.688589 0.279668 0.301795
H1    H     H_    0.458365 0.779052 0.286268 0.214557
C7    C     C_1   0.159334 0.628361 0.118754 -0.249010
C8    C     C_1   0.107787 0.879827 0.374315 -0.224331
C9    C     C_3   0.959331 0.745169 0.221422 0.174657
C10   C     C_3   0.148362 0.715623 0.201057 -0.274600
C11   C     C_3   0.053310 0.826677 0.208450 -0.045322
C12   C     C_3   0.119678 0.798597 0.287143 -0.153738
C13   C     C_3   0.242462 0.797375 0.188811 0.361076
C14   C     C_3   0.312457 0.769561 0.267425 -0.290761
C15   C     C_1   0.156212 0.668171 0.155382 0.335751
C16   C     C_1   0.111942 0.843327 0.334938 0.183450
H2    H     H_    0.824732 0.529902 0.706014 0.147665
C17   C     C_R   0.285307 0.772104 0.869091 -0.160130
C18   C     C_R   0.345134 0.847068 0.864518 -0.074765
C19   C     C_R   0.331239 0.910015 0.800514 -0.133824
C20   C     C_R   0.257989 0.898452 0.740629 -0.179948
C21   C     C_R   0.198506 0.822587 0.743036 0.128738
C22   C     C_R   0.212027 0.758033 0.808864 0.108844
C23   C     C_R   0.120367 0.811549 0.681898 -0.285822
C24   C     C_R   0.050352 0.734868 0.687446 -0.066645
C25   C     C_R   0.065279 0.669722 0.753886 0.061236
C26   C     C_R   0.147035 0.681781 0.814421 -0.293673
C27   C     C_R   0.965614 0.719875 0.628616 0.337827
C28   C     C_R   0.867184 0.649186 0.639006 -0.145658
C29   C     C_R   0.883744 0.586723 0.702308 -0.289051
C30   C     C_R   0.998220 0.593648 0.756911 0.165370
H3    H     H_    0.295106 0.725872 0.920817 0.121152
H4    H     H_    0.400406 0.856506 0.911146 0.162411
H5    H     H_    0.375171 0.968422 0.797313 0.132213
H6    H     H_    0.245974 0.950348 0.692999 0.118539
H7    H     H_    0.796655 0.639057 0.594910 0.200326
C31   C     C_R   0.626538 0.087964 0.247957 0.112852
C32   C     C_R   0.660553 0.077454 0.183892 -0.158433
C33   C     C_R   0.662462 0.140629 0.120610 -0.214465
C34   C     C_R   0.630047 0.216463 0.118802 0.131060
C35   C     C_R   0.632983 0.232436 0.182770 0.059908
C36   C     C_R   0.626492 0.166499 0.249162 0.000129
C37   C     C_R   0.639663 0.311459 0.182002 -0.289769
C38   C     C_R   0.630805 0.324080 0.247109 0.103116
C39   C     C_R   0.616238 0.259240 0.312488 0.119717
C40   C     C_R   0.617152 0.180917 0.314037 -0.274066
C41   C     C_R   0.635219 0.401160 0.248486 -0.221841
C42   C     C_R   0.621601 0.414059 0.312076 -0.041316
C43   C     C_R   0.603108 0.350542 0.376716 0.201546
C44   C     C_R   0.601138 0.274073 0.376216 -0.262153
H8    H     H_    0.667432 0.019539 0.181053 0.181169
H9    H     H_    0.668037 0.129368 0.071668 0.139310
H10   H     H_    0.647845 0.452658 0.200348 0.140205
H11   H     H_    0.623602 0.474090 0.310040 0.200119
H12   H     H_    0.586666 0.226175 0.426843 0.098640
O11   O     O_R   0.770540 0.084530 0.414050 -0.593080
O12   O     O_R   0.445710 0.065660 0.555720 -0.602259
O13   O     O_R   0.270420 0.915650 0.586190 -0.576249
C45   C     C_R   0.615719 0.080138 0.576015 0.967594
O14   O     O_R   0.441140 0.093540 0.412470 -0.612501
O15   O     O_R   0.265820 0.943740 0.441930 -0.592018
C46   C     C_R   0.609484 0.114957 0.384232 0.957482
O16   O     O_R   0.775150 0.056440 0.558310 -0.594464
O17   O     O_3   0.602370 0.950960 0.510050 -0.243728
V3    V     V_3+5 0.329450 0.009140 0.498150 1.186701
O18   O     O_R   0.935790 0.934280 0.444060 -0.556931
C47   C     C_R   0.102588 0.923776 0.420987 1.066407
O19   O     O_R   0.940370 0.906390 0.587310 -0.592251
C48   C     C_R   0.109237 0.881577 0.613821 1.009443
V4    V     V_3+5 0.828810 0.990710 0.501460 1.217366
O20   O     O_3   0.105780 0.049100 0.489960 -0.293919
C49   C     C_3   0.689001 0.329644 0.709621 -0.163627
C50   C     C_3   0.513373 0.284971 0.694375 0.195698
H13   H     H_    0.731611 0.391627 0.678806 0.124973
H14   H     H_    0.307035 0.251507 0.793754 0.128124
C51   C     C_1   0.626862 0.126837 0.620608 -0.294995
C52   C     C_1   0.638858 0.378056 0.875640 -0.357457
C53   C     C_3   0.813520 0.255720 0.721135 -0.207504
C54   C     C_3   0.635711 0.212545 0.704632 0.051267
C55   C     C_3   0.760614 0.222751 0.801345 -0.198642
C56   C     C_3   0.634227 0.295605 0.789132 0.181517
C57   C     C_3   0.583079 0.181260 0.783452 0.206560
C58   C     C_3   0.454669 0.252698 0.773152 -0.252432
C59   C     C_1   0.632310 0.165646 0.658250 -0.027060
C60   C     C_1   0.635343 0.341017 0.836557 -0.001268
H15   H     H_    0.861766 0.196236 0.846431 0.124211
H16   H     H_    0.960147 0.256541 0.699928 0.142532
N1    N     N_R   0.296515 0.613032 0.321684 0.288023
O21   O     O_R   0.351104 0.599437 0.386763 -0.329513
O22   O     O_R   0.305377 0.557311 0.296179 -0.402991
N2    N     N_R   0.003887 0.768437 0.556831 0.212016
O23   O     O_R   0.867474 0.778981 0.509624 -0.363396
O24   O     O_R   0.182060 0.777348 0.536175 -0.416450
N3    N     N_2   0.060150 0.522421 0.810087 -0.103189
H17   H     H_    0.958166 0.477882 0.821636 0.177681
C61   C     C_3   0.242834 0.495948 0.794705 -0.875562
H18   H     H_    0.276003 0.438304 0.836397 0.252394
H19   H     H_    0.359286 0.538995 0.793655 0.251086
H20   H     H_    0.236122 0.487857 0.742848 0.245971
N4    N     N_2   0.576790 0.361656 0.442415 -0.121939
H21   H     H_    0.571577 0.310814 0.487027 0.160785
C62   C     C_3   0.679821 0.425956 0.453503 -0.702292
H22   H     H_    0.662708 0.421421 0.509364 0.234971
H23   H     H_    0.618770 0.482908 0.419024 0.310953
H24   H     H_    0.835641 0.423878 0.442890 0.245908
N5    N     N_2   0.570431 0.021248 0.308654 -0.116922
H25   H     H_    0.429324 0.023941 0.322325 0.162457
C63   C     C_3   0.624121 0.942830 0.314383 -0.821968
H26   H     H_    0.604602 0.901572 0.369931 0.286892
H27   H     H_    0.777173 0.942302 0.300042 0.227599
H28   H     H_    0.530793 0.922195 0.279392 0.240444
N6    N     N_2   0.565764 0.272435 0.053350 -0.124594
H29   H     H_    0.637713 0.268425 0.010683 0.149356
C64   C     C_3   0.358885 0.269049 0.043950 -0.825406
H30   H     H_    0.315227 0.312514 0.991674 0.251252
H31   H     H_    0.283753 0.282557 0.086133 0.256548
H32   H     H_    0.312575 0.209667 0.045649 0.228979
N7    N     N_R   0.907806 0.671239 0.360048 0.283093
O25   O     O_R   0.861712 0.598752 0.369465 -0.352977
O26   O     O_R   0.849979 0.701731 0.405013 -0.314453
N8    N     N_2   0.380625 0.317813 0.635590 -0.113414
H33   H     H_    0.286824 0.276252 0.629350 0.165136
C65   C     C_3   0.285859 0.388518 0.633345 -0.875183
H34   H     H_    0.193256 0.410663 0.585134 0.270228
H35   H     H_    0.393827 0.435130 0.630971 0.261698
H36   H     H_    0.194340 0.375956 0.680878 0.232565
N9    N     N_2   0.529167 0.100071 0.822672 -0.120701
H37   H     H_    0.628191 0.060957 0.817991 0.167894
C66   C     C_3   0.472152 0.083206 0.895181 -0.888020
H38   H     H_    0.425837 0.020499 0.919544 0.265450
H39   H     H_    0.349238 0.120430 0.896891 0.248734
H40   H     H_    0.594880 0.093929 0.926535 0.246454
N10   N     N_R   0.361957 0.842911 0.128868 0.268410
O27   O     O_R   0.452466 0.905844 0.129289 -0.429241
O28   O     O_R   0.369770 0.823714 0.073102 -0.387009
N11   N     N_2   0.963251 0.902060 0.172438 -0.092652
H41   H     H_    0.010822 0.945345 0.190510 0.163501
C67   C     C_3   0.952153 0.929118 0.095899 -0.684325
H42   H     H_    0.842530 0.975778 0.076395 0.228953
H43   H     H_    0.910429 0.880545 0.077793 0.283530
H44   H     H_    0.092890 0.954496 0.072490 0.236547
N12   N     N_R   0.771336 0.729714 0.195915 0.260250
O29   O     O_R   0.652343 0.680482 0.239597 -0.363577
O30   O     O_R   0.739585 0.750994 0.128108 -0.365654

loop_
_geom_bond_atom_site_label_1
_geom_bond_atom_site_label_2
_geom_bond_distance
_ccdc_geom_bond_type
H14   C58   1.110359 S    
C55   C56   1.548970 S    
C36   C40   1.432826 A    
C5    N7    1.456051 S    
N3    C61   1.445297 S    
C27   C28   1.394737 A    
C57   C58   1.543004 S    
C1    O6    1.297831 A    
N2    O24   1.301105 A    
O19   C48   1.301785 A    
C49   C53   1.559791 S    
O17   V3    2.159274 S    
C13   C14   1.556538 S    
N1    O21   1.300169 A    
C21   C23   1.422326 A    
C23   C24   1.436974 A    
C11   C13   1.539985 S    
N4    H21   1.032160 S    
C61   H19   1.111021 S    
O5    C3    1.297328 A    
C24   C25   1.437341 A    
C10   C13   1.551836 S    
O12   V3    1.971385 S    
C56   C60   1.478911 S    
C62   H22   1.111311 S    
C37   C38   1.420533 A    
C20   C21   1.419897 A    
C67   H44   1.109703 S    
C13   N10   1.455978 S    
C63   H28   1.110889 S    
C35   C36   1.440440 A    
O8    V2    2.010599 S    
C50   N8    1.446964 S    
C21   C22   1.423552 A    
C62   H23   1.107163 S    
C67   H42   1.110099 S    
O1    V2    1.967473 S    
C53   H16   1.109598 S    
H1    C14   1.110174 S    
O7    V1    2.159295 S    
C55   H15   1.110209 S    
C45   O16   1.299149 A    
C34   N6    1.417796 S    
O13   C48   1.300567 A    
C49   H13   1.110188 S    
C41   H10   1.082102 S    
N1    O22   1.299815 A    
O15   C47   1.296077 A    
O9    C4    1.297446 A    
C1    C37   1.502523 S    
O14   C46   1.299023 A    
C66   H40   1.111417 S    
C65   H36   1.111342 S    
O16   V4    1.984583 S    
C9    C10   1.547227 S    
N2    O23   1.301398 A    
O19   V4    2.010564 S    
C54   C59   1.482573 S    
C31   C32   1.402506 A    
N10   O28   1.300267 A    
C9    N12   1.457028 S    
N5    C63   1.448359 S    
C12   C16   1.477717 S    
C35   C37   1.435525 A    
C66   H38   1.110580 S    
V2    O10   2.154712 S    
C6    C14   1.554346 S    
C32   C33   1.375376 A    
C4    C7    1.447694 S    
C22   C26   1.418746 A    
C11   C12   1.550328 S    
C24   C27   1.431271 A    
C65   H35   1.110598 S    
C61   H20   1.112154 S    
C53   C54   1.548549 S    
O4    C2    1.296822 A    
C38   C41   1.415984 A    
N8    C65   1.445588 S    
C7    C15   1.212948 T    
C39   C40   1.417554 A    
C49   C50   1.542707 S    
C2    C52   1.449202 S    
C8    C16   1.211564 T    
C54   C57   1.533072 S    
C31   N5    1.430785 S    
C51   C59   1.214268 T    
C41   C42   1.395230 A    
C6    N1    1.456110 S    
C3    C26   1.490720 S    
O2    C1    1.305481 A    
C29   C30   1.393019 A    
C64   H31   1.111327 S    
C43   C44   1.398242 A    
O11   V4    2.004835 S    
C53   C55   1.558877 S    
C49   C56   1.549545 S    
C42   H11   1.080379 S    
V4    O20   2.154770 S    
O14   V3    2.006408 S    
C62   H24   1.111353 S    
C5    C6    1.532388 S    
C57   N9    1.446545 S    
C10   C15   1.481220 S    
N9    H37   1.030944 S    
C56   C58   1.551260 S    
N12   O30   1.299377 A    
C63   H26   1.110042 S    
C25   C30   1.434845 A    
O3    C4    1.298186 A    
C50   C58   1.543137 S    
C43   N4    1.431358 S    
O6    V2    2.009570 S    
O9    V2    1.972984 S    
C17   H3    1.080663 S    
N6    H29   1.030678 S    
C19   H5    1.081343 S    
C9    C11   1.544891 S    
H2    C29   1.083899 S    
C20   H6    1.080398 S    
C28   C29   1.374268 A    
N3    H17   1.029602 S    
C64   H30   1.108073 S    
O2    V1    2.006428 S    
C40   C46   1.490484 S    
C25   C26   1.429063 A    
C33   C34   1.393079 A    
N10   O27   1.300332 A    
C30   N3    1.421097 S    
C39   C44   1.417080 A    
C44   H12   1.081634 S    
O1    C2    1.300204 A    
C18   H4    1.082778 S    
C17   C18   1.391643 A    
C32   H8    1.080659 S    
C31   C36   1.441491 A    
N9    C66   1.445531 S    
C65   H34   1.110359 S    
N7    O26   1.299628 A    
O5    V1    2.007194 S    
O12   C45   1.298304 A    
N5    H25   1.030046 S    
C34   C35   1.426856 A    
N8    H33   1.030865 S    
C12   C14   1.560267 S    
C5    C9    1.539685 S    
C27   N2    1.424796 S    
C5    C12   1.543918 S    
C18   C19   1.386082 A    
N11   C67   1.445536 S    
O7    V2    1.707108 S    
C64   H32   1.112124 S    
O4    V1    1.971366 S    
O3    V1    1.966430 S    
C50   C54   1.533317 S    
N11   H41   1.030860 S    
O18   V4    1.972961 S    
C45   C51   1.449903 S    
C38   C39   1.420428 A    
C6    C10   1.546503 S    
C8    C47   1.446051 S    
C19   C20   1.391280 A    
O11   C46   1.297966 A    
C66   H39   1.110616 S    
C67   H43   1.107415 S    
C42   C43   1.401358 A    
C23   C48   1.500915 S    
C63   H27   1.108067 S    
C11   N11   1.450155 S    
C28   H7    1.083474 S    
O18   C47   1.299906 A    
V3    O20   1.710175 S    
C55   C57   1.540788 S    
O15   V3    1.966320 S    
N12   O29   1.298223 A    
N6    C64   1.450309 S    
O17   V4    1.703650 S    
C17   C22   1.419419 A    
V1    O10   1.710106 S    
C61   H18   1.107765 S    
C52   C60   1.213032 T    
O13   V3    2.007249 S    
C33   H9    1.083984 S    
N7    O25   1.299121 A    
O8    C3    1.299336 A    
N4    C62   1.446133 S    
