data_str_m9_o16_o24_f0_sra.sym.6
_audit_creation_date              2012-12-11T15:13:48-0500
_audit_creation_method            fapswitch 2.2
_symmetry_space_group_name_H-M    P1
_symmetry_Int_Tables_number       1
_space_group_crystal_system       triclinic
_cell_length_a                    6.94843
_cell_length_b                    13.477643
_cell_length_c                    20.138777
_cell_angle_alpha                 104.072546
_cell_angle_beta                  89.976219
_cell_angle_gamma                 90.664175
_cell_volume                      1829.23650881

loop_
_atom_site_label
_atom_site_type_symbol
_atom_type_description
_atom_site_fract_x
_atom_site_fract_y
_atom_site_fract_z
_atom_type_partial_charge
O1    O     O_R   0.506780 0.600060 0.449950 -0.540799
O2    O     O_R   0.179840 0.597110 0.589410 -0.549772
O3    O     O_R   0.004570 0.399940 0.550050 -0.534850
C1    C     C_R   0.348509 0.619110 0.616686 0.719234
O4    O     O_R   0.177380 0.612160 0.452890 -0.543829
O5    O     O_R   0.002100 0.415100 0.412560 -0.530396
C2    C     C_R   0.346839 0.639009 0.436369 0.689688
O6    O     O_R   0.509250 0.584900 0.587440 -0.541898
O7    O     O_3   0.337570 0.435330 0.486930 -0.362670
V1    V     V_3+5 0.064650 0.512000 0.502430 1.430369
O8    O     O_R   0.672090 0.402890 0.410590 -0.546551
C3    C     C_R   0.840162 0.381274 0.383075 0.693851
O9    O     O_R   0.674540 0.387840 0.547110 -0.538995
C4    C     C_R   0.842642 0.360853 0.563553 0.699508
V2    V     V_3+5 0.564040 0.488000 0.497570 1.436535
O10   O     O_3   0.840990 0.564670 0.513070 -0.376622
C5    C     C_R   0.845007 0.105985 0.607745 -0.160749
H1    H     H_    0.838955 0.155625 0.514287 0.101867
H2    H     H_    0.846510 0.979728 0.690197 0.123106
H3    H     H_    0.841338 0.025811 0.580971 0.112125
C6    C     C_R   0.848727 0.283169 0.602949 -0.031575
C7    C     C_R   0.868826 0.319458 0.932443 -0.170659
C8    C     C_R   0.867774 0.396320 0.897370 -0.120406
C9    C     C_R   0.862527 0.371961 0.826076 -0.145523
C10   C     C_R   0.858031 0.268735 0.787650 0.082633
C11   C     C_R   0.858121 0.190205 0.824058 0.062540
C12   C     C_R   0.854081 0.240833 0.714475 0.074553
C13   C     C_R   0.849810 0.135458 0.679591 0.139623
C14   C     C_R   0.849831 0.060146 0.716478 -0.211806
C15   C     C_R   0.854008 0.086864 0.787494 -0.201347
C16   C     C_R   0.853770 0.313742 0.674431 -0.195231
C17   C     C_R   0.843936 0.179497 0.569672 -0.170043
C18   C     C_R   0.863663 0.216778 0.896586 -0.076627
H4    H     H_    0.855508 0.394883 0.696887 0.090927
H5    H     H_    0.874083 0.340083 0.987900 0.098719
H6    H     H_    0.862479 0.435952 0.802860 0.106279
H7    H     H_    0.871698 0.475681 0.925678 0.119792
H8    H     H_    0.853992 0.025392 0.813528 0.140676
C19   C     C_3   0.773525 0.158800 0.249966 -0.194504
C20   C     C_3   0.947721 0.208561 0.292833 0.244344
H9    H     H_    0.709397 0.083199 0.250292 0.115549
C21   C     C_3   0.847490 0.311684 0.312358 -0.018021
C22   C     C_3   0.671053 0.263841 0.268950 -0.154460
C23   C     C_3   0.762364 0.292477 0.205582 -0.136926
C24   C     C_3   0.938858 0.340709 0.249640 -0.179060
C25   C     C_3   0.042490 0.235978 0.230637 -0.114489
C26   C     C_3   0.865224 0.188545 0.187546 -0.037618
H10   H     H_    0.518281 0.275708 0.284742 0.128422
H11   H     H_    0.685014 0.327044 0.168690 0.106251
H12   H     H_    0.006070 0.415872 0.249695 0.107496
H13   H     H_    0.195604 0.223341 0.215493 0.107933
C27   C     C_3   0.536094 0.744270 0.723895 -0.130201
C28   C     C_3   0.418749 0.844364 0.747403 -0.180103
H14   H     H_    0.470703 0.921999 0.745897 0.130735
H15   H     H_    0.682235 0.739969 0.701237 0.124194
C29   C     C_3   0.357883 0.811206 0.812836 -0.056250
C30   C     C_3   0.475863 0.711735 0.790186 -0.162769
C31   C     C_3   0.296077 0.658605 0.752352 0.158369
C32   C     C_3   0.180626 0.756535 0.775267 0.353427
C33   C     C_3   0.237260 0.789166 0.709565 -0.219569
C34   C     C_3   0.355305 0.689605 0.686879 -0.073303
H16   H     H_    0.571581 0.679097 0.823366 0.127443
H17   H     H_    0.138294 0.820759 0.676826 0.118344
C35   C     C_R   0.403137 0.892151 0.391671 -0.159644
H18   H     H_    0.399852 0.842539 0.485143 0.102868
H19   H     H_    0.428836 0.017494 0.309151 0.131437
H20   H     H_    0.425895 0.971594 0.418230 0.118444
C36   C     C_R   0.358376 0.716432 0.396861 -0.029267
C37   C     C_R   0.326719 0.681372 0.067581 -0.166838
C38   C     C_R   0.310781 0.604895 0.102738 -0.122305
C39   C     C_R   0.321725 0.628802 0.173961 -0.163972
C40   C     C_R   0.349427 0.731155 0.212213 0.079110
C41   C     C_R   0.366533 0.809214 0.175704 0.072320
C42   C     C_R   0.360631 0.758664 0.285309 0.073151
C43   C     C_R   0.389976 0.863079 0.319955 0.146932
C44   C     C_R   0.406443 0.937862 0.282971 -0.230219
C45   C     C_R   0.394331 0.911659 0.212073 -0.209047
C46   C     C_R   0.344303 0.686287 0.325502 -0.217956
C47   C     C_R   0.388091 0.819105 0.429869 -0.179857
C48   C     C_R   0.354730 0.783144 0.103277 -0.074589
H21   H     H_    0.321890 0.605827 0.303248 0.091141
H22   H     H_    0.316794 0.661186 0.012198 0.103219
H23   H     H_    0.307861 0.565187 0.197277 0.102494
H24   H     H_    0.289205 0.526223 0.074552 0.118062
H25   H     H_    0.407479 0.972780 0.185962 0.120527
O11   O     O_R   0.203580 0.914920 0.912610 -0.517886
O12   O     O_R   0.535710 0.887810 0.047120 -0.542571
O13   O     O_R   0.710730 0.084950 0.087430 -0.542106
C49   C     C_R   0.366330 0.861120 0.063836 0.681883
O14   O     O_R   0.533010 0.902850 0.910600 -0.539989
O15   O     O_R   0.708010 0.100090 0.949930 -0.540336
C50   C     C_R   0.364362 0.881046 0.883247 0.714807
O16   O     O_R   0.206300 0.899780 0.050100 -0.539045
O17   O     O_3   0.375170 0.064580 0.013100 -0.377809
V3    V     V_3+5 0.648200 0.988020 0.997570 1.446307
O18   O     O_R   0.038030 0.112330 0.952840 -0.541385
C51   C     C_R   0.869920 0.138744 0.936031 0.687228
O19   O     O_R   0.040730 0.097300 0.089360 -0.547899
C52   C     C_R   0.872672 0.118775 0.116922 0.680902
V4    V     V_3+5 0.148780 0.012220 0.002360 1.447552
O20   O     O_3   0.871930 0.935430 0.986900 -0.357787
N1    N     N_3   0.229040 0.556746 0.754775 -0.672013
H26   H     H_    0.187801 0.560061 0.805169 0.228909
H27   H     H_    0.104813 0.540561 0.724686 0.209312
O21   O     O_3   0.995911 0.763024 0.803442 -0.646616
H28   H     H_    0.923727 0.703313 0.775936 0.267120
N2    N     N_3   0.049720 0.163238 0.341083 -0.679131
H29   H     H_    0.090845 0.090045 0.314499 0.228345
H30   H     H_    0.950613 0.153564 0.378117 0.209283

loop_
_geom_bond_atom_site_label_1
_geom_bond_atom_site_label_2
_ccdc_geom_bond_type
C23   H11   S    
H18   C47   S    
C1    O6    A    
C30   H16   S    
C19   H9    S    
C24   C25   S    
C23   C24   S    
C20   C25   S    
C7    H5    S    
C6    C16   A    
C32   O21   S    
C25   H13   S    
C33   H17   S    
C4    C6    S    
C13   C14   A    
C27   C34   S    
O5    C3    A    
V2    O10   S    
C5    H3    S    
C26   C52   S    
C29   C30   S    
C15   H8    S    
C48   C49   S    
C3    C21   S    
C37   H22   S    
C2    C36   S    
O8    V2    S    
C35   C43   A    
O12   V3    S    
C8    C9    A    
C38   C39   A    
O1    V2    S    
C38   H24   S    
C22   H10   S    
C27   H15   S    
C31   C34   S    
C20   C21   S    
O13   V3    S    
C45   H25   S    
C32   C33   S    
O9    C4    A    
N2    H30   S    
N1    H26   S    
C28   C33   S    
C39   H23   S    
C36   C46   A    
C6    C17   A    
C42   C43   A    
C12   C16   A    
C35   H20   S    
O14   V3    S    
C9    C10   A    
C40   C42   A    
C19   C20   S    
O4    C2    A    
C19   C22   S    
C31   C32   S    
C8    H7    S    
C1    C34   S    
O15   C51   A    
C33   C34   S    
C21   C24   S    
O2    C1    A    
C43   C44   A    
C14   C15   A    
C11   C18   A    
O14   C50   A    
O17   V4    S    
N2    H29   S    
H19   C44   S    
O18   C51   A    
C16   H4    S    
O17   V3    S    
C9    H6    S    
C44   C45   A    
N1    H27   S    
O16   V4    S    
O3    C4    A    
C20   N2    S    
C31   N1    S    
C11   C15   A    
O6    V2    S    
O19   V4    S    
O12   C49   A    
C22   C23   S    
C35   C47   A    
H1    C17   S    
C21   C22   S    
O2    V1    S    
O11   V4    S    
C27   C28   S    
C19   C26   S    
O7    V1    S    
C28   C29   S    
C7    C18   A    
C25   C26   S    
O1    C2    A    
C5    C13   A    
C40   C41   A    
O5    V1    S    
O8    C3    A    
C23   C26   S    
C28   H14   S    
C10   C12   A    
O21   H28   S    
C29   C32   S    
O9    V2    S    
C10   C11   A    
O4    V1    S    
O3    V1    S    
O11   C50   A    
C46   H21   S    
C30   C31   S    
C24   H12   S    
C36   C47   A    
O18   V4    S    
V4    O20   S    
C41   C48   A    
C18   C51   S    
C49   O16   A    
C37   C38   A    
O13   C52   A    
C27   C30   S    
O15   V3    S    
C29   C50   S    
C39   C40   A    
O19   C52   A    
C42   C46   A    
C12   C13   A    
C5    C17   A    
C41   C45   A    
C7    C8    A    
C37   C48   A    
V1    O10   S    
V3    O20   S    
O7    V2    S    
H2    C14   S    
