data_str_m3_o10_o17_f0_pcu.sym.154
_audit_creation_date              2012-12-10T16:52:04-0500
_audit_creation_method            fapswitch 2.2
_symmetry_space_group_name_H-M    P1
_symmetry_Int_Tables_number       1
_space_group_crystal_system       triclinic
_cell_length_a                    7.868043
_cell_length_b                    8.760145
_cell_length_c                    14.96844
_cell_angle_alpha                 93.385369
_cell_angle_beta                  84.802702
_cell_angle_gamma                 93.144341
_cell_volume                      1024.39572294

loop_
_atom_site_label
_atom_site_type_symbol
_atom_type_description
_atom_site_fract_x
_atom_site_fract_y
_atom_site_fract_z
_atom_type_partial_charge
C1    C     C_R   0.544233 0.793306 0.497025 0.911043
C2    C     C_R   0.632755 0.564217 0.808506 -0.232344
C3    C     C_R   0.501030 0.513096 0.232100 -0.142900
C4    C     C_R   0.498970 0.486903 0.767900 -0.142900
C5    C     C_R   0.635025 0.591110 0.182186 -0.080346
C6    C     C_R   0.364974 0.408889 0.817814 -0.080347
C7    C     C_R   0.635755 0.584547 0.088316 -0.001251
C8    C     C_R   0.364245 0.415453 0.911683 -0.001251
C9    C     C_R   0.500092 0.503162 0.046817 0.012956
C10   C     C_R   0.499908 0.496838 0.953183 0.012956
C11   C     C_R   0.364166 0.428874 0.098998 0.126450
C12   C     C_R   0.455767 0.206694 0.502975 0.911044
C13   C     C_R   0.635834 0.571126 0.901002 0.126450
C14   C     C_R   0.767587 0.659289 0.035349 -0.181914
C15   C     C_R   0.232413 0.340711 0.964651 -0.181914
C16   C     C_2   0.769090 0.682682 0.228771 0.925634
C17   C     C_2   0.230910 0.317317 0.771229 0.925633
C18   C     C_3   0.917283 0.734166 0.889192 -0.875297
C19   C     C_3   0.082717 0.265834 0.110808 -0.875297
C20   C     C_2   0.745752 0.011662 0.513360 1.013937
C21   C     C_2   0.254248 0.988338 0.486640 1.013936
C22   C     C_3   0.010773 0.316952 0.434460 -0.379065
C23   C     C_R   0.770308 0.652594 0.942305 0.186139
C24   C     C_3   0.989227 0.683048 0.565540 -0.379066
C25   C     C_R   0.229692 0.347406 0.057695 0.186138
C26   C     C_2   0.567779 0.955105 0.500977 -0.371078
C27   C     C_2   0.432221 0.044895 0.499023 -0.371078
C28   C     C_R   0.499511 0.495330 0.672508 0.891611
C29   C     C_R   0.500489 0.504669 0.327492 0.891610
C30   C     C_R   0.367245 0.435783 0.191494 -0.232343
H1    H     H_    0.267741 0.377334 0.233284 0.167787
H2    H     H_    0.988817 0.209399 0.066781 0.241884
H3    H     H_    0.013464 0.348972 0.157584 0.279776
H4    H     H_    0.131691 0.175800 0.149467 0.237874
H5    H     H_    0.688830 0.087616 0.641904 0.306230
H6    H     H_    0.311170 0.912384 0.358096 0.306230
H7    H     H_    0.913841 0.266183 0.390656 0.196177
H8    H     H_    0.129187 0.334330 0.390718 0.180740
H9    H     H_    0.025290 0.237387 0.487245 0.261494
H10   H     H_    0.086158 0.733817 0.609344 0.196177
H11   H     H_    0.974710 0.762613 0.512755 0.261494
H12   H     H_    0.732258 0.622665 0.766716 0.167787
H13   H     H_    0.870813 0.665670 0.609282 0.180740
H14   H     H_    0.869952 0.724425 0.065868 0.179747
H15   H     H_    0.130048 0.275574 0.934132 0.179747
H16   H     H_    0.018033 0.712317 0.251267 0.369694
H17   H     H_    0.981967 0.287683 0.748733 0.369693
H18   H     H_    0.011183 0.790600 0.933219 0.241884
H19   H     H_    0.868309 0.824200 0.850533 0.237874
H20   H     H_    0.986536 0.651028 0.842416 0.279776
N1    N     N_2   0.950330 0.457950 0.475660 -0.029871
N2    N     N_2   0.049670 0.542050 0.524340 -0.029871
O1    O     O_R   0.389250 0.738570 0.505970 -0.616747
O2    O     O_R   0.939529 0.642910 0.214907 -0.818029
O3    O     O_2   0.270953 0.209310 0.719548 -0.608233
O4    O     O_R   0.060471 0.357089 0.785093 -0.818029
O5    O     O_2   0.855242 0.993556 0.451151 -0.541388
O6    O     O_R   0.789933 0.081643 0.595017 -0.754904
O7    O     O_2   0.144758 0.006444 0.548849 -0.541388
O8    O     O_R   0.210067 0.918357 0.404983 -0.754904
O9    O     O_R   0.610750 0.261430 0.494030 -0.616747
O10   O     O_R   0.678390 0.711620 0.490370 -0.618261
O11   O     O_R   0.321610 0.288380 0.509630 -0.618261
O12   O     O_R   0.355420 0.513510 0.639950 -0.607615
O13   O     O_R   0.644580 0.486490 0.360050 -0.607615
O14   O     O_R   0.644560 0.486560 0.624350 -0.631439
O15   O     O_R   0.355440 0.513440 0.375650 -0.631439
O16   O     O_2   0.729047 0.790690 0.280452 -0.608234
Zn1   Zn    Zn3+2 0.306940 0.517990 0.510420 1.001512
Zn2   Zn    Zn3+2 0.693060 0.482010 0.489580 1.001512

loop_
_geom_bond_atom_site_label_1
_geom_bond_atom_site_label_2
_ccdc_geom_bond_type
C14   C23   A    
C24   N2    S    
C3    C30   A    
C2    C4    A    
C16   O16   D    
N1    Zn2   S    
C9    C10   A    
C17   O3    D    
C28   O14   A    
C18   C23   S    
C2    C13   A    
C3    C5    A    
O1    Zn1   S    
C1    O10   A    
H16   O2    S    
C21   C27   S    
N1    N2    D    
O9    Zn2   S    
O12   Zn1   S    
C11   C30   A    
C24   H11   S    
C9    C11   A    
C17   O4    S    
C18   H20   S    
C26   C27   D    
O14   Zn2   S    
C20   C26   S    
C2    H12   S    
H5    O6    S    
C29   O13   A    
C19   H2    S    
C28   O12   A    
C8    C10   A    
C4    C28   S    
C13   C23   A    
H17   O4    S    
C21   O7    D    
C8    C15   A    
C5    C7    A    
C30   H1    S    
C24   H13   S    
C16   O2    S    
C1    C26   S    
C4    C6    A    
C15   C25   A    
C15   H15   S    
C19   C25   S    
C20   O6    S    
O13   Zn2   S    
C22   H8    S    
C11   C25   A    
C7    C9    A    
C3    C29   S    
C12   O9    A    
O10   Zn2   S    
C21   O8    S    
C14   H14   S    
C19   H3    S    
C12   O11   A    
C6    C17   S    
C1    O1    A    
C24   H10   S    
C5    C16   S    
C6    C8    A    
N2    Zn1   S    
C12   C27   S    
H6    O8    S    
C20   O5    D    
C29   O15   A    
C22   H7    S    
C22   H9    S    
C10   C13   A    
C7    C14   A    
O11   Zn1   S    
C18   H19   S    
C22   N1    S    
O15   Zn1   S    
C19   H4    S    
C18   H18   S    
