data_str_m9_o2_o19_f0_sra.sym.104
_audit_creation_date              2012-12-11T16:28:21-0500
_audit_creation_method            fapswitch 2.2
_symmetry_space_group_name_H-M    P1
_symmetry_Int_Tables_number       1
_space_group_crystal_system       triclinic
_cell_length_a                    16.966365
_cell_length_b                    7.246205
_cell_length_c                    14.86528
_cell_angle_alpha                 90.310079
_cell_angle_beta                  94.384575
_cell_angle_gamma                 90.599203
_cell_volume                      1822.08005871

loop_
_atom_site_label
_atom_site_type_symbol
_atom_type_description
_atom_site_fract_x
_atom_site_fract_y
_atom_site_fract_z
_atom_type_partial_charge
O1    O     O_R   0.663460 0.361760 0.165970 -0.541943
O2    O     O_R   0.336540 0.638240 0.834030 -0.541956
O3    O     O_R   0.836540 0.861760 0.334030 -0.536052
O4    O     O_R   0.163460 0.138240 0.665970 -0.530025
O5    O     O_R   0.827100 0.689870 0.163730 -0.535871
O6    O     O_R   0.172900 0.310130 0.836270 -0.539500
O7    O     O_R   0.672900 0.189870 0.336270 -0.540082
O8    O     O_R   0.327100 0.810130 0.663730 -0.539285
C1    C     C_R   0.854408 0.523554 0.144972 0.710150
C2    C     C_R   0.145603 0.476431 0.855044 0.710521
C3    C     C_R   0.644694 0.023218 0.353824 0.705016
C4    C     C_R   0.355152 0.976991 0.645953 0.703676
O9    O     O_R   0.663490 0.691370 0.155500 -0.530306
O10   O     O_R   0.336510 0.308630 0.844500 -0.530516
O11   O     O_R   0.836510 0.191370 0.344500 -0.534186
O12   O     O_R   0.163490 0.808630 0.655500 -0.539524
O13   O     O_R   0.671770 0.863320 0.325740 -0.530875
O14   O     O_R   0.328230 0.136680 0.674260 -0.530903
O15   O     O_R   0.828230 0.363320 0.174260 -0.532319
O16   O     O_R   0.171770 0.636680 0.825740 -0.529094
C5    C     C_R   0.636592 0.521138 0.132846 0.672425
C6    C     C_R   0.363405 0.478850 0.867152 0.672039
C7    C     C_R   0.859911 0.022714 0.371549 0.664743
C8    C     C_R   0.139896 0.976766 0.628677 0.665528
H1    H     H_    0.090046 0.124224 0.210614 0.126470
H2    H     H_    0.912010 0.017775 0.797692 0.126895
H3    H     H_    0.419019 0.199022 0.262716 0.124179
H4    H     H_    0.581097 0.798751 0.736675 0.127304
O17   O     O_3   0.752910 0.528800 0.305860 -0.374979
O18   O     O_3   0.247090 0.471200 0.694140 -0.373056
O19   O     O_3   0.747090 0.028800 0.194140 -0.371977
O20   O     O_3   0.252910 0.971200 0.805860 -0.372651
V1    V     V_3+5 0.749460 0.803010 0.239640 1.412867
V2    V     V_3+5 0.250540 0.196990 0.760360 1.417990
V3    V     V_3+5 0.750540 0.303010 0.260360 1.405998
V4    V     V_3+5 0.249460 0.696990 0.739640 1.403974
C9    C     C_1   0.469204 0.995636 0.530583 -0.004756
C10   C     C_1   0.529976 0.006224 0.468409 -0.005684
C11   C     C_1   0.030724 0.494083 0.969370 -0.001337
C12   C     C_1   0.969322 0.505738 0.030698 -0.001530
H5    H     H_    0.791906 0.979989 0.702730 0.123975
H6    H     H_    0.208057 0.038239 0.299499 0.122558
H7    H     H_    0.703408 0.757180 0.830302 0.114644
H8    H     H_    0.296718 0.241017 0.169096 0.112655
C13   C     C_R   0.013417 0.074162 0.315758 -0.133286
C14   C     C_R   0.987394 0.000970 0.689174 -0.131061
C15   C     C_R   0.490143 0.348635 0.174177 -0.146186
C16   C     C_R   0.509939 0.650359 0.825569 -0.145863
C17   C     C_R   0.086103 0.084208 0.280249 -0.186856
C18   C     C_R   0.915016 0.004856 0.725405 -0.185464
C19   C     C_R   0.420418 0.269236 0.198706 -0.175993
C20   C     C_R   0.579702 0.729151 0.800833 -0.177288
C21   C     C_R   0.153291 0.034845 0.332071 -0.089260
C22   C     C_R   0.846639 0.983201 0.670079 -0.089250
C23   C     C_R   0.351379 0.291914 0.144727 -0.100602
C24   C     C_R   0.648744 0.706671 0.854828 -0.101799
C25   C     C_R   0.149807 0.978466 0.422294 0.119247
C26   C     C_R   0.848756 0.960799 0.576029 0.116953
C27   C     C_R   0.351031 0.396717 0.065601 0.143749
C28   C     C_R   0.649075 0.602620 0.934207 0.143615
C29   C     C_R   0.076374 0.994710 0.464786 0.004301
C30   C     C_R   0.922774 0.986592 0.535345 0.003859
C31   C     C_R   0.424919 0.441103 0.028856 0.027111
C32   C     C_R   0.575165 0.558578 0.971030 0.027244
C33   C     C_R   0.006207 0.027906 0.407346 0.069389
C34   C     C_R   0.993580 0.990929 0.594663 0.069471
C35   C     C_R   0.495214 0.430771 0.088302 0.056223
C36   C     C_R   0.504860 0.568805 0.911568 0.056332
C37   C     C_R   0.069664 0.983386 0.560609 -0.164044
C38   C     C_R   0.929736 0.012557 0.440128 -0.163669
C39   C     C_R   0.431252 0.497943 0.937642 -0.170426
C40   C     C_R   0.568796 0.501943 0.062291 -0.170438
C41   C     C_1   0.417467 0.986719 0.583287 -0.183920
C42   C     C_1   0.581935 0.014530 0.415959 -0.183898
C43   C     C_1   0.082945 0.484952 0.917312 -0.187120
C44   C     C_1   0.917088 0.514950 0.082736 -0.187613
H9    H     H_    0.963046 0.106624 0.269861 0.125333
H10   H     H_    0.038448 0.009267 0.737244 0.122691
H11   H     H_    0.539814 0.339183 0.223499 0.135814
H12   H     H_    0.460241 0.659689 0.776269 0.135768
C45   C     C_3   0.222891 0.892895 0.469339 -0.347899
C46   C     C_3   0.285941 0.824123 0.408807 -0.776266
H13   H     H_    0.258771 0.735199 0.353454 0.231304
H14   H     H_    0.318222 0.941941 0.380613 0.219762
H15   H     H_    0.329834 0.740367 0.449487 0.229014
H16   H     H_    0.250306 0.997766 0.516054 0.165509
H17   H     H_    0.204319 0.768849 0.505787 0.201818
C47   C     C_3   0.773305 0.899496 0.522486 -0.344070
C48   C     C_3   0.708318 0.815188 0.576435 -0.784476
H18   H     H_    0.732996 0.708024 0.623454 0.228861
H19   H     H_    0.678824 0.923859 0.614277 0.219569
H20   H     H_    0.662694 0.747639 0.529453 0.231178
H21   H     H_    0.749175 0.021060 0.485978 0.164368
H22   H     H_    0.788198 0.788327 0.475591 0.207383
C49   C     C_3   0.271904 0.477616 0.032631 -0.369561
C50   C     C_3   0.232790 0.582025 0.107172 -0.763691
H23   H     H_    0.211207 0.485764 0.157878 0.221379
H24   H     H_    0.275143 0.682767 0.141246 0.232861
H25   H     H_    0.181017 0.658972 0.077250 0.222767
H26   H     H_    0.277708 0.581692 0.979950 0.186450
H27   H     H_    0.232150 0.363847 0.006639 0.176966
C51   C     C_3   0.728238 0.522136 0.967385 -0.369083
C52   C     C_3   0.767289 0.416573 0.893177 -0.762432
H28   H     H_    0.724995 0.314874 0.859782 0.232049
H29   H     H_    0.788546 0.511921 0.841890 0.223769
H30   H     H_    0.819266 0.340572 0.923263 0.220305
H31   H     H_    0.768012 0.636219 0.992976 0.177598
H32   H     H_    0.722529 0.418809 0.020406 0.186306

loop_
_geom_bond_atom_site_label_1
_geom_bond_atom_site_label_2
_ccdc_geom_bond_type
C26   C30   A    
O1    C5    A    
C23   C27   A    
O3    C7    A    
C49   C50   S    
C15   H11   S    
C45   C46   S    
O7    C3    A    
O5    C1    A    
C18   C22   A    
O13   V1    S    
C32   C36   A    
C14   C34   A    
H2    C18   S    
H6    C21   S    
C10   C42   T    
O4    C8    A    
C34   C37   A    
O3    V1    S    
O2    V4    S    
C33   C38   A    
C50   H25   S    
C30   C38   A    
C35   C40   A    
O8    V4    S    
O11   V3    S    
C1    O15   A    
C2    O16   A    
C50   H24   S    
O2    C6    A    
C49   H27   S    
O19   V1    S    
C51   H32   S    
C1    C44   S    
C11   C43   T    
C48   H19   S    
C45   H16   S    
C14   C18   A    
O11   C7    A    
O12   C8    A    
C4    C41   S    
C7    C38   S    
C27   C49   S    
C28   C51   S    
C15   C35   A    
H3    C19   S    
C8    C37   S    
O4    V2    S    
C31   C35   A    
C30   C34   A    
C5    C40   S    
C11   C12   S    
C14   H10   S    
C21   C25   A    
C49   H26   S    
C15   C19   A    
O6    V2    S    
O5    V1    S    
O20   V2    S    
O9    V1    S    
C9    C10   S    
C2    C43   S    
C13   C17   A    
O8    C4    A    
C50   H23   S    
O9    C5    A    
C51   H31   S    
C52   H29   S    
C16   C36   A    
C48   H20   S    
O14   V2    S    
C45   H17   S    
C31   C39   A    
C46   H14   S    
C13   C33   A    
C25   C45   S    
C6    C39   S    
O1    V3    S    
C22   C26   A    
C29   C37   A    
C9    C41   T    
C47   H21   S    
C3    O13   A    
O7    V3    S    
C3    C42   S    
C26   C47   S    
O10   V2    S    
C25   C29   A    
C46   H15   S    
O17   V3    S    
C27   C31   A    
O18   V4    S    
C28   C32   A    
O10   C6    A    
O15   V3    S    
O12   V4    S    
H4    C20   S    
H8    C23   S    
C16   H12   S    
C36   C39   A    
C17   C21   A    
C52   H30   S    
C19   C23   A    
C32   C40   A    
C51   C52   S    
H1    C17   S    
H5    C22   S    
O6    C2    A    
O16   V4    S    
C29   C33   A    
H7    C24   S    
C16   C20   A    
C24   C28   A    
C47   C48   S    
C46   H13   S    
C12   C44   T    
C4    O14   A    
C52   H28   S    
C47   H22   S    
C13   H9    S    
C48   H18   S    
C20   C24   A    
