data_str_m3_o14_o22_f0_pcu.sym.186
_audit_creation_date              2012-12-10T17:47:42-0500
_audit_creation_method            fapswitch 2.2
_symmetry_space_group_name_H-M    P1
_symmetry_Int_Tables_number       1
_space_group_crystal_system       triclinic
_cell_length_a                    10.621703
_cell_length_b                    10.620315
_cell_length_c                    9.986184
_cell_angle_alpha                 88.320105
_cell_angle_beta                  90.293136
_cell_angle_gamma                 92.03738
_cell_volume                      1125.29445761

loop_
_atom_site_label
_atom_site_type_symbol
_atom_type_description
_atom_site_fract_x
_atom_site_fract_y
_atom_site_fract_z
_atom_type_partial_charge
C1    C     C_R   0.504033 0.260864 0.501734 0.838402
C2    C     C_3   0.878882 0.508249 0.500601 0.177678
C3    C     C_3   0.930639 0.609626 0.397503 -0.405019
C4    C     C_3   0.923996 0.377073 0.463096 -0.375289
C5    C     C_R   0.698097 0.131360 0.655566 -0.162183
C6    C     C_R   0.790389 0.065779 0.725198 -0.111651
C7    C     C_R   0.795588 0.935794 0.715827 -0.147989
C8    C     C_R   0.706823 0.870582 0.638757 -0.195780
C9    C     C_R   0.609357 0.934951 0.571608 0.104795
C10   C     C_R   0.605912 0.066439 0.578328 0.124859
C11   C     C_R   0.511296 0.128308 0.504589 -0.076206
C12   C     C_R   0.258439 0.505965 0.499637 0.806813
C13   C     C_R   0.423793 0.063667 0.425399 -0.207156
C14   C     C_R   0.425875 0.935401 0.421015 -0.199551
C15   C     C_R   0.515875 0.871886 0.495319 -0.100876
C16   C     C_R   0.312281 0.366432 0.147191 -0.137889
C17   C     C_R   0.201635 0.327067 0.086424 -0.324608
C18   C     C_R   0.192365 0.328939 0.948186 -0.009225
C19   C     C_R   0.302678 0.359530 0.872569 -0.043733
C20   C     C_R   0.403997 0.433204 0.931389 0.113966
C21   C     C_R   0.406025 0.434531 0.075222 0.172086
C22   C     C_R   0.590221 0.563053 0.069501 -0.109907
C23   C     C_R   0.504639 0.739209 0.498348 0.859778
C24   C     C_R   0.590252 0.563031 0.926957 -0.098666
C25   C     C_R   0.742054 0.504458 0.500217 0.796206
C26   C     C_3   0.073823 0.546932 0.639222 -0.359954
C27   C     C_3   0.930561 0.540751 0.641578 -0.387293
C28   C     C_3   0.075502 0.608933 0.394878 -0.399030
C29   C     C_3   0.068078 0.378242 0.462534 -0.392531
C30   C     C_3   0.121928 0.509990 0.499360 0.180765
H1    H     H_    0.108687 0.644142 0.662029 0.162761
H2    H     H_    0.887487 0.351392 0.362415 0.168778
H3    H     H_    0.106953 0.586152 0.292463 0.192433
H4    H     H_    0.893755 0.590627 0.295257 0.181415
H5    H     H_    0.352139 0.112751 0.368789 0.144076
H6    H     H_    0.701007 0.232592 0.662855 0.159620
H7    H     H_    0.858691 0.116076 0.785789 0.178418
H8    H     H_    0.868914 0.885401 0.767848 0.134413
H9    H     H_    0.716345 0.770111 0.631260 0.135281
H10   H     H_    0.354822 0.885137 0.362850 0.152849
H11   H     H_    0.664197 0.615030 0.121195 0.138295
H12   H     H_    0.109284 0.483695 0.719842 0.217512
H13   H     H_    0.322376 0.340052 0.250125 0.205021
H14   H     H_    0.126769 0.284037 0.147218 0.139437
H15   H     H_    0.664158 0.614951 0.872620 0.136206
H16   H     H_    0.898261 0.467746 0.717399 0.203761
H17   H     H_    0.895742 0.632950 0.672923 0.150594
H18   H     H_    0.115466 0.704317 0.417544 0.157567
H19   H     H_    0.899661 0.704558 0.424795 0.160547
H20   H     H_    0.100673 0.353995 0.361484 0.152177
H21   H     H_    0.102718 0.304579 0.533113 0.207646
H22   H     H_    0.888086 0.303811 0.536418 0.182218
N1    N     N_R   0.498810 0.498800 0.142780 -0.118833
N2    N     N_R   0.498760 0.498720 0.857170 -0.115985
O1    O     O_R   0.500000 0.316780 0.614690 -0.612942
O2    O     O_R   0.499990 0.316750 0.385360 -0.629170
O3    O     O_R   0.314800 0.499990 0.614670 -0.644982
O4    O     O_R   0.314790 0.499970 0.385330 -0.644154
O5    O     O_R   0.500010 0.683250 0.614640 -0.608242
O6    O     O_R   0.500000 0.683220 0.385310 -0.611298
O7    O     O_R   0.685210 0.500030 0.614670 -0.642387
O8    O     O_R   0.685200 0.500010 0.385330 -0.622091
Zn1   Zn    Zn3+2 0.500010 0.500020 0.653130 0.942314
Zn2   Zn    Zn3+2 0.499990 0.499980 0.346870 0.930632
C31   C     C_2   0.074839 0.271197 0.891408 0.302426
H23   H     H_    0.997006 0.243535 0.957274 0.079470
O9    O     O_2   0.062332 0.254099 0.771963 -0.663377
C32   C     C_2   0.331346 0.257452 0.783982 0.573778
H24   H     H_    0.281711 0.247065 0.689542 0.073758
O10   O     O_2   0.406191 0.178352 0.819986 -0.580751

loop_
_geom_bond_atom_site_label_1
_geom_bond_atom_site_label_2
_ccdc_geom_bond_type
C24   N2    A    
C2    C4    S    
O2    Zn2   S    
C20   N2    A    
C26   C30   S    
C29   C30   S    
C8    H9    S    
C25   O8    A    
C21   N1    A    
C9    C10   A    
C6    C7    A    
O5    Zn1   S    
C19   C20   A    
C1    C11   S    
O6    Zn2   S    
C12   O4    A    
C22   N1    A    
C28   C30   S    
C17   C18   A    
C1    O1    A    
C6    H7    S    
C7    C8    A    
C25   O7    A    
C13   C14   A    
C18   C31   S    
C23   O5    A    
C11   C13   A    
C16   H13   S    
C26   C27   S    
C2    C27   S    
C4    H22   S    
C5    C6    A    
C12   O3    A    
C27   H16   S    
C15   C23   S    
C3    C28   S    
C7    H8    S    
C29   H21   S    
C28   H3    S    
O3    Zn1   S    
C2    C25   S    
C2    C3    S    
C29   H20   S    
C3    H19   S    
C23   O6    A    
C32   H24   S    
N1    Zn2   S    
C22   C24   A    
C17   H14   S    
C22   H11   S    
C16   C17   A    
N2    Zn1   S    
C24   H15   S    
C14   H10   S    
C4    H2    S    
C5    H6    S    
C5    C10   A    
C20   C21   A    
C26   H12   S    
C32   O10   D    
C31   H23   S    
C10   C11   A    
C27   H17   S    
O7    Zn1   S    
C16   C21   A    
C14   C15   A    
C18   C19   A    
O8    Zn2   S    
O4    Zn2   S    
C12   C30   S    
C3    H4    S    
C9    C15   A    
C26   H1    S    
C1    O2    A    
C13   H5    S    
C28   H18   S    
C4    C29   S    
C19   C32   S    
C8    C9    A    
C31   O9    D    
O1    Zn1   S    
