data_str_m12_o9_o13_f0_bcu.sym.56
_audit_creation_date              2012-12-11T17:43:37-0500
_audit_creation_method            fapswitch 2.2
_symmetry_space_group_name_H-M    P1
_symmetry_Int_Tables_number       1
_space_group_crystal_system       triclinic
_cell_length_a                    15.093017
_cell_length_b                    15.202761
_cell_length_c                    16.981099
_cell_angle_alpha                 107.991643
_cell_angle_beta                  105.979762
_cell_angle_gamma                 109.145246
_cell_volume                      3178.54425409

loop_
_atom_site_label
_atom_site_type_symbol
_atom_type_description
_atom_site_fract_x
_atom_site_fract_y
_atom_site_fract_z
_atom_type_partial_charge
C1    C     C_R   0.092115 0.279292 0.042483 -0.134643
C2    C     C_R   0.066931 0.053959 0.941603 -0.239189
C3    C     C_R   0.993013 0.892861 0.949525 0.055945
C4    C     C_R   0.005544 0.085672 0.980260 0.063557
C5    C     C_R   0.061822 0.956668 0.926140 0.039978
C6    C     C_R   0.937750 0.021155 0.003827 0.021670
C7    C     C_R   0.782306 0.033957 0.021069 -0.167022
C8    C     C_R   0.233776 0.986054 0.922564 -0.161302
C9    C     C_R   0.782622 0.095839 0.170841 -0.226843
C10   C     C_R   0.250706 0.857182 0.809408 -0.226917
C11   C     C_R   0.496944 0.685191 0.348257 -0.121003
C12   C     C_R   0.911516 0.711092 0.924892 -0.149764
C13   C     C_R   0.512471 0.372705 0.727084 -0.114097
C14   C     C_R   0.503427 0.671577 0.265056 -0.134432
C15   C     C_R   0.521499 0.404323 0.816678 -0.124120
C16   C     C_R   0.937076 0.451332 0.736809 -0.061174
C17   C     C_R   0.064113 0.488587 0.256398 -0.122236
C18   C     C_R   0.523454 0.591009 0.219469 0.116846
C19   C     C_R   0.533662 0.503877 0.865967 0.117517
C20   C     C_R   0.537233 0.524832 0.258892 -0.169131
C21   C     C_R   0.535164 0.570413 0.823833 -0.190315
C22   C     C_R   0.530325 0.538611 0.341883 -0.094063
C23   C     C_R   0.029018 0.464999 0.727874 0.074704
C24   C     C_R   0.526704 0.538558 0.734446 -0.113115
C25   C     C_R   0.510140 0.618694 0.386500 -0.094391
C26   C     C_R   0.515506 0.439821 0.686154 -0.083255
C27   C     C_R   0.612899 0.562347 0.118515 -0.240276
C28   C     C_R   0.463463 0.556805 0.974737 -0.231737
C29   C     C_R   0.617558 0.542545 0.034168 0.066047
C30   C     C_R   0.454997 0.571304 0.057042 0.063318
C31   C     C_R   0.541360 0.537784 0.960650 0.013180
C32   C     C_R   0.530151 0.575453 0.130884 0.018694
C33   C     C_R   0.731375 0.055965 0.076217 -0.085901
C34   C     C_R   0.973296 0.432576 0.260419 0.071243
C35   C     C_R   0.295260 0.953096 0.885034 -0.066981
C36   C     C_R   0.965379 0.398413 0.330945 0.122450
C37   C     C_R   0.037635 0.422628 0.641782 0.137842
C38   C     C_R   0.140304 0.444516 0.555821 -0.187064
C39   C     C_R   0.862036 0.331003 0.404437 -0.251012
C40   C     C_R   0.719812 0.219335 0.827127 -0.008890
C41   C     C_R   0.267303 0.790645 0.182248 -0.011237
C42   C     C_R   0.134404 0.454462 0.638199 -0.196267
C43   C     C_R   0.868486 0.350014 0.330952 -0.183548
C44   C     C_R   0.947423 0.365757 0.560511 -0.227945
C45   C     C_R   0.666025 0.224258 0.750316 0.020683
C46   C     C_R   0.055319 0.420387 0.402285 -0.239965
C47   C     C_R   0.952533 0.363929 0.479956 0.188144
C48   C     C_R   0.049815 0.406759 0.478225 0.209403
C49   C     C_R   0.585049 0.138567 0.669415 0.160713
C50   C     C_R   0.385421 0.878767 0.348133 0.162826
C51   C     C_R   0.562973 0.000072 0.441121 -0.232757
C52   C     C_R   0.407045 0.017440 0.576859 -0.228053
C53   C     C_R   0.486546 0.923938 0.357141 -0.110604
C54   C     C_R   0.483716 0.095631 0.660448 -0.107015
C55   C     C_R   0.358053 0.909147 0.419963 -0.276285
C56   C     C_R   0.307024 0.792758 0.266518 0.011204
C57   C     C_R   0.611914 0.105091 0.597822 -0.287353
C58   C     C_R   0.433191 0.985338 0.503666 0.174404
C59   C     C_R   0.536573 0.030091 0.514293 0.179383
C60   C     C_R   0.885989 0.115690 0.211164 0.026588
C61   C     C_R   0.143900 0.793360 0.770316 0.016970
C62   C     C_R   0.938404 0.098548 0.155784 -0.125413
C63   C     C_R   0.082322 0.826521 0.808597 -0.121836
C64   C     C_R   0.299974 0.595563 0.004287 -0.180793
C65   C     C_R   0.733361 0.457510 0.043771 -0.156206
C66   C     C_R   0.886697 0.056985 0.060732 0.082125
C67   C     C_R   0.356530 0.561006 0.053307 0.060050
C68   C     C_R   0.126904 0.922739 0.885056 0.070448
C69   C     C_R   0.726787 0.313325 0.749562 -0.195387
C70   C     C_R   0.255758 0.696491 0.261353 -0.170212
C71   C     C_R   0.293706 0.496795 0.077805 -0.115577
C72   C     C_R   0.746690 0.558606 0.970563 -0.101828
C73   C     C_R   0.109795 0.535263 0.813038 -0.144982
C74   C     C_R   0.892163 0.403151 0.179491 -0.133896
C75   C     C_R   0.919257 0.195037 0.961611 -0.128708
C76   C     C_R   0.082945 0.797032 0.002297 -0.111343
C77   C     C_R   0.007273 0.183059 0.990307 0.069053
C78   C     C_R   0.701890 0.526605 0.023271 0.056165
C79   C     C_R   0.996617 0.802045 0.954400 0.054502
C80   C     C_2   0.936303 0.148501 0.310146 0.501160
C81   C     C_2   0.097935 0.692936 0.689373 0.489281
C82   C     C_2   0.675090 0.156292 0.869845 0.425013
C83   C     C_2   0.316698 0.863950 0.149767 0.450509
C84   C     C_R   0.930035 0.923841 0.985412 -0.227582
H1    H     H_    0.171292 0.296664 0.079370 0.102143
H2    H     H_    0.518877 0.351459 0.847549 0.109921
H3    H     H_    0.552023 0.461745 0.224834 0.112965
H4    H     H_    0.543810 0.647154 0.860579 0.118137
H5    H     H_    0.540485 0.487062 0.371543 0.115457
H6    H     H_    0.528628 0.590354 0.702557 0.111946
H7    H     H_    0.673346 0.566588 0.174094 0.136623
H8    H     H_    0.402791 0.549024 0.916901 0.132567
H9    H     H_    0.130550 0.455139 0.402752 0.113483
H10   H     H_    0.872082 0.334445 0.560657 0.107273
H11   H     H_    0.797578 0.330695 0.276509 0.123948
H12   H     H_    0.833781 0.686960 0.877852 0.105892
H13   H     H_    0.205554 0.494213 0.699316 0.118244
H14   H     H_    0.215533 0.475654 0.554937 0.125699
H15   H     H_    0.786877 0.297568 0.404940 0.138561
H16   H     H_    0.859190 0.403028 0.685186 0.087550
H17   H     H_    0.142381 0.512559 0.301741 0.088223
H18   H     H_    0.651101 0.039051 0.045391 0.124761
H19   H     H_    0.377717 0.001980 0.914706 0.128064
H20   H     H_    0.691661 0.139948 0.606983 0.134138
H21   H     H_    0.278453 0.872251 0.410506 0.138941
H22   H     H_    0.464304 0.123925 0.716938 0.138825
H23   H     H_    0.740058 0.997500 0.947625 0.128181
H24   H     H_    0.506263 0.898271 0.300353 0.122922
H25   H     H_    0.642069 0.034697 0.449112 0.130824
H26   H     H_    0.327923 0.983582 0.568916 0.138050
H27   H     H_    0.740998 0.109169 0.212413 0.118549
H28   H     H_    0.299574 0.832989 0.781126 0.120420
H29   H     H_    0.017726 0.111912 0.185792 0.154408
H30   H     H_    0.999701 0.777963 0.778889 0.149470
H31   H     H_    0.328234 0.654448 0.982098 0.096559
H32   H     H_    0.708875 0.414741 0.080509 0.101845
H33   H     H_    0.704588 0.343959 0.701879 0.117727
H34   H     H_    0.269697 0.060226 0.981670 0.121275
H35   H     H_    0.273841 0.669687 0.312938 0.111050
H36   H     H_    0.315173 0.461827 0.121705 0.104029
H37   H     H_    0.736713 0.610697 0.941916 0.105130
H38   H     H_    0.191530 0.563714 0.830991 0.093694
H39   H     H_    0.812926 0.346529 0.153816 0.088885
H40   H     H_    0.841454 0.134498 0.921039 0.096699
H41   H     H_    0.161473 0.853723 0.027229 0.108425
H42   H     H_    0.881059 0.875324 0.006902 0.139307
H43   H     H_    0.117372 0.104409 0.922630 0.135161
H44   H     H_    0.891672 0.151399 0.350354 0.009432
H45   H     H_    0.504832 0.629308 0.450773 0.105218
H46   H     H_    0.147120 0.667999 0.661859 0.005524
H47   H     H_    0.714337 0.181351 0.942492 0.011204
H48   H     H_    0.304801 0.835947 0.078906 -0.004839
H49   H     H_    0.508741 0.415131 0.616872 0.109101
H50   H     H_    0.481750 0.747248 0.383355 0.120610
H51   H     H_    0.502809 0.296095 0.689118 0.115448
H52   H     H_    0.493091 0.723730 0.236245 0.102867
N1    N     N_R   0.055660 0.348550 0.045620 -0.039314
N2    N     N_R   0.185200 0.638170 0.176300 -0.039359
N3    N     N_R   0.201680 0.494570 0.045620 -0.038754
N4    N     N_R   0.798320 0.505430 0.954380 -0.039897
N5    N     N_R   0.068420 0.560530 0.871650 -0.042964
N6    N     N_R   0.931580 0.439470 0.128350 -0.040865
N7    N     N_R   0.948070 0.295860 0.997670 -0.049702
N8    N     N_R   0.051930 0.704140 0.002330 -0.049817
N9    N     N_R   0.944340 0.651450 0.954380 -0.037149
N10   N     N_R   0.960830 0.507850 0.823700 -0.043427
N11   N     N_R   0.039170 0.492150 0.176300 -0.037721
N12   N     N_R   0.811290 0.303410 0.871650 -0.077691
N13   N     N_R   0.188710 0.696590 0.128350 -0.075608
N14   N     N_R   0.205200 0.552990 0.997670 -0.039394
N15   N     N_R   0.794800 0.447010 0.002330 -0.047466
N16   N     N_R   0.814800 0.361830 0.823700 -0.043407
Ni1   Ni    Ni4+2 0.119340 0.493420 0.109960 0.215471
Ni2   Ni    Ni4+2 0.880660 0.506580 0.890040 0.221269
Ni3   Ni    Ni4+2 0.872590 0.372590 0.000000 0.203642
Ni4   Ni    Ni4+2 0.127410 0.627410 0.000000 0.204533
O1    O     O_2   0.027685 0.171785 0.347914 -0.585357
O2    O     O_2   0.004830 0.637019 0.652201 -0.587483
O3    O     O_2   0.594439 0.076239 0.825038 -0.598648
O4    O     O_2   0.371476 0.955746 0.201454 -0.579373

loop_
_geom_bond_atom_site_label_1
_geom_bond_atom_site_label_2
_ccdc_geom_bond_type
C9    H27   S    
C12   C79   A    
N8    Ni4   S    
C75   N7    A    
C72   H37   S    
C27   C29   A    
C1    C77   A    
C14   C18   A    
C76   C79   A    
C38   H14   S    
C19   C31   S    
C80   O1    D    
C8    H34   S    
C73   N5    A    
C15   C19   A    
C71   H36   S    
C55   H21   S    
C16   N10   A    
C17   N11   A    
N13   Ni4   S    
C24   C26   A    
C38   C42   A    
C35   H19   S    
C11   C14   A    
C57   C59   A    
C41   N13   A    
N3    Ni1   S    
C49   C54   A    
C41   C83   S    
C20   H3    S    
C49   C57   A    
C60   C62   A    
C37   C42   A    
C61   C63   A    
C17   H17   S    
C72   C78   A    
C63   H30   S    
N7    Ni3   S    
C29   C78   S    
C83   H48   S    
C22   C25   A    
C43   H11   S    
C27   H7    S    
C10   C35   A    
C81   O2    D    
N12   Ni3   S    
N15   Ni3   S    
N6    Ni3   S    
C67   C71   A    
C30   C67   S    
C44   C47   A    
C2    H43   S    
C74   H39   S    
C74   N6    A    
C21   H4    S    
C25   H45   S    
C51   H25   S    
C64   H31   S    
N14   Ni4   S    
C9    C33   A    
C76   H41   S    
C13   H51   S    
C75   H40   S    
C23   C73   A    
C5    C68   S    
C52   C54   A    
N2    N13   A    
C84   H42   S    
C40   C45   A    
C46   C48   A    
C50   C53   A    
C6    C84   A    
C54   H22   S    
C45   C69   A    
C33   H18   S    
C64   C67   A    
C40   C82   S    
C62   H29   S    
C4    C6    A    
C42   H13   S    
C7    C33   A    
C62   C66   A    
C16   H16   S    
C39   C43   A    
C80   H44   S    
C58   C59   A    
C23   C37   S    
C50   C56   S    
C83   O4    D    
C64   N14   A    
C10   H28   S    
C51   C53   A    
C8    C35   A    
C12   N9    A    
C65   N15   A    
C2    C4    A    
C41   C56   A    
C39   H15   S    
C47   C48   A    
N10   Ni2   S    
C52   H26   S    
C70   H35   S    
C45   C49   S    
N1    Ni1   S    
C28   H8    S    
C36   C46   A    
C75   C77   A    
N4    N15   A    
C3    C79   S    
C52   C58   A    
N5    N10   A    
C34   C74   A    
C15   H2    S    
N9    Ni2   S    
C76   N8    A    
N2    Ni1   S    
N16   Ni2   S    
C8    C68   A    
C16   C23   A    
C56   C70   A    
C13   C15   A    
C65   H32   S    
C7    H23   S    
C13   C26   A    
C11   H50   S    
C1    H1    S    
C18   C32   S    
C17   C34   A    
C21   C24   A    
C72   N4    A    
C1    N1    A    
C39   C47   A    
C57   H20   S    
C63   C68   A    
C60   C80   S    
C40   N12   A    
C65   C78   A    
C19   C21   A    
C27   C32   A    
C69   N16   A    
C38   C48   A    
N6    N11   A    
C28   C31   A    
N12   N16   A    
C20   C22   A    
N8    N9    A    
C3    C5    A    
C24   H6    S    
C71   N3    A    
C2    C5    A    
N5    Ni4   S    
C70   N2    A    
N3    N14   A    
C50   C55   A    
C9    C60   A    
C37   C44   A    
C28   C30   A    
C4    C77   S    
C29   C31   A    
C26   H49   S    
C61   C81   S    
C7    C66   A    
C30   C32   A    
C82   O3    D    
C53   H24   S    
C81   H46   S    
C46   H9    S    
C14   H52   S    
C69   H33   S    
C22   H5    S    
C18   C20   A    
N1    N7    A    
N11   Ni1   S    
C44   H10   S    
C10   C61   A    
C6    C66   S    
C51   C59   A    
C34   C36   S    
C73   H38   S    
C55   C58   A    
C3    C84   A    
C11   C25   A    
C12   H12   S    
C36   C43   A    
C82   H47   S    
N4    Ni2   S    
