data_str_m3_o10_o16_f0_pcu.sym.51
_audit_creation_date              2012-12-10T16:51:32-0500
_audit_creation_method            fapswitch 2.2
_symmetry_space_group_name_H-M    P1
_symmetry_Int_Tables_number       1
_space_group_crystal_system       triclinic
_cell_length_a                    7.851005
_cell_length_b                    8.567805
_cell_length_c                    12.447049
_cell_angle_alpha                 92.656412
_cell_angle_beta                  102.556104
_cell_angle_gamma                 93.81907
_cell_volume                      813.830717325

loop_
_atom_site_label
_atom_site_type_symbol
_atom_type_description
_atom_site_fract_x
_atom_site_fract_y
_atom_site_fract_z
_atom_type_partial_charge
C1    C     C_R   0.043866 0.794352 0.496773 0.938516
C2    C     C_R   0.190922 0.601900 0.820650 -0.128460
C3    C     C_2   0.066133 0.957775 0.494186 -0.357844
C4    C     C_R   0.114655 0.536332 0.706832 0.863561
C5    C     C_2   0.932247 0.041910 0.503667 -0.371847
C6    C     C_R   0.955650 0.205557 0.502465 0.981630
C7    C     C_R   0.889940 0.485927 0.290968 0.879055
C8    C     C_R   0.844397 0.408775 0.985355 -0.224515
C9    C     C_R   0.828056 0.480444 0.172331 -0.142643
C10   C     C_R   0.084674 0.661721 0.886947 -0.213511
C11   C     C_R   0.151703 0.695773 0.999384 -0.114962
C12   C     C_R   0.433498 0.606990 0.980905 0.080951
C13   C     C_R   0.321835 0.661547 0.047465 -0.133207
C14   C     C_2   0.066135 0.312773 0.132442 0.930188
C15   C     C_2   0.473594 0.306063 0.436952 1.151933
C16   C     C_R   0.372581 0.600875 0.865890 0.095410
C17   C     C_R   0.600475 0.551507 0.022185 0.080288
C18   C     C_R   0.695523 0.488270 0.947780 0.132481
C19   C     C_R   0.645352 0.513306 0.836873 -0.248120
C20   C     C_R   0.495847 0.587628 0.799991 -0.170869
C21   C     C_R   0.673365 0.551805 0.133868 -0.196840
C22   C     C_R   0.911804 0.402894 0.097779 -0.039119
H1    H     H_    0.805794 0.991280 0.512847 0.196687
H2    H     H_    0.360869 0.678318 0.135969 0.154002
H3    H     H_    0.475281 0.630382 0.719032 0.166357
H4    H     H_    0.192151 0.008216 0.484608 0.218965
H5    H     H_    0.723636 0.479883 0.779517 0.190144
H6    H     H_    0.068174 0.740247 0.050520 0.165109
H7    H     H_    0.164815 0.101253 0.136947 0.342498
H8    H     H_    0.528569 0.165573 0.316582 0.312392
H9    H     H_    0.530597 0.649231 0.556284 0.170310
H10   H     H_    0.911097 0.355240 0.927003 0.159950
H11   H     H_    0.612276 0.609376 0.192638 0.171922
H12   H     H_    0.950169 0.681515 0.852095 0.168420
N1    N     N_2   0.434800 0.456690 0.470850 -0.149020
N2    N     N_2   0.565200 0.543310 0.529150 -0.220802
O1    O     O_R   0.893060 0.738880 0.507150 -0.623035
O2    O     O_R   0.050070 0.150274 0.111138 -0.811118
O3    O     O_2   0.473686 0.199237 0.498715 -0.679518
O4    O     O_R   0.504192 0.278325 0.331573 -0.774926
O5    O     O_R   0.172250 0.711130 0.488470 -0.639700
O6    O     O_R   0.944700 0.520730 0.667600 -0.636195
O7    O     O_R   0.223890 0.492980 0.648920 -0.622880
O8    O     O_R   0.827750 0.288870 0.511530 -0.610699
O9    O     O_R   0.106940 0.261120 0.492850 -0.606145
O10   O     O_R   0.776110 0.507020 0.351080 -0.590555
O11   O     O_R   0.055300 0.479270 0.332400 -0.601076
O12   O     O_2   0.208440 0.380593 0.174682 -0.592729
Zn1   Zn    Zn3+2 0.813580 0.518530 0.512470 0.962488
Zn2   Zn    Zn3+2 0.186420 0.481470 0.487530 0.987080

loop_
_geom_bond_atom_site_label_1
_geom_bond_atom_site_label_2
_ccdc_geom_bond_type
H7    O2    S    
C12   C17   A    
C8    C22   A    
O7    Zn2   S    
C6    O9    A    
C14   O2    S    
C2    C16   A    
C2    C4    S    
N1    N2    D    
C5    H1    S    
C1    O1    A    
C16   C20   A    
C15   O3    D    
C14   C22   S    
N1    Zn2   S    
C17   C18   A    
H8    O4    S    
C10   H12   S    
C6    O8    A    
C11   C13   A    
O10   Zn1   S    
C9    C21   A    
O1    Zn1   S    
C4    O6    A    
C11   H6    S    
O9    Zn2   S    
C15   N1    S    
C4    O7    A    
O11   Zn2   S    
C3    H4    S    
C5    C6    S    
C15   O4    S    
C17   C21   A    
C9    C22   A    
C21   H11   S    
C10   C11   A    
O6    Zn1   S    
C2    C10   A    
C7    O10   A    
C12   C16   A    
O5    Zn2   S    
C19   H5    S    
C12   C13   A    
C18   C19   A    
C20   H3    S    
C1    O5    A    
C7    C9    S    
H9    N2    S    
C14   O12   D    
C3    C5    D    
O8    Zn1   S    
C8    C18   A    
N2    Zn1   S    
C19   C20   A    
C13   H2    S    
C7    O11   A    
C1    C3    S    
C8    H10   S    
