data_str_m2_o16_o16_f0_pcu.sym.93
_audit_creation_date              2013-03-05T15:54:34-0500
_audit_creation_method            fapswitch 2.2
_symmetry_space_group_name_H-M    P1
_symmetry_Int_Tables_number       1
_space_group_crystal_system       triclinic
_cell_length_a                    19.165916
_cell_length_b                    18.443577
_cell_length_c                    12.330016
_cell_angle_alpha                 90.324619
_cell_angle_beta                  129.40752
_cell_angle_gamma                 89.740377
_cell_volume                      3367.54990413

loop_
_atom_site_label
_atom_site_type_symbol
_atom_site_description
_atom_site_fract_x
_atom_site_fract_y
_atom_site_fract_z
_atom_type_partial_charge
O1    O     O_R   0.608610 0.924520 0.551740 -0.515559
O2    O     O_R   0.608610 0.075480 0.551740 -0.533552
O3    O     O_R   0.108610 0.424520 0.551740 -0.515592
O4    O     O_R   0.108610 0.575480 0.551740 -0.533582
O5    O     O_R   0.564110 0.924510 0.685150 -0.614250
O6    O     O_R   0.564110 0.075490 0.685150 -0.616255
O7    O     O_R   0.064110 0.424510 0.685150 -0.614232
O8    O     O_R   0.064110 0.575490 0.685150 -0.616212
C1    C     C_R   0.614469 0.899516 0.656059 0.817785
C2    C     C_R   0.611641 0.102627 0.652926 0.834161
C3    C     C_R   0.114479 0.399524 0.656072 0.817685
C4    C     C_R   0.111629 0.602636 0.652907 0.833927
Cu1   Cu    Cu3+1 0.526340 0.000000 0.421010 1.024784
Cu2   Cu    Cu3+1 0.026340 0.500000 0.421010 1.024764
Cu3   Cu    Cu3+1 0.473640 0.000000 0.578990 0.923708
Cu4   Cu    Cu3+1 0.973640 0.500000 0.578990 0.923700
O9    O     O_R   0.435880 0.075470 0.314850 -0.585056
O10   O     O_R   0.435880 0.924530 0.314850 -0.579121
O11   O     O_R   0.935880 0.575470 0.314850 -0.585024
O12   O     O_R   0.935880 0.424530 0.314850 -0.579135
O13   O     O_R   0.391380 0.075460 0.448260 -0.598575
O14   O     O_R   0.391380 0.924540 0.448260 -0.596786
O15   O     O_R   0.891380 0.575460 0.448260 -0.598578
O16   O     O_R   0.891380 0.424540 0.448260 -0.596782
C5    C     C_R   0.385036 0.099658 0.343607 0.805679
C6    C     C_R   0.385366 0.900185 0.343282 0.816561
C7    C     C_R   0.885041 0.599662 0.343614 0.805696
C8    C     C_R   0.885364 0.400187 0.343279 0.816577
C9    C     C_R   0.683355 0.276702 0.166971 0.351586
C10   C     C_R   0.674698 0.714590 0.156268 0.355716
C11   C     C_R   0.183340 0.776714 0.166950 0.351586
C12   C     C_R   0.174606 0.214477 0.156091 0.355817
H1    H     H_    0.266571 0.835852 0.362023 0.198707
H2    H     H_    0.245467 0.143616 0.334484 0.188726
H3    H     H_    0.766594 0.335833 0.362051 0.198714
H4    H     H_    0.745574 0.643734 0.334677 0.188807
C13   C     C_R   0.314149 0.848132 0.245910 -0.124574
C14   C     C_R   0.316644 0.154879 0.253073 -0.113574
C15   C     C_R   0.814145 0.348139 0.245902 -0.124584
C16   C     C_R   0.816667 0.654902 0.253108 -0.113578
C17   C     C_R   0.735220 0.189075 0.720947 0.318158
C18   C     C_R   0.772321 0.854144 0.786868 0.303695
C19   C     C_R   0.235117 0.689144 0.720760 0.318162
C20   C     C_R   0.272365 0.354208 0.786976 0.303595
C21   C     C_R   0.277549 0.756005 0.775110 -0.184926
C22   C     C_R   0.351092 0.338192 0.921489 -0.219314
C23   C     C_R   0.777596 0.255968 0.775201 -0.184851
C24   C     C_R   0.851062 0.838133 0.921369 -0.219301
C25   C     C_R   0.267952 0.796294 0.860908 0.141854
C26   C     C_R   0.347937 0.308519 0.022111 0.080004
C27   C     C_R   0.767938 0.296290 0.860896 0.141797
C28   C     C_R   0.847933 0.808478 0.022028 0.079901
C29   C     C_R   0.717950 0.266395 0.899138 0.102983
C30   C     C_R   0.763255 0.786602 0.982160 0.085583
C31   C     C_R   0.217965 0.766391 0.899149 0.102940
C32   C     C_R   0.263251 0.286612 0.982180 0.085569
C33   C     C_R   0.655642 0.210898 0.813342 -0.036753
C34   C     C_R   0.683302 0.810343 0.852076 -0.042224
C35   C     C_R   0.155642 0.710904 0.813334 -0.036726
C36   C     C_R   0.183308 0.310341 0.852070 -0.042250
C37   C     C_R   0.228050 0.787428 0.019641 0.017754
C38   C     C_R   0.254977 0.244057 0.068684 0.024656
C39   C     C_R   0.728036 0.287439 0.019627 0.017766
C40   C     C_R   0.755000 0.744072 0.068709 0.024618
C41   C     C_R   0.664107 0.264328 0.035867 0.028755
C42   C     C_R   0.673681 0.745072 0.049656 0.019991
C43   C     C_R   0.164103 0.764331 0.035855 0.028771
C44   C     C_R   0.173628 0.245011 0.049550 0.019918
C45   C     C_R   0.584203 0.230250 0.919513 0.160102
C46   C     C_R   0.593687 0.768458 0.918373 0.126841
C47   C     C_R   0.084193 0.730265 0.919484 0.160154
C48   C     C_R   0.093650 0.268407 0.918255 0.126619
C49   C     C_R   0.581908 0.202747 0.811628 -0.148333
C50   C     C_R   0.599502 0.795294 0.818508 -0.129526
C51   C     C_R   0.081906 0.702758 0.811611 -0.148286
C52   C     C_R   0.099496 0.295265 0.818438 -0.129437
C53   C     C_R   0.305139 0.824562 0.130399 -0.211600
C54   C     C_R   0.321705 0.193735 0.162092 -0.243564
C55   C     C_R   0.805119 0.324585 0.130370 -0.211619
C56   C     C_R   0.821708 0.693730 0.162080 -0.243534
C57   C     C_R   0.254475 0.822945 0.265561 -0.228575
C58   C     C_R   0.246112 0.168981 0.256178 -0.233443
C59   C     C_R   0.754487 0.322937 0.265576 -0.228636
C60   C     C_R   0.746185 0.669064 0.256312 -0.233456
C61   C     C_R   0.667834 0.167998 0.729748 -0.220616
C62   C     C_R   0.688343 0.849054 0.758051 -0.204236
C63   C     C_R   0.167800 0.668025 0.729684 -0.220624
C64   C     C_R   0.188368 0.349077 0.758088 -0.204245
H5    H     H_    0.360041 0.834723 0.129389 0.203479
H6    H     H_    0.375709 0.181742 0.159267 0.186113
H7    H     H_    0.860008 0.334763 0.129335 0.203474
H8    H     H_    0.875676 0.681700 0.159189 0.186104
H9    H     H_    0.319341 0.776590 0.751583 0.174421
H10   H     H_    0.415627 0.352136 0.949906 0.188107
H11   H     H_    0.819415 0.276544 0.751728 0.174553
H12   H     H_    0.915588 0.852060 0.949739 0.188109
H13   H     H_    0.519421 0.178592 0.722863 0.186678
H14   H     H_    0.537333 0.804893 0.713358 0.171864
H15   H     H_    0.019417 0.678612 0.722831 0.186678
H16   H     H_    0.037341 0.304865 0.713273 0.171842
C65   C     C_R   0.688724 0.001791 0.296518 0.284971
C66   C     C_R   0.188723 0.501869 0.296516 0.284822
H17   H     H_    0.702487 0.002810 0.483404 0.217191
H18   H     H_    0.202484 0.502882 0.483405 0.217194
N1    N     N_R   0.566260 0.000000 0.302220 -0.226122
N2    N     N_R   0.066260 0.500000 0.302220 -0.226109
C67   C     C_R   0.343126 0.006520 0.632676 0.314544
C68   C     C_R   0.843126 0.506525 0.632674 0.314551
C69   C     C_R   0.315063 0.025639 0.711569 0.095175
C70   C     C_R   0.815062 0.525643 0.711566 0.095172
C71   C     C_R   0.380083 0.038508 0.856065 0.123037
C72   C     C_R   0.880081 0.538508 0.856063 0.123049
C73   C     C_R   0.469265 0.013927 0.926677 -0.051501
C74   C     C_R   0.969263 0.513929 0.926675 -0.051432
C75   C     C_R   0.496994 0.002384 0.844291 0.148544
C76   C     C_R   0.996994 0.502387 0.844291 0.148525
C77   C     C_R   0.532988 0.005933 0.076790 -0.030111
C78   C     C_R   0.032985 0.505943 0.076788 -0.030130
C79   C     C_R   0.626980 0.000589 0.146703 0.063862
C80   C     C_R   0.126977 0.500625 0.146704 0.063777
C81   C     C_R   0.654558 0.993460 0.064001 0.100332
C82   C     C_R   0.154556 0.493470 0.064009 0.100422
C83   C     C_R   0.590148 0.996355 0.917429 -0.130755
C84   C     C_R   0.090149 0.496357 0.917435 -0.130768
C85   C     C_R   0.505304 0.999865 0.159598 0.019004
C86   C     C_R   0.005303 0.499860 0.159597 0.018936
C87   C     C_R   0.655845 0.001431 0.370144 0.164235
C88   C     C_R   0.155845 0.501473 0.370144 0.164304
N3    N     N_R   0.434410 0.000000 0.697680 -0.213412
N4    N     N_R   0.934410 0.500000 0.697680 -0.213411
H19   H     H_    0.435170 0.993954 0.111674 0.151489
H20   H     H_    0.935169 0.493935 0.111671 0.151481
H21   H     H_    0.616805 0.995989 0.864114 0.210589
H22   H     H_    0.116813 0.495981 0.864127 0.210572
C89   C     C_3   0.750717 0.976708 0.125126 -0.735147
H23   H     H_    0.755605 0.960341 0.043252 0.204295
H24   H     H_    0.793883 0.025268 0.177791 0.277679
H25   H     H_    0.777336 0.930255 0.198539 0.254067
C90   C     C_3   0.250706 0.476662 0.125147 -0.735322
H26   H     H_    0.293882 0.525230 0.177659 0.277692
H27   H     H_    0.277332 0.430272 0.198699 0.253988
H28   H     H_    0.255564 0.460176 0.043290 0.204305
N5    N     N_R   0.783978 0.010394 0.376909 0.112487
O17   O     O_R   0.815848 0.074396 0.386649 -0.290461
O18   O     O_R   0.838384 0.961046 0.467916 -0.293982
N6    N     N_R   0.283960 0.510596 0.376879 0.112591
O19   O     O_R   0.338485 0.461418 0.468256 -0.293927
O20   O     O_R   0.315674 0.574601 0.386161 -0.290573
C91   C     C_3   0.268237 0.995918 0.476021 -0.753687
H29   H     H_    0.233906 0.943482 0.457349 0.210085
H30   H     H_    0.217814 0.040211 0.432706 0.216306
H31   H     H_    0.286576 0.997707 0.409206 0.264192
C92   C     C_3   0.768236 0.495938 0.476015 -0.753701
H32   H     H_    0.786577 0.497703 0.409203 0.264201
H33   H     H_    0.733873 0.443518 0.457325 0.210057
H34   H     H_    0.717839 0.540253 0.432711 0.216307
C93   C     C_3   0.357552 0.092060 0.924255 -0.855462
H35   H     H_    0.317531 0.065668 0.949572 0.228271
H36   H     H_    0.418959 0.117191 0.020258 0.250010
H37   H     H_    0.317663 0.138062 0.852090 0.253868
C94   C     C_3   0.857552 0.592058 0.924258 -0.855434
H38   H     H_    0.817537 0.565663 0.949584 0.228250
H39   H     H_    0.918960 0.617192 0.020255 0.250049
H40   H     H_    0.817658 0.638059 0.852093 0.253857
C95   C     C_3   0.215474 0.035166 0.640627 -0.815565
H41   H     H_    0.176033 0.987826 0.572390 0.239787
H42   H     H_    0.202646 0.038196 0.716417 0.251821
H43   H     H_    0.189185 0.085543 0.577211 0.257837
C96   C     C_3   0.715472 0.535177 0.640620 -0.815578
H44   H     H_    0.676026 0.487842 0.572374 0.239756
H45   H     H_    0.702642 0.538208 0.716407 0.251817
H46   H     H_    0.689191 0.585557 0.577212 0.257871
C97   C     C_3   0.497885 0.225834 0.898704 -0.762151
H47   H     H_    0.441046 0.247955 0.794119 0.240940
H48   H     H_    0.483071 0.168467 0.903136 0.253300
H49   H     H_    0.500351 0.257887 0.976749 0.238032
C98   C     C_3   0.500565 0.756061 0.872509 -0.728584
H50   H     H_    0.447572 0.760713 0.756870 0.227493
H51   H     H_    0.494953 0.700636 0.900953 0.265262
H52   H     H_    0.485242 0.797462 0.920177 0.250334
C99   C     C_3   0.997850 0.725875 0.898612 -0.762221
H53   H     H_    0.941071 0.748118 0.794113 0.241038
H54   H     H_    0.982919 0.668504 0.902771 0.253202
H55   H     H_    0.000343 0.757835 0.976763 0.238088
C100  C     C_3   0.000514 0.256030 0.872341 -0.728258
H56   H     H_    0.947523 0.260822 0.756727 0.227578
H57   H     H_    0.994833 0.200562 0.900546 0.265446
H58   H     H_    0.985249 0.297359 0.920192 0.250287
N7    N     N_R   0.641120 0.235986 0.210545 0.120080
O21   O     O_R   0.639944 0.261734 0.307859 -0.376418
O22   O     O_R   0.623678 0.167547 0.178706 -0.362457
N8    N     N_R   0.608340 0.733081 0.171069 0.120138
O23   O     O_R   0.593216 0.801012 0.178878 -0.361248
O24   O     O_R   0.578022 0.683629 0.206576 -0.353806
N9    N     N_R   0.141083 0.736018 0.210507 0.120157
O25   O     O_R   0.139914 0.761775 0.307821 -0.376128
O26   O     O_R   0.123569 0.667590 0.178598 -0.362292
N10   N     N_R   0.108164 0.232863 0.170757 0.119962
O27   O     O_R   0.093099 0.300762 0.178900 -0.361193
O28   O     O_R   0.077691 0.183303 0.205827 -0.353817
N11   N     N_R   0.762679 0.143106 0.659836 0.131503
O29   O     O_R   0.793782 0.078683 0.711387 -0.329394
O30   O     O_R   0.775636 0.170323 0.576743 -0.295182
N12   N     N_R   0.779446 0.879246 0.684194 0.126834
O31   O     O_R   0.730839 0.848697 0.560881 -0.316544
O32   O     O_R   0.846852 0.920153 0.722251 -0.300761
N13   N     N_R   0.262406 0.643261 0.659322 0.131195
O33   O     O_R   0.294038 0.578976 0.711209 -0.329224
O34   O     O_R   0.274565 0.670477 0.575286 -0.294532
N14   N     N_R   0.279522 0.379368 0.684369 0.126795
O35   O     O_R   0.230990 0.348821 0.561057 -0.316719
O36   O     O_R   0.346899 0.420338 0.722496 -0.300807
C101  C     C_3   0.300922 0.873583 0.890523 -0.879587
H59   H     H_    0.272623 0.907076 0.929464 0.239518
H60   H     H_    0.375871 0.874832 0.966065 0.244026
H61   H     H_    0.277948 0.899051 0.791460 0.249770
C102  C     C_3   0.434431 0.309785 0.172119 -0.780185
H62   H     H_    0.421225 0.311716 0.247645 0.242105
H63   H     H_    0.475668 0.261619 0.191828 0.272373
H64   H     H_    0.474225 0.359161 0.192395 0.248764
C103  C     C_3   0.800871 0.373587 0.890438 -0.879615
H65   H     H_    0.772562 0.407084 0.929362 0.239521
H66   H     H_    0.875819 0.374860 0.965973 0.243998
H67   H     H_    0.777878 0.399032 0.791348 0.249777
C104  C     C_3   0.934454 0.809717 0.172009 -0.779935
H68   H     H_    0.921287 0.811676 0.247580 0.242125
H69   H     H_    0.975642 0.761524 0.191667 0.272366
H70   H     H_    0.974280 0.859068 0.192264 0.248798

loop_
_geom_bond_atom_site_label_1
_geom_bond_atom_site_label_2
_geom_bond_distance
_ccdc_geom_bond_type
C89   H25   1.110033 S    
C11   N9    1.438775 S    
C39   C41   1.428380 A    
C2    C61   1.488081 S    
C93   H35   1.109883 S    
C31   C35   1.409872 A    
H2    C58   1.082378 S    
C40   C56   1.398085 A    
C96   H44   1.109848 S    
C16   C60   1.399658 A    
C18   N12   1.436093 S    
O10   C6    1.303246 A    
C67   N3    1.391594 A    
C9    N7    1.438778 S    
C21   H9    1.081141 S    
C78   C80   1.423244 A    
C72   C74   1.411753 A    
C94   H38   1.109883 S    
C36   C64   1.419625 A    
C73   C77   1.438927 A    
C89   H23   1.111477 S    
C50   H14   1.082262 S    
C39   C55   1.397763 A    
C99   H53   1.111024 S    
C54   H6    1.079374 S    
C102  H64   1.111365 S    
O7    C3    1.306286 A    
C72   C94   1.522045 S    
C53   H5    1.077474 S    
C95   H41   1.109852 S    
Cu1   O10   1.943345 S    
C83   H21   1.058099 S    
H4    C60   1.082369 S    
C82   C90   1.514590 S    
C9    C59   1.399367 A    
C103  H67   1.108256 S    
C66   C88   1.395612 A    
C77   C79   1.423279 A    
C30   C34   1.412012 A    
C1    C62   1.480871 S    
C90   H28   1.111485 S    
C100  H57   1.110184 S    
N5    O17   1.301046 A    
N2    C88   1.350769 A    
C104  H70   1.111373 S    
C85   H19   1.077045 S    
N5    O18   1.300850 A    
N11   O29   1.300862 A    
C33   C49   1.408581 A    
C12   C58   1.399724 A    
N7    O22   1.300291 A    
O2    Cu1   1.946776 S    
C47   C99   1.507155 S    
C29   C39   1.422907 A    
C12   N10   1.434247 S    
C70   C72   1.400870 A    
C65   C87   1.395591 A    
O6    Cu3   1.943698 S    
H1    C57   1.082705 S    
Cu3   O14   1.946458 S    
C68   C92   1.519061 S    
C25   C101  1.507954 S    
C80   C82   1.420757 A    
C98   H51   1.110176 S    
Cu3   N3    2.025848 S    
C46   C50   1.398287 A    
C16   C56   1.388997 A    
C45   C49   1.395347 A    
N10   O27   1.301472 A    
C18   C62   1.414384 A    
Cu2   Cu4   2.704163 S    
O15   C7    1.298403 A    
O4    C4    1.308325 A    
O11   C7    1.306642 A    
C7    C16   1.464453 S    
C55   H7    1.077484 S    
C44   C48   1.416979 A    
C12   C44   1.421347 A    
C97   H48   1.107317 S    
C97   H49   1.101726 S    
Cu4   O16   1.946458 S    
C14   C58   1.399622 A    
O4    Cu2   1.946776 S    
N12   O31   1.301442 A    
N11   O30   1.301265 A    
C91   H30   1.108612 S    
C13   C57   1.393017 A    
C95   H42   1.108079 S    
C99   H55   1.101653 S    
C45   C97   1.507133 S    
C34   C62   1.419634 A    
C94   H39   1.109539 S    
C28   C30   1.424464 A    
C22   C26   1.394871 A    
N6    O20   1.301054 A    
C99   H54   1.107325 S    
C75   C83   1.402961 A    
N1    C87   1.350756 A    
C19   N13   1.433633 S    
N13   O33   1.300857 A    
C65   C79   1.427391 A    
C101  H59   1.109313 S    
Cu2   O12   1.943345 S    
O1    C1    1.304835 A    
H17   C87   1.079238 S    
Cu1   N1    2.038016 S    
C91   H31   1.082303 S    
C37   C53   1.397769 A    
H3    C59   1.082711 S    
C100  H58   1.107604 S    
C23   C27   1.393537 A    
N9    O25   1.301322 A    
C14   C54   1.388987 A    
C8    C15   1.464336 S    
C20   C64   1.414383 A    
C102  H62   1.109656 S    
C97   H47   1.111042 S    
C13   C53   1.388772 A    
C36   C52   1.409456 A    
C26   C32   1.424475 A    
C32   C36   1.412015 A    
C27   C29   1.423204 A    
C15   C55   1.388779 A    
C56   H8    1.079357 S    
C49   H13   1.079680 S    
C70   C96   1.522536 S    
O5    C1    1.306285 A    
C103  H65   1.109325 S    
C5    C14   1.464436 S    
C20   N14   1.436078 S    
C37   C43   1.428412 A    
Cu1   O9    1.942714 S    
H18   C88   1.079252 S    
C21   C25   1.393555 A    
C3    C64   1.480884 S    
O8    C4    1.305491 A    
C98   H52   1.107605 S    
C51   H15   1.079690 S    
C104  H68   1.109645 S    
C17   C23   1.392541 A    
C76   N4    1.398240 A    
C48   C52   1.398271 A    
C71   C73   1.411768 A    
C18   C24   1.392423 A    
C90   H27   1.110040 S    
C92   H34   1.108615 S    
C19   C21   1.392460 A    
C74   C78   1.438917 A    
C79   C81   1.420782 A    
C69   C95   1.522533 S    
C9    C41   1.428549 A    
C10   C42   1.421326 A    
O5    Cu3   1.943068 S    
C95   H43   1.110109 S    
N12   O32   1.301360 A    
N14   O35   1.301442 A    
Cu4   O15   1.949299 S    
C10   N8    1.434300 S    
C17   C61   1.419100 A    
Cu1   Cu3   2.704163 S    
C96   H46   1.110111 S    
C32   C38   1.415682 A    
C93   H36   1.109538 S    
C92   H33   1.110030 S    
C82   C84   1.400279 A    
O2    C2    1.308353 A    
C35   C51   1.408546 A    
C94   H40   1.111337 S    
C66   C80   1.427373 A    
C34   C50   1.409488 A    
C77   C85   1.423448 A    
N6    O19   1.300864 A    
C75   N3    1.398233 A    
C101  H61   1.108254 S    
C22   H10   1.081842 S    
N7    O21   1.301351 A    
C89   H24   1.107368 S    
O13   C5    1.298405 A    
O7    Cu4   1.943068 S    
C29   C33   1.409852 A    
C76   C84   1.402977 A    
C4    C63   1.488110 S    
C68   N4    1.391601 A    
Cu2   O11   1.942714 S    
C38   C54   1.398092 A    
C24   H12   1.081832 S    
O16   C8    1.301897 A    
O6    C2    1.305450 A    
C74   C76   1.428858 A    
C90   H26   1.107359 S    
C6    C13   1.464353 S    
O3    Cu2   1.949618 S    
C93   H37   1.111337 S    
C52   H16   1.082264 S    
O12   C8    1.303240 A    
N2    C86   1.359724 A    
C26   C102  1.508826 S    
N14   O36   1.301359 A    
C11   C57   1.399376 A    
N1    C85   1.359715 A    
O9    C5    1.306630 A    
N8    O23   1.301465 A    
C69   C71   1.400874 A    
C71   C93   1.522048 S    
C101  H60   1.110319 S    
C19   C63   1.419042 A    
C103  H66   1.110320 S    
C25   C31   1.423248 A    
C91   H29   1.110029 S    
C66   N6    1.429669 S    
C47   C51   1.395322 A    
C65   N5    1.429642 S    
C100  H56   1.110775 S    
C67   C69   1.420761 A    
C30   C40   1.415660 A    
C27   C103  1.507939 S    
C41   C45   1.416859 A    
C31   C37   1.422907 A    
C104  H69   1.106837 S    
C68   C70   1.420763 A    
C43   C47   1.416886 A    
C38   C44   1.421125 A    
C10   C60   1.399760 A    
C102  H63   1.106838 S    
C35   C63   1.427501 A    
C48   C100  1.509355 S    
C81   C83   1.400272 A    
O3    C3    1.304832 A    
C86   H20   1.077051 S    
C11   C43   1.428550 A    
C15   C59   1.393018 A    
C84   H22   1.058118 S    
C67   C91   1.519058 S    
C46   C98   1.509391 S    
C28   C104  1.508807 S    
Cu3   O13   1.949299 S    
O1    Cu1   1.949618 S    
C42   C46   1.416964 A    
C81   C89   1.514590 S    
O8    Cu4   1.943698 S    
C98   H50   1.110782 S    
O14   C6    1.301900 A    
Cu2   N2    2.038016 S    
N13   O34   1.301322 A    
C23   H11   1.081082 S    
N10   O28   1.301364 A    
Cu4   N4    2.025848 S    
C78   C86   1.423443 A    
N9    O26   1.300302 A    
C92   H32   1.082297 S    
C24   C28   1.394870 A    
C17   N11   1.433790 S    
C33   C61   1.427565 A    
C20   C22   1.392438 A    
C40   C42   1.421096 A    
C73   C75   1.428849 A    
C96   H45   1.108080 S    
N8    O24   1.301334 A    
