data_str_m12_o4_o9_f0_bcu.sym.200
_audit_creation_date              2013-03-05T15:55:04-0500
_audit_creation_method            fapswitch 2.2
_symmetry_space_group_name_H-M    P1
_symmetry_Int_Tables_number       1
_space_group_crystal_system       triclinic
_cell_length_a                    14.865056
_cell_length_b                    15.026503
_cell_length_c                    15.029099
_cell_angle_alpha                 109.995486
_cell_angle_beta                  109.886696
_cell_angle_gamma                 109.054033
_cell_volume                      2567.29997913

loop_
_atom_site_label
_atom_site_type_symbol
_atom_site_description
_atom_site_fract_x
_atom_site_fract_y
_atom_site_fract_z
_atom_type_partial_charge
C1    C     C_R   0.185607 0.279729 0.254494 -0.124772
H1    H     H_    0.124795 0.304155 0.252013 0.109716
N1    N     N_R   0.291070 0.347930 0.293870 -0.042395
C2    C     C_R   0.597818 0.505726 0.803541 -0.165223
H2    H     H_    0.664468 0.490186 0.833281 0.197875
N2    N     N_R   0.554050 0.497220 0.706150 -0.063050
C3    C     C_R   0.507900 0.202300 0.409187 0.464001
N3    N     N_R   0.497240 0.291100 0.443210 -0.128937
C4    C     C_R   0.293254 0.599899 0.589254 -0.076907
H3    H     H_    0.327550 0.661304 0.672776 0.169207
N4    N     N_R   0.347890 0.554050 0.556810 -0.049520
C5    C     C_R   0.596327 0.291753 0.590924 0.316958
N5    N     N_R   0.554050 0.347900 0.556830 -0.114786
C6    C     C_R   0.201653 0.507533 0.407578 -0.148745
H4    H     H_    0.150526 0.480440 0.322593 0.119576
N6    N     N_R   0.291070 0.497250 0.443190 -0.047836
C7    C     C_R   0.500861 0.590371 0.802674 0.371874
N7    N     N_R   0.497240 0.554030 0.706140 -0.097466
C8    C     C_R   0.274828 0.185538 0.249757 -0.141271
H5    H     H_    0.293897 0.120658 0.237927 0.151630
N8    N     N_R   0.347890 0.291110 0.293870 -0.050469
C9    C     C_R   0.171962 0.176502 0.224961 0.065635
C10   C     C_R   0.566733 0.563835 0.867233 -0.106877
C11   C     C_R   0.571110 0.200174 0.499628 -0.223003
C12   C     C_R   0.202678 0.575726 0.497499 0.034669
C13   C     C_R   0.456167 0.723898 0.409694 -0.133000
H6    H     H_    0.410198 0.704789 0.326621 0.097890
N9    N     N_R   0.445950 0.652100 0.443170 -0.043744
C14   C     C_R   0.816405 0.561233 0.596499 -0.045572
H7    H     H_    0.874941 0.612602 0.682751 0.114148
N10   N     N_R   0.708930 0.502750 0.556810 -0.041549
C15   C     C_R   0.543947 0.450270 0.229197 -0.144088
H8    H     H_    0.583485 0.405761 0.207264 0.104631
N11   N     N_R   0.502760 0.445970 0.293860 -0.045497
C16   C     C_R   0.708309 0.800549 0.802399 -0.124699
H9    H     H_    0.672890 0.848992 0.828949 0.150355
N12   N     N_R   0.652110 0.708890 0.706130 -0.044420
C17   C     C_R   0.801422 0.711409 0.805380 -0.116133
H10   H     H_    0.853835 0.680634 0.835848 0.124424
N13   N     N_R   0.708930 0.652070 0.706130 -0.040501
C18   C     C_R   0.455016 0.544327 0.229366 -0.110897
H11   H     H_    0.413831 0.586189 0.205558 0.088653
N14   N     N_R   0.445950 0.502780 0.293850 -0.039521
C19   C     C_R   0.556399 0.815835 0.593822 -0.103408
H12   H     H_    0.608658 0.879665 0.679298 0.098807
N15   N     N_R   0.502760 0.708900 0.556790 -0.042099
C20   C     C_R   0.728981 0.465229 0.413734 -0.169156
H13   H     H_    0.714024 0.422315 0.332136 0.086638
N16   N     N_R   0.652110 0.445950 0.443190 -0.062667
Ni1   Ni    Ni4+2 0.369690 0.500010 0.369700 0.215528
Ni2   Ni    Ni4+2 0.630310 0.499990 0.630300 0.267251
Ni3   Ni    Ni4+2 0.500000 0.369720 0.369720 0.203998
Ni4   Ni    Ni4+2 0.500000 0.630280 0.630280 0.265615
C21   C     C_R   0.530981 0.826755 0.502083 0.072151
C22   C     C_R   0.832567 0.543393 0.508161 0.063164
C23   C     C_R   0.522930 0.518416 0.194480 0.086651
C24   C     C_R   0.802441 0.804918 0.867529 0.054267
H14   H     H_    0.006383 0.498480 0.016544 0.129882
C25   C     C_R   0.098190 0.610883 0.191319 -0.143224
H15   H     H_    0.161602 0.669556 0.188791 0.111768
C26   C     C_R   0.103833 0.631800 0.291731 -0.131334
H16   H     H_    0.171933 0.707083 0.366255 0.123795
C27   C     C_R   0.021990 0.555786 0.295811 0.127852
C28   C     C_R   0.934112 0.459001 0.197515 -0.203051
H17   H     H_    0.870466 0.398827 0.198498 0.109846
C29   C     C_R   0.928831 0.438560 0.097335 -0.096854
H18   H     H_    0.861265 0.363769 0.022087 0.142969
C30   C     C_R   0.010706 0.514438 0.094213 -0.068442
C31   C     C_R   0.933838 0.566331 0.409744 -0.208121
H19   H     H_    0.857147 0.532319 0.335533 0.122672
C32   C     C_R   0.937706 0.592814 0.510707 0.118606
C33   C     C_R   0.042840 0.661341 0.608665 0.115498
C34   C     C_R   0.135963 0.674352 0.600549 -0.206560
H20   H     H_    0.214684 0.719366 0.675953 0.146279
C35   C     C_R   0.125502 0.617143 0.498825 0.030286
C36   C     C_R   0.027831 0.579047 0.402477 0.029705
C37   C     C_R   0.066545 0.812748 0.773898 0.367007
C38   C     C_R   0.099430 0.861167 0.886263 -0.213919
H21   H     H_    0.103575 0.938262 0.928450 0.174559
C39   C     C_R   0.127720 0.811232 0.945762 -0.196094
H22   H     H_    0.154346 0.850155 0.032337 0.133688
C40   C     C_R   0.122351 0.711532 0.894187 -0.041645
H23   H     H_    0.144343 0.673092 0.940642 0.121126
C41   C     C_R   0.090648 0.662241 0.783279 -0.152907
H24   H     H_    0.089520 0.585964 0.745129 0.151688
C42   C     C_R   0.062435 0.711474 0.721877 -0.110182
C43   C     C_R   0.647091 0.535465 0.021058 0.122910
C44   C     C_R   0.606751 0.594845 0.982086 0.047268
C45   C     C_R   0.584621 0.665925 0.048740 -0.122154
H25   H     H_    0.569404 0.725941 0.033146 0.188131
C46   C     C_R   0.564919 0.647431 0.126864 -0.206141
H26   H     H_    0.532507 0.691380 0.166723 0.134902
C47   C     C_R   0.573461 0.562330 0.140986 0.047542
C48   C     C_R   0.630544 0.519497 0.100141 0.161734
C49   C     C_3   0.610802 0.405343 0.049380 -0.556253
C50   C     C_3   0.628822 0.422304 0.962574 -0.392421
H27   H     H_    0.676669 0.396628 0.102482 0.194781
H28   H     H_    0.524527 0.342370 0.015876 0.216238
H29   H     H_    0.705192 0.423598 0.966185 0.224145
H30   H     H_    0.552852 0.367689 0.879836 0.222522
C51   C     C_R   0.519357 0.921420 0.400089 0.082982
C52   C     C_R   0.570026 0.926790 0.499776 0.050064
C53   C     C_R   0.652268 0.028182 0.594566 -0.187395
H31   H     H_    0.698495 0.034313 0.671797 0.138770
C54   C     C_R   0.671716 0.123521 0.590746 -0.124787
H32   H     H_    0.734523 0.200558 0.664912 0.192549
C55   C     C_R   0.603828 0.117427 0.494401 0.035565
C56   C     C_R   0.535759 0.015970 0.396850 0.258434
C57   C     C_3   0.555965 0.977688 0.303082 -0.403165
C58   C     C_3   0.536705 0.875177 0.306806 -0.559138
H33   H     H_    0.489845 0.960080 0.225739 0.214283
H34   H     H_    0.641856 0.029626 0.324765 0.185466
H35   H     H_    0.459644 0.801350 0.233201 0.191860
H36   H     H_    0.611559 0.866605 0.331439 0.219846
C59   C     C_R   0.966819 0.076170 0.121520 0.158787
C60   C     C_R   0.066117 0.076439 0.168824 0.041187
C61   C     C_R   0.060894 0.974742 0.141978 -0.201651
H37   H     H_    0.133366 0.970112 0.182764 0.130042
C62   C     C_R   0.966255 0.879087 0.049155 -0.200338
H38   H     H_    0.968521 0.803721 0.021708 0.137981
C63   C     C_R   0.877894 0.886190 0.984338 0.040556
C64   C     C_R   0.873761 0.981996 0.030536 0.178663
C65   C     C_3   0.837820 0.043598 0.980144 -0.510910
C66   C     C_3   0.939744 0.146563 0.079083 -0.516545
H39   H     H_    0.839780 0.026110 0.902878 0.206657
H40   H     H_    0.760123 0.038977 0.975809 0.207918
H41   H     H_    0.998977 0.186815 0.057099 0.211485
H42   H     H_    0.920581 0.201414 0.131164 0.195360
N17   N     N_R   0.041127 0.868774 0.716384 0.234524
O1    O     O_R   0.076174 0.972946 0.771289 -0.398676
O2    O     O_R   0.976115 0.815714 0.610305 -0.400247
O3    O     O_3   0.473911 0.131724 0.301271 -0.686708
C67   C     C_3   0.521216 0.189353 0.257348 0.148384
H43   H     H_    0.612536 0.240908 0.312414 0.104136
H44   H     H_    0.484103 0.239772 0.243886 0.133228
C68   C     C_3   0.496915 0.108105 0.145486 -0.274189
H45   H     H_    0.546939 0.067702 0.157271 0.197061
H46   H     H_    0.407832 0.044433 0.094408 0.222618
C69   C     C_3   0.525281 0.165120 0.084238 -0.994179
H47   H     H_    0.471698 0.200821 0.065241 0.267578
H48   H     H_    0.511008 0.104802 0.005659 0.288912
H49   H     H_    0.613454 0.230814 0.134595 0.250673
N18   N     N_R   0.681107 0.339097 0.701230 0.211205
O4    O     O_R   0.661838 0.299335 0.761422 -0.467600
O5    O     O_R   0.772143 0.429797 0.745842 -0.468308
N19   N     N_R   0.463709 0.664467 0.838856 0.198641
O6    O     O_R   0.382293 0.634228 0.856855 -0.437362
O7    O     O_R   0.508540 0.760976 0.850775 -0.479411

loop_
_geom_bond_atom_site_label_1
_geom_bond_atom_site_label_2
_geom_bond_distance
_ccdc_geom_bond_type
C29   C30   1.397452 A    
C43   C44   1.402362 A    
C50   H29   1.111334 S    
C47   C48   1.397089 A    
C18   N14   1.339722 A    
C34   H20   1.080705 S    
C49   C50   1.503092 S    
C49   H28   1.111825 S    
C4    C12   1.386124 A    
C65   C66   1.504592 S    
C20   N16   1.342150 A    
C37   C38   1.409271 A    
C60   C61   1.408403 A    
C54   C55   1.406517 A    
N9    N15   1.381717 A    
C13   H6    1.074463 S    
C51   C52   1.388666 A    
C8    N8    1.342241 A    
C41   C42   1.407464 A    
N17   O1    1.301652 A    
N12   N13   1.383201 A    
C61   C62   1.401604 A    
C17   H10   1.080698 S    
C39   H22   1.081553 S    
C69   H49   1.111132 S    
C38   C39   1.395921 A    
C65   H39   1.112518 S    
C27   C36   1.483877 S    
N18   O4    1.300595 A    
C43   C48   1.373361 A    
C56   C57   1.501156 S    
C31   C36   1.394424 A    
C31   C32   1.406003 A    
C1    H1    1.075326 S    
C18   H11   1.074658 S    
C26   C27   1.407079 A    
N7    Ni4   1.873185 S    
N5    Ni2   1.859669 S    
N9    Ni1   1.859669 S    
C16   H9    1.077418 S    
O3    C67   1.410405 S    
C67   C68   1.530564 S    
C55   C56   1.397322 A    
C3    C11   1.382704 A    
N2    Ni2   1.862016 S    
C45   C46   1.394820 A    
C4    H3    1.073478 S    
C58   H36   1.112528 S    
C1    C9    1.380832 A    
C26   H16   1.083221 S    
N4    Ni4   1.841021 S    
C66   H42   1.112169 S    
N12   Ni4   1.840954 S    
C51   C56   1.381864 A    
C9    C60   1.460436 S    
C29   H18   1.082495 S    
C25   H15   1.082571 S    
C59   C64   1.377521 A    
C34   C35   1.397365 A    
C52   C53   1.399991 A    
N10   N16   1.381715 A    
C68   C69   1.525326 S    
C13   C21   1.383151 A    
N1    Ni1   1.859011 S    
C19   N15   1.333219 A    
N19   O7    1.299758 A    
C62   C63   1.406333 A    
C23   C47   1.447775 S    
N2    N7    1.382960 A    
C25   C26   1.398391 A    
C3    N3    1.339259 A    
C8    C9    1.391991 A    
C41   H24   1.083610 S    
C2    N2    1.323612 A    
C57   H34   1.112590 S    
C46   H26   1.077358 S    
C2    C10   1.372940 A    
C38   H21   1.082752 S    
C33   C34   1.387010 A    
C65   H40   1.111933 S    
C37   N17   1.442874 S    
C14   C22   1.381247 A    
C51   C58   1.487135 S    
C1    N1    1.327880 A    
C15   N11   1.321122 A    
C35   C36   1.411593 A    
C18   C23   1.386646 A    
C14   H7    1.069172 S    
C25   C30   1.397562 A    
C46   C47   1.403453 A    
C17   C24   1.387779 A    
N4    N6    1.381716 A    
C20   H13   1.072032 S    
C69   H47   1.110299 S    
N16   Ni3   1.841021 S    
C43   C50   1.500563 S    
C7    N7    1.338588 A    
C3    O3    1.388102 S    
C48   C49   1.494841 S    
C53   C54   1.391532 A    
C11   C55   1.463810 S    
C7    C10   1.390096 A    
C5    N5    1.338683 A    
C4    N4    1.333063 A    
C58   H35   1.111540 S    
C63   C64   1.400553 A    
C66   H41   1.112273 S    
C68   H46   1.112268 S    
C37   C42   1.422658 A    
C40   C41   1.393707 A    
C10   C44   1.456335 S    
C67   H43   1.112842 S    
C6    N6    1.335569 A    
N1    N8    1.383203 A    
C19   H12   1.079648 S    
C20   C22   1.398964 A    
N19   O6    1.300806 A    
H14   C30   1.082449 S    
N18   O5    1.300740 A    
N3    Ni3   1.873176 S    
C59   C66   1.500779 S    
C16   N12   1.323571 A    
C13   N9    1.325281 A    
C21   C52   1.441279 S    
N11   N14   1.382957 A    
N10   Ni2   1.861532 S    
C68   H45   1.109791 S    
C33   C42   1.479987 S    
C62   H38   1.081072 S    
C49   H27   1.111901 S    
N14   Ni1   1.862016 S    
N13   Ni2   1.859010 S    
C54   H32   1.076127 S    
C5    C11   1.392428 A    
N11   Ni3   1.873184 S    
C5    N18   1.424558 S    
C16   C24   1.372842 A    
C28   H17   1.083054 S    
C8    H5    1.076393 S    
C57   H33   1.108989 S    
C7    N19   1.425522 S    
C45   H25   1.077528 S    
C32   C33   1.420346 A    
C14   N10   1.325512 A    
C61   H37   1.081672 S    
C15   H8    1.067292 S    
C17   N13   1.343539 A    
C69   H48   1.110481 S    
C50   H30   1.112069 S    
N15   Ni4   1.873174 S    
C39   C40   1.391861 A    
C6    C12   1.380347 A    
C31   H19   1.081445 S    
N6    Ni1   1.861530 S    
C24   C63   1.459866 S    
C27   C28   1.407597 A    
N3    N5    1.381716 A    
C19   C21   1.382549 A    
C2    H2    1.075670 S    
C44   C45   1.405137 A    
C40   H23   1.082493 S    
C53   H31   1.082063 S    
C67   H44   1.105033 S    
C6    H4    1.075490 S    
C12   C35   1.475506 S    
C64   C65   1.497636 S    
C57   C58   1.496581 S    
C15   C23   1.371778 A    
N8    Ni3   1.840955 S    
C22   C32   1.475696 S    
C59   C60   1.401580 A    
C28   C29   1.398199 A    
N17   O2    1.300282 A    
