data_str_m3_o41_o41_f0_fof.sym.36
_audit_creation_date              2012-12-10T16:39:34-0500
_audit_creation_method            fapswitch 2.2
_symmetry_space_group_name_H-M    P1
_symmetry_Int_Tables_number       1
_space_group_crystal_system       triclinic
_cell_length_a                    16.901499
_cell_length_b                    16.766922
_cell_length_c                    16.945971
_cell_angle_alpha                 66.154792
_cell_angle_beta                  65.549971
_cell_angle_gamma                 66.354907
_cell_volume                      3837.6490699

loop_
_atom_site_label
_atom_site_type_symbol
_atom_type_description
_atom_site_fract_x
_atom_site_fract_y
_atom_site_fract_z
_atom_type_partial_charge
C1    C     C_R   0.312060 0.998796 0.444111 0.017410
C2    C     C_R   0.328280 0.456019 0.951662 0.010452
C3    C     C_R   0.546600 0.407218 0.992906 -0.042592
C4    C     C_R   0.000973 0.465180 0.578131 -0.037029
C5    C     C_R   0.042924 0.530630 0.388247 -0.037267
C6    C     C_3   0.255216 0.110465 0.246069 -0.390177
C7    C     C_3   0.304175 0.185612 0.199244 -0.341711
C8    C     C_3   0.314196 0.219064 0.265239 -0.831790
C9    C     C_3   0.749933 0.921371 0.752031 -0.351593
C10   C     C_3   0.791540 0.839912 0.713813 -0.373535
C11   C     C_3   0.837810 0.756347 0.776107 -0.875221
C12   C     C_3   0.042813 0.222881 0.229312 -0.335667
C13   C     C_R   0.064984 0.671570 0.534981 0.015809
C14   C     C_3   0.102302 0.224705 0.130023 -0.387498
C15   C     C_3   0.121159 0.135910 0.109844 -0.951051
C16   C     C_3   0.132202 0.700043 0.704016 -0.354532
C17   C     C_3   0.216974 0.727436 0.630489 -0.347229
C18   C     C_3   0.235506 0.800881 0.646118 -0.846294
C19   C     C_3   0.294863 0.296405 0.869640 -0.348391
C20   C     C_3   0.268716 0.371419 0.786559 -0.330781
C21   C     C_3   0.199671 0.353726 0.764083 -0.843430
C22   C     C_3   0.691064 0.700673 0.140787 -0.351522
C23   C     C_3   0.606489 0.712842 0.222906 -0.353920
C24   C     C_R   0.979475 0.325143 0.429944 -0.000794
C25   C     C_3   0.627114 0.723995 0.296811 -0.873200
C26   C     C_3   0.261947 0.053304 0.807600 -0.936660
C27   C     C_3   0.742178 0.925961 0.212781 -0.935738
C28   C     C_3   0.078996 0.800833 0.252245 -0.914061
C29   C     C_3   0.915194 0.217977 0.719340 -0.909570
C30   C     C_3   0.807210 0.259227 0.043663 -0.941189
C31   C     C_3   0.209518 0.743236 0.939686 -0.934742
C32   C     C_3   0.172917 0.012123 0.717808 -0.934265
C33   C     C_3   0.834454 0.958602 0.305022 -0.914939
C34   C     C_3   0.717527 0.171920 0.999915 -0.943132
C35   C     C_R   0.454149 0.987275 0.458833 0.011985
C36   C     C_3   0.307586 0.826997 0.977877 -0.930595
C37   C     C_3   0.034311 0.707853 0.167292 -0.932516
C38   C     C_3   0.972431 0.294775 0.809658 -0.946410
C39   C     C_3   0.404260 0.151657 0.734169 -0.894971
C40   C     C_3   0.557628 0.076194 0.194521 -0.787784
C41   C     C_3   0.171873 0.742862 0.391017 -0.873536
C42   C     C_3   0.841687 0.292349 0.559758 -0.885475
C43   C     C_3   0.739643 0.387071 0.154427 -0.856732
C44   C     C_3   0.269201 0.602435 0.846876 -0.879798
C45   C     C_3   0.185748 0.119094 0.514324 -0.801468
C46   C     C_R   0.545090 0.011930 0.549064 0.011801
C47   C     C_3   0.748078 0.126395 0.388836 -0.832689
C48   C     C_3   0.616151 0.257013 0.856773 -0.859632
C49   C     C_3   0.521170 0.805888 0.870451 -0.820559
C50   C     C_3   0.153003 0.508692 0.155196 -0.839143
C51   C     C_3   0.884108 0.499881 0.804283 -0.797567
C52   C     C_R   0.017938 0.449198 0.433732 0.012315
C53   C     C_R   0.029018 0.545205 0.532150 0.012310
C54   C     C_R   0.461008 0.454963 0.977772 0.014109
C55   C     C_R   0.552316 0.541779 0.009626 0.013604
C56   C     C_R   0.976736 0.177398 0.430266 0.906555
C57   C     C_R   0.678537 0.036334 0.547653 -0.002483
C58   C     C_R   0.038332 0.820542 0.561442 0.934035
C59   C     C_R   0.179898 0.435819 0.966469 0.876229
C60   C     C_R   0.820339 0.561271 0.039199 0.937684
C61   C     C_R   0.432394 0.977533 0.176962 0.910967
C62   C     C_R   0.565168 0.030392 0.821959 0.902589
C63   C     C_R   0.567607 0.821861 0.026042 0.916332
C64   C     C_R   0.438316 0.179327 0.962017 0.888036
C65   C     C_R   0.026517 0.567291 0.821035 0.925237
C66   C     C_R   0.010782 0.424276 0.157635 0.958990
C67   C     C_R   0.822150 0.029751 0.565320 0.932853
C68   C     C_R   0.045048 0.426395 0.288651 0.015845
C69   C     C_R   0.175400 0.983607 0.429855 0.898014
C70   C     C_R   0.406622 0.984939 0.408615 -0.041085
C71   C     C_R   0.590802 0.026774 0.592251 -0.018186
C72   C     C_R   0.015469 0.399481 0.384047 -0.020952
C73   C     C_R   0.036825 0.591734 0.581348 -0.019803
C74   C     C_R   0.415129 0.410730 0.962638 -0.026437
C75   C     C_R   0.598337 0.586924 0.023249 -0.019886
C76   C     C_R   0.266387 0.995648 0.391612 -0.156654
C77   C     C_R   0.728679 0.030740 0.601209 -0.148401
C78   C     C_R   0.036341 0.376975 0.241069 -0.140442
C79   C     C_R   0.013223 0.560995 0.677332 -0.002336
C80   C     C_R   0.038756 0.600465 0.722617 -0.179442
C81   C     C_R   0.410851 0.278907 0.938487 -0.173953
C82   C     C_R   0.604809 0.725263 0.033507 -0.149621
C83   C     C_R   0.601178 0.031526 0.728473 -0.152317
C84   C     C_R   0.396137 0.988684 0.267268 -0.119694
C85   C     C_R   0.720800 0.587943 0.062844 -0.171931
C86   C     C_R   0.279870 0.406796 0.944780 -0.137799
C87   C     C_R   0.065165 0.720213 0.587226 -0.137409
C88   C     C_R   0.991169 0.266810 0.380658 -0.163997
C89   C     C_R   0.451218 0.066651 0.705259 0.205240
C90   C     C_R   0.459510 0.324035 0.950221 0.012229
C91   C     C_R   0.539317 0.995703 0.277027 0.173598
C92   C     C_R   0.095144 0.698505 0.438725 0.194832
C93   C     C_R   0.932862 0.311375 0.524205 0.207072
C94   C     C_R   0.702257 0.441572 0.074536 0.195980
C95   C     C_R   0.301510 0.552026 0.929365 0.207621
C96   C     C_R   0.265513 0.033382 0.520279 0.182148
C97   C     C_R   0.712867 0.045276 0.453688 0.198468
C98   C     C_R   0.554141 0.289802 0.939808 0.212638
C99   C     C_R   0.503005 0.729772 0.957202 0.180372
C100  C     C_R   0.078287 0.504259 0.244345 0.165213
C101  C     C_R   0.569477 0.682165 0.003077 -0.004790
C102  C     C_R   0.967416 0.491612 0.721876 0.165286
C103  C     C_R   0.303832 0.020264 0.299620 0.037611
C104  C     C_R   0.693936 0.002491 0.694312 -0.000032
C105  C     C_R   0.028364 0.288584 0.283793 -0.014991
C106  C     C_R   0.078049 0.672642 0.671068 -0.002687
C107  C     C_R   0.327926 0.326930 0.920601 -0.007716
C108  C     C_R   0.673507 0.673228 0.075066 -0.002219
C109  C     C_R   0.681005 0.003848 0.419547 0.007912
C110  C     C_R   0.312694 0.017150 0.579592 0.001753
C111  C     C_R   0.976754 0.434214 0.673291 0.015290
C112  C     C_R   0.546745 0.041183 0.677226 0.017449
C113  C     C_R   0.062349 0.563604 0.293764 0.024371
C114  C     C_R   0.440990 0.685856 0.970114 0.017041
C115  C     C_R   0.591422 0.320401 0.979954 0.006031
C116  C     C_R   0.592875 0.971219 0.332628 0.003794
C117  C     C_R   0.404915 0.039253 0.671612 0.006511
C118  C     C_R   0.340481 0.596701 0.953532 0.001760
C119  C     C_R   0.669353 0.398967 0.040929 0.007363
C120  C     C_R   0.954315 0.345244 0.575490 0.010428
C121  C     C_R   0.074531 0.660470 0.390315 0.011818
C122  C     C_R   0.732451 0.975858 0.340092 0.190612
C123  C     C_R   0.450219 0.983849 0.317216 0.006931
C124  C     C_R   0.266984 0.025208 0.668719 0.205325
C125  C     C_R   0.959474 0.347967 0.717384 0.204105
C126  C     C_R   0.063116 0.655660 0.252065 0.198168
C127  C     C_R   0.352612 0.733763 0.963104 0.194913
C128  C     C_R   0.674441 0.270173 0.001102 0.197348
C129  C     C_R   0.687983 0.958738 0.296423 0.191262
C130  C     C_R   0.312115 0.039599 0.714049 0.195896
C131  C     C_R   0.302749 0.690267 0.951861 0.201534
C132  C     C_R   0.713811 0.309422 0.031124 0.195102
C133  C     C_R   0.941105 0.306677 0.670442 0.186538
C134  C     C_R   0.675160 0.537995 0.053283 0.023072
C135  C     C_R   0.075232 0.702790 0.297992 0.188896
C136  C     C_R   0.547559 0.979934 0.420569 -0.028619
C137  C     C_R   0.453083 0.013817 0.590618 -0.042134
C138  C     C_R   0.993033 0.418561 0.529144 -0.043324
C139  C     C_R   0.047831 0.579381 0.437074 -0.042590
C140  C     C_R   0.422015 0.546844 0.976536 -0.043902
C141  C     C_R   0.589189 0.448823 0.015368 -0.043991
C142  C     C_R   0.592319 0.994930 0.464549 -0.040648
C143  C     C_R   0.407205 0.002380 0.544841 -0.038103
C144  C     C_R   0.470573 0.591125 0.987356 -0.037116
H1    H     H_    0.246449 0.248594 0.308212 0.256354
H2    H     H_    0.891684 0.769556 0.786436 0.277523
H3    H     H_    0.706089 0.168705 0.342345 0.216639
H4    H     H_    0.819297 0.105943 0.347205 0.254143
H5    H     H_    0.743452 0.170542 0.425813 0.224651
H6    H     H_    0.643737 0.182254 0.872799 0.263527
H7    H     H_    0.579701 0.279463 0.806544 0.221829
H8    H     H_    0.674038 0.286957 0.822347 0.228782
H9    H     H_    0.465439 0.869490 0.871738 0.266431
H10   H     H_    0.585046 0.820459 0.856300 0.217027
H11   H     H_    0.529209 0.785144 0.812441 0.220867
H12   H     H_    0.180159 0.443510 0.138152 0.212317
H13   H     H_    0.737504 0.824600 0.705765 0.226498
H14   H     H_    0.129857 0.564014 0.099450 0.267805
H15   H     H_    0.210713 0.520840 0.159809 0.229962
H16   H     H_    0.892324 0.442672 0.865370 0.262177
H17   H     H_    0.866021 0.562665 0.822172 0.223322
H18   H     H_    0.824617 0.502422 0.789809 0.220783
H19   H     H_    0.842396 0.854525 0.646611 0.235545
H20   H     H_    0.802453 0.939695 0.758860 0.227314
H21   H     H_    0.707471 0.896499 0.821858 0.211518
H22   H     H_    0.145199 0.074027 0.161366 0.264911
H23   H     H_    0.058060 0.131792 0.107717 0.252564
H24   H     H_    0.172865 0.135036 0.042873 0.259464
H25   H     H_    0.067279 0.273298 0.080475 0.293752
H26   H     H_    0.166040 0.239711 0.113289 0.218606
H27   H     H_    0.354179 0.163582 0.308820 0.279085
H28   H     H_    0.078262 0.154732 0.262527 0.234858
H29   H     H_    0.974881 0.222204 0.235551 0.229557
H30   H     H_    0.246178 0.778317 0.712649 0.246002
H31   H     H_    0.296508 0.818963 0.592505 0.248296
H32   H     H_    0.176790 0.862013 0.644331 0.289382
H33   H     H_    0.277088 0.666821 0.630463 0.208991
H34   H     H_    0.210402 0.754230 0.561572 0.212282
H35   H     H_    0.086344 0.753729 0.738095 0.230867
H36   H     H_    0.159149 0.640270 0.754402 0.190789
H37   H     H_    0.181229 0.409322 0.705262 0.251000
H38   H     H_    0.349643 0.272884 0.226486 0.241310
H39   H     H_    0.226906 0.288676 0.747503 0.244270
H40   H     H_    0.137831 0.350502 0.822786 0.284064
H41   H     H_    0.239046 0.439766 0.797003 0.211330
H42   H     H_    0.330360 0.374434 0.727031 0.206785
H43   H     H_    0.351759 0.244840 0.841969 0.192462
H44   H     H_    0.240210 0.263755 0.916718 0.230633
H45   H     H_    0.678561 0.662557 0.322115 0.262788
H46   H     H_    0.652548 0.784118 0.270446 0.271603
H47   H     H_    0.564290 0.733880 0.354126 0.249370
H48   H     H_    0.551998 0.773473 0.202383 0.224243
H49   H     H_    0.369891 0.163388 0.150421 0.213082
H50   H     H_    0.580691 0.652293 0.251766 0.223569
H51   H     H_    0.746053 0.646267 0.167565 0.206413
H52   H     H_    0.715141 0.762334 0.106821 0.225373
H53   H     H_    0.205627 0.021932 0.846414 0.242179
H54   H     H_    0.308035 0.021185 0.850081 0.242419
H55   H     H_    0.232259 0.126911 0.801542 0.242218
H56   H     H_    0.793148 0.859963 0.229450 0.242855
H57   H     H_    0.699977 0.913771 0.185679 0.242713
H58   H     H_    0.777137 0.976431 0.158786 0.242726
H59   H     H_    0.052071 0.836189 0.193871 0.240435
H60   H     H_    0.264558 0.245767 0.158289 0.196171
H61   H     H_    0.037408 0.842035 0.300529 0.248207
H62   H     H_    0.150146 0.803350 0.225832 0.242147
H63   H     H_    0.927160 0.182276 0.785960 0.236106
H64   H     H_    0.841736 0.231482 0.732749 0.240617
H65   H     H_    0.955197 0.169327 0.678312 0.248964
H66   H     H_    0.846297 0.206047 0.008250 0.243143
H67   H     H_    0.849422 0.306721 0.014008 0.243481
H68   H     H_    0.801253 0.225433 0.116432 0.243911
H69   H     H_    0.174548 0.800944 0.968975 0.240040
H70   H     H_    0.215447 0.772254 0.866697 0.240505
H71   H     H_    0.243779 0.097142 0.193889 0.214521
H72   H     H_    0.163651 0.699063 0.973937 0.240251
H73   H     H_    0.173565 0.955121 0.780881 0.235641
H74   H     H_    0.123480 0.075550 0.733648 0.249557
H75   H     H_    0.149108 0.991467 0.679359 0.239925
H76   H     H_    0.867998 0.890265 0.294297 0.247640
H77   H     H_    0.853397 0.010872 0.240217 0.234364
H78   H     H_    0.862412 0.957951 0.354067 0.254212
H79   H     H_    0.739180 0.129858 0.061367 0.242555
H80   H     H_    0.669739 0.141174 0.001984 0.252412
H81   H     H_    0.776707 0.166793 0.938503 0.242297
H82   H     H_    0.190629 0.138894 0.292732 0.190115
H83   H     H_    0.245339 0.825841 0.036634 0.236024
H84   H     H_    0.349251 0.850075 0.995543 0.261991
H85   H     H_    0.290426 0.876429 0.916272 0.250835
H86   H     H_    0.974315 0.766593 0.179720 0.234174
H87   H     H_    0.090584 0.732100 0.111690 0.250195
H88   H     H_    0.010868 0.668180 0.147059 0.251908
H89   H     H_    0.021060 0.226735 0.807948 0.239810
H90   H     H_    0.003721 0.325939 0.831276 0.243440
H91   H     H_    0.906311 0.287902 0.859860 0.256267
H92   H     H_    0.363614 0.135218 0.805692 0.262415
H93   H     H_    0.788073 0.734612 0.842436 0.257741
H94   H     H_    0.453261 0.185433 0.725469 0.216760
H95   H     H_    0.360962 0.200895 0.690816 0.238470
H96   H     H_    0.609276 0.052771 0.136222 0.252269
H97   H     H_    0.496161 0.121310 0.175503 0.240800
H98   H     H_    0.582870 0.119997 0.207868 0.217236
H99   H     H_    0.147314 0.817263 0.362781 0.274790
H100  H     H_    0.209237 0.729666 0.437500 0.211718
H101  H     H_    0.222812 0.712749 0.335986 0.233114
H102  H     H_    0.815865 0.307130 0.503295 0.220894
H103  H     H_    0.844777 0.220897 0.600359 0.266080
H104  H     H_    0.868713 0.701989 0.742747 0.250378
H105  H     H_    0.790665 0.337538 0.602032 0.233478
H106  H     H_    0.706383 0.332240 0.199001 0.225918
H107  H     H_    0.813921 0.357016 0.133082 0.267145
H108  H     H_    0.724531 0.430139 0.197197 0.226584
H109  H     H_    0.281409 0.556205 0.808630 0.213835
H110  H     H_    0.196297 0.638714 0.865393 0.262055
H111  H     H_    0.309662 0.650418 0.799188 0.237028
H112  H     H_    0.175572 0.147064 0.446613 0.219725
H113  H     H_    0.121268 0.107666 0.564935 0.260380
H114  H     H_    0.198782 0.173355 0.524961 0.220890
O1    O     O_R   0.982940 0.138950 0.510160 -0.631711
O2    O     O_R   0.982940 0.510160 0.138950 -0.626868
O3    O     O_R   0.861050 0.017060 0.489840 -0.627055
O4    O     O_R   0.138950 0.982940 0.510160 -0.636104
O5    O     O_R   0.867700 0.025880 0.612340 -0.630175
O6    O     O_R   0.132300 0.974120 0.387660 -0.642837
O7    O     O_R   0.025880 0.612340 0.867700 -0.638561
O8    O     O_R   0.974120 0.387660 0.132300 -0.649434
O9    O     O_R   0.612340 0.867700 0.025880 -0.634648
O10   O     O_R   0.387660 0.132300 0.974120 -0.639468
O11   O     O_R   0.387660 0.974120 0.132300 -0.618392
O12   O     O_R   0.017060 0.861050 0.489840 -0.629117
O13   O     O_R   0.612340 0.025880 0.867700 -0.641207
O14   O     O_R   0.132300 0.387660 0.974120 -0.664958
O15   O     O_R   0.867700 0.612340 0.025880 -0.620016
O16   O     O_R   0.974120 0.132300 0.387660 -0.662730
O17   O     O_R   0.025880 0.867700 0.612340 -0.618324
O18   O     O_R   0.138950 0.510160 0.982940 -0.653814
O19   O     O_R   0.861050 0.489840 0.017060 -0.629584
O20   O     O_R   0.510160 0.982940 0.138950 -0.630844
O21   O     O_R   0.489840 0.017060 0.861050 -0.636125
O22   O     O_R   0.489840 0.861050 0.017060 -0.623501
O23   O     O_R   0.510160 0.138950 0.982940 -0.631603
O24   O     O_R   0.017060 0.489840 0.861050 -0.624247
Zn1   Zn    Zn3+2 0.004880 0.004880 0.583590 0.884374
Zn2   Zn    Zn3+2 0.995120 0.995120 0.416410 0.882262
Zn3   Zn    Zn3+2 0.004880 0.583590 0.004880 0.889908
Zn4   Zn    Zn3+2 0.995120 0.416410 0.995120 0.857693
Zn5   Zn    Zn3+2 0.583590 0.004880 0.004880 0.886237
Zn6   Zn    Zn3+2 0.416410 0.995120 0.995120 0.892855

loop_
_geom_bond_atom_site_label_1
_geom_bond_atom_site_label_2
_ccdc_geom_bond_type
C17   H34   S    
O23   Zn5   S    
C21   H40   S    
C29   C133  S    
C62   C83   S    
C81   C107  A    
C10   H19   S    
C55   C141  A    
C48   H6    S    
C4    C53   A    
C37   H88   S    
C28   C135  S    
C28   H62   S    
C61   O20   A    
C32   C124  S    
O11   Zn6   S    
C8    H1    S    
C3    C141  A    
C12   C105  S    
C14   H26   S    
C65   O7    A    
C58   C87   S    
C38   H89   S    
C39   H95   S    
C75   C134  A    
C7    C8    S    
C46   C142  A    
C31   H70   S    
C50   H14   S    
C84   C123  A    
C21   H37   S    
C91   C123  A    
C89   C112  A    
C47   H4    S    
C29   H64   S    
C41   H99   S    
C78   C105  A    
C11   H104  S    
C49   H9    S    
C2    C95   A    
C26   C130  S    
C66   O2    A    
C25   H46   S    
C1    C96   A    
C30   H68   S    
C39   H92   S    
C3    C54   A    
C22   C108  S    
C109  C122  A    
C56   C88   S    
O14   Zn4   S    
C42   C93   S    
C80   C106  A    
C51   H16   S    
C43   C94   S    
O5    Zn1   S    
C91   C116  A    
C69   C76   S    
C17   C18   S    
C120  C133  A    
C94   C119  A    
C26   H53   S    
C31   C131  S    
C118  C131  A    
C110  C124  A    
C20   H41   S    
C54   C74   A    
C41   H101  S    
C43   H108  S    
C11   H2    S    
C54   C140  A    
C116  C129  A    
C47   H5    S    
C42   H105  S    
C50   H12   S    
C16   C17   S    
C67   C77   S    
C111  C125  A    
C52   C138  A    
C79   C102  A    
C51   H17   S    
C109  C142  A    
C93   C120  A    
C82   C108  A    
C7    H49   S    
C86   C107  A    
O17   Zn1   S    
C9    C10   S    
C122  C129  A    
C40   H98   S    
O2    Zn3   S    
C2    C74   A    
C8    H27   S    
O7    Zn3   S    
C85   C134  A    
C55   C75   A    
C18   H31   S    
C76   C103  A    
C137  C143  A    
C69   O4    A    
O9    Zn5   S    
C36   H84   S    
C65   C80   S    
C27   H57   S    
O10   Zn6   S    
C28   H61   S    
C28   H59   S    
C22   H52   S    
C102  C111  A    
C99   C114  A    
C14   H25   S    
C118  C140  A    
C128  C132  A    
C61   O11   A    
C23   H48   S    
C67   O3    A    
C15   H22   S    
C34   H80   S    
C5    C139  A    
C69   O6    A    
C47   H3    S    
O18   Zn3   S    
C22   C23   S    
C95   C118  A    
C68   C78   A    
C37   H86   S    
C66   C78   S    
C117  C137  A    
C42   H103  S    
C125  C133  A    
C83   C104  A    
C6    H71   S    
C63   C82   S    
C57   C77   A    
C49   H10   S    
C45   H114  S    
C34   H81   S    
O16   Zn2   S    
C51   H18   S    
C35   C70   A    
C16   H35   S    
C12   H28   S    
C27   H56   S    
C64   O10   A    
C38   H91   S    
C3    C115  A    
C36   H85   S    
C26   H54   S    
C31   H72   S    
C41   H100  S    
C4    C138  A    
C31   H69   S    
C96   C110  A    
C57   C71   A    
C115  C128  A    
C51   C102  S    
C114  C144  A    
C9    H20   S    
C68   C100  A    
C30   H66   S    
C7    H60   S    
C52   C72   A    
C8    H38   S    
C19   H44   S    
C49   C99   S    
O3    Zn2   S    
C97   C109  A    
O22   Zn6   S    
O8    Zn4   S    
O4    Zn1   S    
C18   H32   S    
C68   C72   A    
C57   C97   A    
C71   C112  A    
C13   C87   A    
C119  C132  A    
C73   C79   A    
C124  C130  A    
C5    C52   A    
C117  C130  A    
C6    C103  S    
C121  C135  A    
O13   Zn5   S    
C26   H55   S    
C24   C88   A    
C10   H13   S    
C46   C71   A    
C65   O24   A    
C136  C142  A    
C46   C137  A    
C116  C136  A    
C81   C90   A    
C18   H30   S    
C99   C101  A    
C4    C111  A    
C13   C73   A    
C126  C135  A    
O24   Zn4   S    
C36   H83   S    
C60   O19   A    
C48   H8    S    
C13   C92   A    
C25   H47   S    
O15   Zn3   S    
C27   C129  S    
C88   C105  A    
C15   H24   S    
C83   C112  A    
C56   O1    A    
C120  C138  A    
C62   O21   A    
C85   C108  A    
C15   H23   S    
C30   H67   S    
C38   C125  S    
C34   H79   S    
C24   C72   A    
C37   C126  S    
C33   H76   S    
C17   H33   S    
C37   H87   S    
C59   O18   A    
C58   O17   A    
C42   H102  S    
C44   H109  S    
C55   C144  A    
C22   H51   S    
C5    C113  A    
C53   C139  A    
C1    C76   A    
C49   H11   S    
C53   C73   A    
C100  C113  A    
C140  C144  A    
C12   C14   S    
C61   C84   S    
C66   O8    A    
C35   C136  A    
C38   H90   S    
C40   H97   S    
C67   O5    A    
C60   C85   S    
C64   O23   A    
C44   H111  S    
C29   H65   S    
C6    C7    S    
C113  C126  A    
C16   C106  S    
C50   H15   S    
C11   H93   S    
O6    Zn2   S    
C48   C98   S    
O19   Zn4   S    
C58   O12   A    
C50   C100  S    
C1    C70   A    
C29   H63   S    
C21   H39   S    
C47   C97   S    
O21   Zn6   S    
C121  C139  A    
C19   C20   S    
C9    H21   S    
C59   C86   S    
C40   H96   S    
C44   C95   S    
C25   H45   S    
C24   C93   A    
C33   H78   S    
C27   H58   S    
C56   O16   A    
C114  C127  A    
C43   H106  S    
C44   H110  S    
C98   C115  A    
C33   C122  S    
C87   C106  A    
C89   C117  A    
C9    C104  S    
C30   C132  S    
C74   C90   A    
C6    H82   S    
C23   H50   S    
O1    Zn1   S    
C45   H112  S    
C94   C134  A    
C82   C101  A    
C90   C98   A    
C59   O14   A    
C2    C86   A    
C23   C25   S    
C40   C91   S    
C110  C143  A    
C63   O22   A    
C127  C131  A    
C64   C81   S    
C32   H75   S    
C10   C11   S    
C70   C123  A    
C32   H73   S    
C20   H42   S    
C79   C80   A    
C36   C127  S    
C43   H107  S    
C45   H113  S    
C41   C92   S    
C20   C21   S    
C119  C141  A    
C34   C128  S    
O20   Zn5   S    
C48   H7    S    
C35   C143  A    
C75   C101  A    
C84   C103  A    
C14   C15   S    
C60   O15   A    
C77   C104  A    
C19   H43   S    
O12   Zn2   S    
C92   C121  A    
C45   C96   S    
C63   O9    A    
C39   C89   S    
C39   H94   S    
C32   H74   S    
C16   H36   S    
C62   O13   A    
C19   C107  S    
C12   H29   S    
C33   H77   S    
