data_str_m2_o14_o24_f0_pcu.sym.109
_audit_creation_date              2012-12-10T17:22:39-0500
_audit_creation_method            fapswitch 2.2
_symmetry_space_group_name_H-M    P1
_symmetry_Int_Tables_number       1
_space_group_crystal_system       triclinic
_cell_length_a                    10.65556
_cell_length_b                    10.786606
_cell_length_c                    9.681382
_cell_angle_alpha                 89.627837
_cell_angle_beta                  90.382648
_cell_angle_gamma                 93.990848
_cell_volume                      1110.00890955

loop_
_atom_site_label
_atom_site_type_symbol
_atom_type_description
_atom_site_fract_x
_atom_site_fract_y
_atom_site_fract_z
_atom_type_partial_charge
C1    C     C_R   0.501255 0.263232 0.500588 0.792014
C2    C     C_3   0.963231 0.615021 0.501272 -0.204047
C3    C     C_3   0.040823 0.558562 0.386756 0.204418
C4    C     C_3   0.122807 0.501105 0.497300 0.000762
C5    C     C_R   0.717750 0.142710 0.610301 -0.166592
C6    C     C_R   0.823474 0.084125 0.654687 -0.145369
C7    C     C_R   0.829047 0.956790 0.637344 -0.139426
C8    C     C_R   0.726007 0.886314 0.582811 -0.187658
C9    C     C_R   0.614671 0.942387 0.545936 0.075586
C10   C     C_R   0.612583 0.072957 0.554056 0.095124
C11   C     C_R   0.506615 0.130006 0.502100 -0.152938
C12   C     C_R   0.259907 0.501599 0.499283 0.791969
C13   C     C_R   0.404071 0.059625 0.446863 -0.176278
C14   C     C_R   0.402182 0.931307 0.446124 0.137867
C15   C     C_R   0.506682 0.871949 0.497071 -0.146486
C16   C     C_R   0.692732 0.659978 0.131996 0.211910
C17   C     C_R   0.787622 0.717005 0.049266 -0.257667
C18   C     C_R   0.780046 0.712734 0.909406 -0.242707
C19   C     C_R   0.678159 0.650372 0.848999 -0.102694
C20   C     C_R   0.589121 0.574761 0.923512 0.148694
C21   C     C_R   0.591950 0.576686 0.072988 0.141917
C22   C     C_R   0.415551 0.427315 0.073711 0.243841
C23   C     C_R   0.501314 0.737198 0.499371 0.785775
C24   C     C_R   0.415904 0.427943 0.926136 -0.110142
C25   C     C_R   0.739944 0.496844 0.500544 0.765530
C26   C     C_3   0.035149 0.382602 0.497049 0.174899
C27   C     C_3   0.952477 0.439387 0.385289 -0.144164
C28   C     C_3   0.876674 0.495242 0.501282 -0.047799
C29   C     C_3   0.956746 0.435854 0.613243 -0.149803
C30   C     C_3   0.045728 0.556004 0.613015 -0.218068
Cu1   Cu    Cu3+1 0.499990 0.499990 0.640660 0.932531
Cu2   Cu    Cu3+1 0.500010 0.500010 0.359340 0.970097
H1    H     H_    0.912277 0.391043 0.292443 0.141983
H2    H     H_    0.913725 0.912651 0.665730 0.124195
H3    H     H_    0.735084 0.788466 0.566824 0.105313
H4    H     H_    0.863127 0.776151 0.094788 0.153860
H5    H     H_    0.849876 0.764503 0.847357 0.157656
H6    H     H_    0.673019 0.666074 0.742391 0.207414
H7    H     H_    0.346862 0.368484 0.870966 0.140600
H8    H     H_    0.919872 0.384960 0.706084 0.136785
H9    H     H_    0.085584 0.604322 0.706002 0.151910
H10   H     H_    0.934004 0.711626 0.503359 0.124239
H11   H     H_    0.323692 0.104822 0.406452 0.158765
H12   H     H_    0.719753 0.242525 0.619877 0.140930
H13   H     H_    0.902799 0.138227 0.699237 0.138460
N1    N     N_R   0.501210 0.501210 0.147910 -0.182186
N2    N     N_R   0.501250 0.501290 0.852040 -0.202732
O1    O     O_R   0.499990 0.319640 0.618810 -0.579154
O2    O     O_R   0.500000 0.319660 0.381240 -0.550399
O3    O     O_R   0.316850 0.499960 0.618770 -0.584612
O4    O     O_R   0.316860 0.499980 0.381190 -0.557103
O5    O     O_R   0.500000 0.680340 0.618760 -0.598488
O6    O     O_R   0.500010 0.680360 0.381190 -0.554727
O7    O     O_R   0.683140 0.500020 0.618810 -0.611087
O8    O     O_R   0.683150 0.500040 0.381230 -0.557571
N3    N     N_3   0.292327 0.862909 0.393839 -0.606399
H14   H     H_    0.257750 0.801107 0.470488 0.209885
H15   H     H_    0.318576 0.811926 0.308615 0.238356
N4    N     N_3   0.325070 0.347429 0.145619 -0.533373
H16   H     H_    0.235363 0.369696 0.113839 0.188067
H17   H     H_    0.336761 0.256033 0.115625 0.195985
N5    N     N_3   0.698108 0.705409 0.269117 -0.507901
H18   H     H_    0.684111 0.800542 0.265475 0.203507
H19   H     H_    0.788772 0.697997 0.308857 0.197475
C31   C     C_3   0.080414 0.252251 0.489452 -0.916225
H20   H     H_    0.999486 0.184334 0.470233 0.248052
H21   H     H_    0.147458 0.247562 0.402747 0.239532
H22   H     H_    0.128176 0.229073 0.587538 0.231170
C32   C     C_3   0.081549 0.625701 0.254164 -0.906551
H23   H     H_    0.000978 0.623690 0.181192 0.233893
H24   H     H_    0.111411 0.723752 0.276254 0.243581
H25   H     H_    0.159051 0.579173 0.204795 0.255801

loop_
_geom_bond_atom_site_label_1
_geom_bond_atom_site_label_2
_ccdc_geom_bond_type
C14   N3    S    
C16   C21   A    
C6    H13   S    
C19   C20   A    
C1    C11   S    
Cu1   O5    S    
C7    C8    A    
C27   H1    S    
C25   C28   S    
C26   C27   S    
N5    H18   S    
C28   C29   S    
C3    C32   S    
C18   H5    S    
C5    C6    A    
C24   H7    S    
N3    H14   S    
C18   C19   A    
C32   H24   S    
N5    H19   S    
C8    C9    A    
C31   H21   S    
C30   H9    S    
C17   H4    S    
C4    C12   S    
C9    C10   A    
Cu2   O8    S    
C15   C23   S    
N4    H16   S    
Cu1   N2    S    
C13   C14   A    
C24   N2    A    
C16   N5    S    
C23   O6    A    
N4    H17   S    
C25   O7    A    
C22   N4    S    
C16   C17   A    
C8    H3    S    
C32   H25   S    
Cu2   O4    S    
C29   C30   S    
C19   H6    S    
C12   O3    A    
Cu1   Cu2   S    
C31   H22   S    
C17   C18   A    
C22   N1    A    
C5    H12   S    
Cu1   O1    S    
C7    H2    S    
C22   C24   A    
Cu1   O3    S    
C3    C4    S    
Cu2   O6    S    
C13   H11   S    
C12   O4    A    
C21   N1    A    
C26   C31   S    
Cu2   N1    S    
C25   O8    A    
C4    C26   S    
C1    O1    A    
C6    C7    A    
C2    C30   S    
C3    C27   S    
C2    C3    S    
C9    C15   A    
C5    C10   A    
C11   C13   A    
C23   O5    A    
C2    H10   S    
C29   H8    S    
N3    H15   S    
Cu1   O7    S    
C32   H23   S    
Cu2   O2    S    
C20   N2    A    
C10   C11   A    
C20   C21   A    
C26   C29   S    
C31   H20   S    
C27   C28   S    
C14   C15   A    
C2    C28   S    
C1    O2    A    
C4    C30   S    
