data_str_m2_o10_o29_f0_pcu.sym.41
_audit_creation_date              2012-10-26T20:17:38-0400
_audit_creation_method            fapswitch 2.2
_symmetry_space_group_name_H-M    P1
_symmetry_Int_Tables_number       1
_space_group_crystal_system       triclinic
_cell_length_a                    27.764916
_cell_length_b                    8.67259
_cell_length_c                    7.478165
_cell_angle_alpha                 103.676072
_cell_angle_beta                  93.420231
_cell_angle_gamma                 92.742832
_cell_volume                      1742.95829213

loop_
_atom_site_label
_atom_site_type_symbol
_atom_type_description
_atom_site_fract_x
_atom_site_fract_y
_atom_site_fract_z
_atom_type_partial_charge
C1    C     C_R   0.498212 0.199564 0.452830 0.532091
C2    C     C_R   0.869550 0.352248 0.449328 0.031779
C3    C     C_R   0.354817 0.502652 0.512404 0.002632
C4    C     C_R   0.645183 0.497418 0.487604 0.002663
C5    C     C_R   0.971929 0.352704 0.460829 0.027499
C6    C     C_R   0.028075 0.647500 0.539095 0.027502
C7    C     C_R   0.976758 0.648121 0.544612 0.031082
C8    C     C_R   0.023247 0.352085 0.455331 0.031082
C9    C     C_R   0.949052 0.499623 0.495455 -0.022477
C10   C     C_R   0.050953 0.500582 0.504486 -0.022477
C11   C     C_R   0.942398 0.211646 0.444780 -0.115467
C12   C     C_R   0.501788 0.800436 0.547170 0.532091
C13   C     C_R   0.057606 0.788555 0.555114 -0.115453
C14   C     C_R   0.892404 0.210767 0.432691 -0.142653
C15   C     C_R   0.107599 0.789435 0.567195 -0.142650
C16   C     C_R   0.407594 0.500373 0.503647 0.535802
C17   C     C_R   0.592406 0.499638 0.496354 0.535802
C18   C     C_R   0.048183 0.210000 0.393259 0.255384
C19   C     C_R   0.951825 0.790207 0.606705 0.255383
C20   C     C_2   0.496273 0.030990 0.427312 -0.153454
C21   C     C_2   0.503727 0.969010 0.572688 -0.153450
C22   C     C_R   0.176572 0.364619 0.495922 0.400523
C23   C     C_R   0.102332 0.502815 0.513208 -0.042723
C24   C     C_R   0.823434 0.635594 0.504123 0.400500
C25   C     C_R   0.181090 0.647471 0.560232 0.403646
C26   C     C_R   0.818914 0.352737 0.439695 0.403654
C27   C     C_R   0.283826 0.521084 0.689461 -0.057861
C28   C     C_R   0.716158 0.478163 0.310410 -0.057898
C29   C     C_R   0.333883 0.518608 0.682143 -0.141005
C30   C     C_R   0.666099 0.480593 0.317723 -0.140953
C31   C     C_R   0.324823 0.489411 0.350582 -0.142928
C32   C     C_R   0.675198 0.511603 0.649582 -0.142944
C33   C     C_R   0.274891 0.491886 0.358409 -0.055871
C34   C     C_R   0.897673 0.497392 0.486748 -0.042720
C35   C     C_R   0.725131 0.509213 0.641766 -0.055866
C36   C     C_R   0.254335 0.507646 0.527551 0.248864
C37   C     C_R   0.745669 0.492563 0.472476 0.248809
C38   C     C_3   0.435160 0.242542 0.962489 -0.034091
C39   C     C_3   0.564841 0.757454 0.037513 -0.034031
C40   C     C_3   0.047266 0.977851 0.155466 -0.132989
C41   C     C_3   0.952750 0.022386 0.844469 -0.132987
C42   C     C_R   0.125827 0.360087 0.482527 -0.019550
C43   C     C_R   0.874179 0.640122 0.517479 -0.019550
C44   C     C_R   0.098682 0.215856 0.426546 -0.112296
C45   C     C_R   0.901324 0.784352 0.573460 -0.112309
C46   C     C_R   0.130455 0.647959 0.550590 0.031772
Cu1   Cu    Cu3+1 0.505380 0.517380 0.684380 1.042258
Cu2   Cu    Cu3+1 0.494620 0.482620 0.315620 1.042234
H1    H     H_    0.339846 0.476988 0.217890 0.135148
H2    H     H_    0.267935 0.532728 0.820410 0.122090
H3    H     H_    0.871702 0.098475 0.415455 0.170475
H4    H     H_    0.128302 0.901725 0.584410 0.170471
H5    H     H_    0.956513 0.099963 0.451371 0.220624
H6    H     H_    0.043489 0.900232 0.548507 0.220637
H7    H     H_    0.488172 0.957724 0.288445 0.117379
H8    H     H_    0.511828 0.042276 0.711556 0.117376
H9    H     H_    0.416655 0.247343 0.090587 0.144726
H10   H     H_    0.468077 0.174105 0.961028 0.110964
H11   H     H_    0.409981 0.176336 0.845908 0.106808
H12   H     H_    0.660190 0.524729 0.782394 0.135123
H13   H     H_    0.531924 0.825894 0.038986 0.110939
H14   H     H_    0.583343 0.752657 0.909410 0.144632
H15   H     H_    0.590022 0.823655 0.154090 0.106832
H16   H     H_    0.074253 0.905957 0.208236 0.126316
H17   H     H_    0.064264 0.053459 0.072061 0.138931
H18   H     H_    0.020672 0.891729 0.062266 0.168149
H19   H     H_    0.935750 0.946801 0.927895 0.138928
H20   H     H_    0.925766 0.094281 0.791685 0.126319
H21   H     H_    0.979348 0.108507 0.937652 0.168137
H22   H     H_    0.252047 0.481083 0.232944 0.123098
H23   H     H_    0.747990 0.520748 0.767354 0.123199
H24   H     H_    0.117202 0.106874 0.398967 0.154611
H25   H     H_    0.882805 0.893335 0.601058 0.154622
H26   H     H_    0.643885 0.469499 0.190715 0.155283
H27   H     H_    0.356081 0.528948 0.809021 0.155389
H28   H     H_    0.732033 0.465814 0.179334 0.122200
N1    N     N_R   0.202938 0.506919 0.532987 -0.398775
N2    N     N_R   0.797066 0.493293 0.467017 -0.398766
N3    N     N_2   0.486510 0.456430 0.038510 0.101919
N4    N     N_2   0.513490 0.543570 0.961490 0.101921
O1    O     O_R   0.503500 0.286120 0.619780 -0.481431
O2    O     O_2   0.800549 0.772244 0.531512 -0.477166
O3    O     O_2   0.791721 0.214303 0.405625 -0.472229
O4    O     O_2   0.208283 0.785902 0.594262 -0.472191
O5    O     O_3   0.445301 0.395894 0.937217 -0.475094
O6    O     O_3   0.554700 0.604100 0.062778 -0.474997
O7    O     O_3   0.022762 0.067929 0.301438 -0.611746
O8    O     O_3   0.977250 0.932277 0.698506 -0.611734
O9    O     O_R   0.496500 0.713880 0.380220 -0.481443
O10   O     O_R   0.494410 0.256780 0.308360 -0.541351
O11   O     O_R   0.505590 0.743220 0.691640 -0.541341
O12   O     O_R   0.434810 0.514700 0.655690 -0.461274
O13   O     O_R   0.565190 0.485300 0.344310 -0.461281
O14   O     O_R   0.425720 0.485350 0.344280 -0.515854
O15   O     O_R   0.574280 0.514650 0.655720 -0.515838
O16   O     O_2   0.199457 0.227972 0.468584 -0.477133

loop_
_geom_bond_atom_site_label_1
_geom_bond_atom_site_label_2
_ccdc_geom_bond_type
C1    O10   A    
C27   C29   A    
Cu1   O12   S    
C12   O11   A    
C41   H19   S    
Cu1   O11   S    
C26   O3    S    
C23   C42   A    
Cu2   O14   S    
C25   N1    A    
Cu2   N3    S    
C35   C37   A    
C5    C11   A    
C36   N1    S    
C30   H26   S    
C11   C14   A    
C1    O1    A    
C33   C36   A    
C45   H25   S    
C3    C29   A    
C24   O2    S    
N4    O6    S    
C38   H10   S    
C14   H3    S    
C25   O4    S    
C31   C33   A    
C17   O15   A    
C11   H5    S    
C27   H2    S    
C2    C34   A    
C35   H23   S    
C23   C46   A    
C40   H18   S    
C42   C44   A    
Cu1   N4    S    
C31   H1    S    
C20   H7    S    
C41   H20   S    
C39   H13   S    
Cu2   O13   S    
C38   O5    S    
C32   C35   A    
C12   O9    A    
C19   O8    S    
C41   O8    S    
C12   C21   S    
C8    C18   A    
N3    N4    D    
C5    C9    A    
C18   C44   A    
C5    C8    A    
C38   H9    S    
Cu1   Cu2   S    
C2    C26   A    
C26   N2    A    
C15   H4    S    
C3    C31   A    
C43   C45   A    
C4    C32   A    
C33   H22   S    
C4    C17   S    
C24   N2    A    
C16   O12   A    
C7    C19   A    
Cu2   O9    S    
C13   C15   A    
C9    C34   A    
C10   C23   A    
C17   O13   A    
C32   H12   S    
C28   H28   S    
N3    O5    S    
C40   O7    S    
C41   H21   S    
C13   H6    S    
C7    C9    A    
C39   H14   S    
C1    C20   S    
C22   O16   S    
C34   C43   A    
C22   N1    A    
C6    C10   A    
C21   H8    S    
C19   C45   A    
C6    C7    A    
C29   H27   S    
C27   C36   A    
C39   H15   S    
C37   N2    S    
C16   O14   A    
C18   O7    S    
C40   H16   S    
C40   H17   S    
C28   C30   A    
C6    C13   A    
C22   C42   A    
C28   C37   A    
C44   H24   S    
Cu1   O1    S    
C2    C14   A    
C38   H11   S    
C20   C21   D    
C8    C10   A    
C24   C43   A    
Cu1   O15   S    
Cu2   O10   S    
C15   C46   A    
C25   C46   A    
C4    C30   A    
C3    C16   S    
C39   O6    S    
