data_str_m2_o10_o23_f0_pcu.sym.223
_audit_creation_date              2012-12-10T16:46:49-0500
_audit_creation_method            fapswitch 2.2
_symmetry_space_group_name_H-M    P1
_symmetry_Int_Tables_number       1
_space_group_crystal_system       triclinic
_cell_length_a                    15.858022
_cell_length_b                    8.711807
_cell_length_c                    7.444034
_cell_angle_alpha                 102.879809
_cell_angle_beta                  93.833122
_cell_angle_gamma                 92.000981
_cell_volume                      998.977848347

loop_
_atom_site_label
_atom_site_type_symbol
_atom_type_description
_atom_site_fract_x
_atom_site_fract_y
_atom_site_fract_z
_atom_type_partial_charge
C1    C     C_R   0.497521 0.199866 0.453811 0.916737
C2    C     C_3   0.952570 0.429281 0.655482 -0.456658
C3    C     C_3   0.916992 0.503548 0.496591 -0.051995
C4    C     C_3   0.956439 0.675215 0.519311 0.910458
C5    C     C_3   0.054731 0.669929 0.524721 -0.473113
C6    C     C_1   0.824570 0.500495 0.491275 0.095541
C7    C     C_1   0.175429 0.500312 0.508387 0.106449
C8    C     C_1   0.251031 0.501378 0.508949 -0.061713
C9    C     C_2   0.496399 0.032346 0.429224 -0.465914
C10   C     C_2   0.503782 0.967142 0.574782 0.448229
C11   C     C_R   0.340391 0.500622 0.503083 0.807092
C12   C     C_R   0.502502 0.799903 0.546705 0.771647
C13   C     C_R   0.659610 0.499396 0.496914 0.812686
C14   C     C_3   0.050478 0.431705 0.663796 0.513124
C15   C     C_3   0.041742 0.399455 0.313018 0.198150
C16   C     C_3   0.943642 0.401076 0.312419 -0.448974
C17   C     C_1   0.748974 0.498996 0.491011 -0.070392
C18   C     C_3   0.083000 0.498097 0.502607 -0.086890
Cu1   Cu    Cu3+1 0.509300 0.517380 0.684380 1.048588
Cu2   Cu    Cu3+1 0.490700 0.482620 0.315620 1.024182
H1    H     H_    0.927320 0.304980 0.632190 0.215985
H2    H     H_    0.930879 0.491321 0.790133 0.253616
H3    H     H_    0.489422 0.961309 0.288511 0.166230
H4    H     H_    0.435120 0.377373 0.948797 0.259115
H5    H     H_    0.564871 0.622645 0.051207 0.236631
H6    H     H_    0.071706 0.310329 0.655090 0.188779
H7    H     H_    0.061564 0.457747 0.202690 0.188182
H8    H     H_    0.914598 0.279639 0.291746 0.248451
H9    H     H_    0.918151 0.447529 0.193123 0.222002
H10   H     H_    0.085297 0.744668 0.655458 0.260096
H11   H     H_    0.078366 0.720615 0.411709 0.191973
N1    N     N_2   0.476670 0.456430 0.038530 -0.185256
N2    N     N_2   0.523330 0.543570 0.961470 -0.202920
O1    O     O_R   0.506050 0.286130 0.619770 -0.520699
O2    O     O_R   0.490330 0.256780 0.308370 -0.563810
O3    O     O_R   0.387300 0.514690 0.655770 -0.588423
O4    O     O_R   0.371580 0.485340 0.344370 -0.561556
O5    O     O_R   0.509670 0.743220 0.691630 -0.534531
O6    O     O_R   0.493950 0.713870 0.380230 -0.630276
O7    O     O_R   0.628420 0.514660 0.655630 -0.562510
O8    O     O_R   0.612700 0.485310 0.344230 -0.584080
F1    F     F_    0.083993 0.522353 0.832596 -0.625112
F2    F     F_    0.928579 0.731525 0.366434 -0.661406
F3    F     F_    0.512569 0.053665 0.752451 -0.626206
S1    S     S_3+6 0.074314 0.198917 0.248625 0.009953
O9    O     O_2   0.044733 0.133749 0.049413 -0.212421
O10   O     O_2   0.168925 0.192508 0.269751 -0.283798
O11   O     O_3   0.030213 0.087221 0.378200 -0.520102
H12   H     H_    0.046440 0.978664 0.325273 0.402981
S2    S     S_3+6 0.926222 0.815280 0.720299 0.065437
O12   O     O_2   0.955750 0.977549 0.705840 -0.211131
O13   O     O_2   0.831734 0.810853 0.727977 -0.295209
O14   O     O_3   0.971589 0.778090 0.915916 -0.491175
H13   H     H_    0.943668 0.846438 0.017095 0.413955

loop_
_geom_bond_atom_site_label_1
_geom_bond_atom_site_label_2
_ccdc_geom_bond_type
C2    H2    S    
C15   C18   S    
S2    O13   D    
H4    N1    S    
C16   H8    S    
Cu1   O5    S    
C9    C10   D    
C14   C18   S    
C15   H7    S    
Cu1   Cu2   S    
C13   C17   S    
C14   F1    S    
C3    C6    S    
N1    N2    D    
C7    C18   S    
C2    H1    S    
C13   O8    A    
Cu2   O8    S    
C16   H9    S    
C7    C8    T    
S1    O9    D    
C14   H6    S    
Cu2   O4    S    
C10   C12   S    
C12   O6    A    
C8    C11   S    
O11   H12   S    
C4    F2    S    
C1    O1    A    
C2    C3    S    
Cu1   O3    S    
S1    O10   D    
C12   O5    A    
C2    C14   S    
S2    O14   S    
Cu1   O7    S    
C15   S1    S    
C10   F3    S    
C3    C4    S    
C6    C17   T    
C1    C9    S    
C1    O2    A    
C5    H10   S    
Cu2   N1    S    
S1    O11   S    
C4    S2    S    
C11   O4    A    
Cu2   O6    S    
C11   O3    A    
C13   O7    A    
C5    C18   S    
S2    O12   D    
Cu1   N2    S    
O14   H13   S    
Cu2   O2    S    
C9    H3    S    
C3    C16   S    
C15   C16   S    
H5    N2    S    
C4    C5    S    
C5    H11   S    
Cu1   O1    S    
