data_str_m9_o11_o16_f0_sra.sym.142
_audit_creation_date              2012-12-11T14:17:30-0500
_audit_creation_method            fapswitch 2.2
_symmetry_space_group_name_H-M    P1
_symmetry_Int_Tables_number       1
_space_group_crystal_system       triclinic
_cell_length_a                    6.943816
_cell_length_b                    13.653601
_cell_length_c                    20.460889
_cell_angle_alpha                 102.051993
_cell_angle_beta                  90.039876
_cell_angle_gamma                 90.424237
_cell_volume                      1897.04355889

loop_
_atom_site_label
_atom_site_type_symbol
_atom_type_description
_atom_site_fract_x
_atom_site_fract_y
_atom_site_fract_z
_atom_type_partial_charge
O1    O     O_R   0.506860 0.599390 0.449240 -0.543741
O2    O     O_R   0.180220 0.594600 0.586780 -0.548763
O3    O     O_R   0.004500 0.400610 0.550760 -0.542973
C1    C     C_R   0.348070 0.612728 0.614382 0.804970
O4    O     O_R   0.177490 0.611290 0.451970 -0.545588
O5    O     O_R   0.001750 0.417420 0.414990 -0.545489
C2    C     C_R   0.346490 0.637566 0.434997 0.760591
O6    O     O_R   0.509610 0.582580 0.585010 -0.529520
O7    O     O_3   0.337420 0.436370 0.488020 -0.380449
V1    V     V_3+5 0.064680 0.511800 0.502220 1.461464
O8    O     O_R   0.671710 0.405400 0.413220 -0.553182
C3    C     C_R   0.839646 0.386789 0.385965 0.723389
O9    O     O_R   0.674440 0.388710 0.548030 -0.530023
C4    C     C_R   0.843293 0.362102 0.564663 0.788192
V2    V     V_3+5 0.564010 0.488200 0.497780 1.481221
O10   O     O_3   0.841140 0.563630 0.511980 -0.375317
C5    C     C_R   0.947891 0.116603 0.610310 -0.101583
H1    H     H_    0.951642 0.171489 0.519579 0.142601
H2    H     H_    0.991317 0.042390 0.584784 0.178219
C6    C     C_R   0.856012 0.283898 0.603357 -0.163334
C7    C     C_R   0.845895 0.311803 0.925223 0.456084
C8    C     C_R   0.860479 0.388651 0.889756 0.053136
C9    C     C_R   0.881353 0.364851 0.820365 0.667756
C10   C     C_R   0.873601 0.264006 0.784282 -0.134483
C11   C     C_R   0.882147 0.185853 0.821098 -0.167208
C12   C     C_R   0.872896 0.238777 0.712818 -0.064667
C13   C     C_R   0.921460 0.139993 0.679931 -0.075647
C14   C     C_R   0.941652 0.065188 0.716446 0.580024
C15   C     C_R   0.915309 0.085831 0.785660 0.128505
C16   C     C_R   0.821363 0.307136 0.672257 0.670638
C17   C     C_R   0.922852 0.189414 0.572779 -0.298599
C18   C     C_R   0.863389 0.211582 0.892185 -0.206034
C19   C     C_2   0.999441 0.287955 0.284591 -0.146271
C20   C     C_2   0.840643 0.328749 0.316546 -0.292678
H3    H     H_    0.138177 0.300424 0.309601 0.139686
H4    H     H_    0.704688 0.323980 0.290333 0.138800
C21   C     C_2   0.998363 0.232413 0.213539 -0.174288
C22   C     C_2   0.858331 0.167830 0.184413 0.064844
H5    H     H_    0.125487 0.242057 0.184556 0.126407
C23   C     C_2   0.231802 0.756845 0.794237 0.176592
C24   C     C_2   0.358824 0.832747 0.815939 -0.001204
C25   C     C_2   0.206648 0.710619 0.722123 0.211012
C26   C     C_2   0.357931 0.667585 0.684910 -0.342998
H6    H     H_    0.496894 0.666799 0.709071 0.140640
C27   C     C_R   0.379098 0.895129 0.395735 0.195071
C28   C     C_R   0.357570 0.718511 0.398247 -0.054476
C29   C     C_R   0.393746 0.690228 0.077573 0.110984
C30   C     C_R   0.444919 0.620459 0.115186 -0.099750
C31   C     C_R   0.458858 0.646706 0.184508 0.194497
C32   C     C_R   0.395649 0.743207 0.219451 0.002922
C33   C     C_R   0.357638 0.817785 0.181490 -0.040990
C34   C     C_R   0.375978 0.768761 0.290581 -0.011187
C35   C     C_R   0.366408 0.870776 0.324436 0.069986
C36   C     C_R   0.334368 0.944609 0.286552 0.181720
C37   C     C_R   0.319572 0.917501 0.216227 0.107758
C38   C     C_R   0.352479 0.694805 0.328752 -0.288748
C39   C     C_R   0.377469 0.817972 0.432180 0.109640
C40   C     C_R   0.362008 0.790156 0.109841 -0.083229
H7    H     H_    0.323551 0.617902 0.305178 0.129820
H8    H     H_    0.487926 0.545977 0.089980 0.160301
O11   O     O_R   0.203230 0.917310 0.915020 -0.539192
O12   O     O_R   0.535500 0.888690 0.048040 -0.542772
O13   O     O_R   0.711080 0.082610 0.085000 -0.531080
C41   C     C_R   0.367244 0.865091 0.067369 0.829067
O14   O     O_R   0.532630 0.905370 0.913230 -0.541109
O15   O     O_R   0.708190 0.099410 0.949230 -0.539547
C42   C     C_R   0.364212 0.885851 0.886401 0.813098
O16   O     O_R   0.206120 0.900510 0.050790 -0.535569
O17   O     O_3   0.375360 0.063570 0.011990 -0.378707
V3    V     V_3+5 0.648170 0.988200 0.997780 1.522976
O18   O     O_R   0.038240 0.111390 0.951940 -0.542092
C43   C     C_R   0.869851 0.136794 0.934252 0.905436
O19   O     O_R   0.041120 0.094710 0.086750 -0.554665
C44   C     C_R   0.872482 0.113538 0.114017 0.767606
V4    V     V_3+5 0.148810 0.011930 0.002180 1.498664
O20   O     O_3   0.871750 0.936430 0.988010 -0.374620
N1    N     N_3   0.698381 0.140410 0.221583 -0.698023
H9    H     H_    0.590029 0.193723 0.224666 0.222927
H10   H     H_    0.742564 0.132083 0.268965 0.246976
N2    N     N_3   0.107382 0.723637 0.841474 -0.653080
H11   H     H_    0.124801 0.646368 0.836033 0.282823
H12   H     H_    0.964880 0.736412 0.829219 0.266294
N3    N     N_3   0.479572 0.872805 0.770625 -0.698613
H13   H     H_    0.396449 0.887826 0.731270 0.269202
H14   H     H_    0.586866 0.821522 0.751956 0.249249
N4    N     N_3   0.014692 0.709877 0.695743 -0.633257
H15   H     H_    0.964731 0.636022 0.681993 0.268239
H16   H     H_    0.015590 0.743903 0.654465 0.273366
N5    N     N_3   0.389973 0.839813 0.503830 -0.679191
H17   H     H_    0.519161 0.877971 0.518280 0.240161
H18   H     H_    0.275055 0.885738 0.523297 0.240469
N6    N     N_3   0.300436 0.046636 0.319752 -0.627731
H19   H     H_    0.400301 0.093512 0.303183 0.235073
H20   H     H_    0.161151 0.067252 0.309068 0.227675
N7    N     N_3   0.397423 0.997361 0.431050 -0.623373
H21   H     H_    0.526209 0.006009 0.458187 0.227079
H22   H     H_    0.282086 0.014519 0.464162 0.230863
F1    F     F_    0.983003 0.969899 0.684556 -0.716350
N8    N     N_3   0.389997 0.662232 0.005717 -0.666413
H23   H     H_    0.426143 0.586861 0.989452 0.241602
H24   H     H_    0.247973 0.669139 0.990367 0.245756
N9    N     N_3   0.568981 0.579858 0.215329 -0.667201
H25   H     H_    0.641832 0.617821 0.257936 0.245803
H26   H     H_    0.480292 0.522624 0.225322 0.223787
N10   N     N_3   0.257012 0.991413 0.180589 -0.661033
H27   H     H_    0.351371 0.052584 0.189660 0.241278
H28   H     H_    0.119186 0.014659 0.196950 0.225263
F2    F     F_    0.724295 0.392697 0.697383 -0.652132
F3    F     F_    0.826085 0.334470 0.992832 -0.698810
F4    F     F_    0.933450 0.440803 0.790383 -0.627930
N11   N     N_3   0.862891 0.492221 0.923454 -0.596650
H29   H     H_    0.855354 0.499586 0.975246 0.280774
H30   H     H_    0.738693 0.525250 0.909151 0.251838
N12   N     N_3   0.932724 0.004351 0.819362 -0.639115
H31   H     H_    0.068780 0.973065 0.808743 0.255549
H32   H     H_    0.830220 0.949786 0.799823 0.274309

loop_
_geom_bond_atom_site_label_1
_geom_bond_atom_site_label_2
_ccdc_geom_bond_type
C15   N12   S    
O19   C44   A    
N7    H21   S    
C1    O6    A    
N12   H31   S    
C24   C42   S    
C6    C16   A    
C35   C36   A    
O11   V4    S    
O16   V4    S    
N10   H28   S    
C27   C39   A    
C12   C13   A    
C39   N5    S    
C37   N10   S    
N3    H13   S    
C41   O16   A    
C14   C15   A    
C10   C12   A    
O5    C3    A    
N4    H16   S    
V2    O10   S    
C24   N3    S    
C29   N8    S    
O12   V3    S    
C31   C32   A    
O12   C41   A    
C5    H2    S    
O8    V2    S    
O15   C43   A    
N11   H29   S    
O14   C42   A    
C32   C34   A    
C9    C10   A    
C23   N2    S    
C25   N4    S    
N5    H18   S    
O7    V1    S    
C33   C37   A    
C11   C18   A    
C23   C25   S    
C27   C35   A    
C7    C8    A    
C40   C41   S    
O19   V4    S    
O17   V3    S    
C30   H8    S    
N1    H10   S    
C11   C15   A    
C7    C18   A    
C5    C13   A    
C2    C28   S    
C4    C6    S    
C10   C11   A    
N2    H12   S    
C31   N9    S    
O4    C2    A    
N4    H15   S    
C32   C33   A    
N1    H9    S    
C19   C21   S    
O13   C44   A    
O2    C1    A    
V4    O20   S    
C36   N6    S    
C21   C22   D    
O11   C42   A    
N12   H32   S    
C29   C30   A    
O13   V3    S    
N6    H20   S    
C19   C20   D    
N11   H30   S    
C33   C40   A    
N9    H26   S    
O3    C4    A    
O1    V2    S    
C23   C24   D    
N3    H14   S    
C12   C16   A    
O6    V2    S    
O9    V2    S    
C28   C39   A    
V3    O20   S    
C5    C17   A    
C25   C26   D    
C3    C20   S    
C27   N7    S    
C34   C35   A    
C22   C44   S    
C14   F1    S    
C9    F4    S    
C36   C37   A    
C30   C31   A    
C16   F2    S    
O1    C2    A    
N2    H11   S    
O5    V1    S    
C7    F3    S    
O8    C3    A    
N7    H22   S    
C22   N1    S    
N10   H27   S    
C38   H7    S    
O7    V2    S    
O18   C43   A    
C21   H5    S    
O3    V1    S    
V1    O10   S    
N8    H23   S    
C29   C40   A    
O18   V4    S    
O15   V3    S    
C26   H6    S    
N6    H19   S    
C19   H3    S    
C1    C26   S    
O17   V4    S    
C20   H4    S    
N9    H25   S    
C34   C38   A    
O4    V1    S    
C8    N11   S    
C28   C38   A    
C13   C14   A    
C8    C9    A    
H1    C17   S    
N5    H17   S    
O9    C4    A    
N8    H24   S    
O14   V3    S    
C18   C43   S    
C6    C17   A    
O2    V1    S    
