data_str_m2_o10_o28_f0_pcu.sym.221
_audit_creation_date              2012-12-10T16:50:15-0500
_audit_creation_method            fapswitch 2.2
_symmetry_space_group_name_H-M    P1
_symmetry_Int_Tables_number       1
_space_group_crystal_system       triclinic
_cell_length_a                    23.519104
_cell_length_b                    8.679305
_cell_length_c                    7.425535
_cell_angle_alpha                 103.038385
_cell_angle_beta                  93.838791
_cell_angle_gamma                 92.466519
_cell_volume                      1470.74167263

loop_
_atom_site_label
_atom_site_type_symbol
_atom_type_description
_atom_site_fract_x
_atom_site_fract_y
_atom_site_fract_z
_atom_type_partial_charge
C1    C     C_R   0.498296 0.199597 0.453134 0.876959
C2    C     C_R   0.501705 0.800403 0.546866 0.876989
C3    C     C_R   0.242868 0.553630 0.677322 -0.169821
C4    C     C_R   0.757084 0.445593 0.322656 -0.169883
C5    C     C_R   0.302526 0.558063 0.679261 0.211035
C6    C     C_R   0.697428 0.441005 0.320846 0.210977
C7    C     C_R   0.328432 0.505708 0.510600 -0.066929
C8    C     C_R   0.671556 0.494262 0.489382 -0.066866
C9    C     C_R   0.293625 0.454121 0.344270 -0.278790
C10   C     C_R   0.706385 0.546741 0.655524 -0.279076
C11   C     C_R   0.234494 0.452462 0.344415 -0.106351
C12   C     C_R   0.765515 0.548495 0.655281 -0.106241
C13   C     C_R   0.208982 0.501723 0.510660 0.328471
C14   C     C_R   0.791003 0.498434 0.489120 0.328104
C15   C     C_2   0.497476 0.031684 0.426706 -0.372843
C16   C     C_2   0.502529 0.968317 0.573292 -0.372633
C17   C     C_R   0.390977 0.502136 0.503608 0.808951
C18   C     C_R   0.609019 0.497841 0.496393 0.808907
C19   C     C_R   0.883271 0.640857 0.529451 0.536257
C20   C     C_R   0.116720 0.359309 0.470171 0.536317
C21   C     C_R   0.877450 0.357548 0.453687 0.540458
C22   C     C_R   0.122545 0.642618 0.546070 0.540501
C23   C     C_R   0.937047 0.355012 0.456371 -0.014495
C24   C     C_R   0.062947 0.645158 0.543321 -0.014545
C25   C     C_R   0.969975 0.499868 0.497604 -0.017506
C26   C     C_R   0.030018 0.500300 0.502053 -0.017508
C27   C     C_R   0.943008 0.644289 0.534504 -0.014092
C28   C     C_R   0.056983 0.355877 0.465131 -0.014127
C29   C     C_R   0.964363 0.211677 0.419761 -0.164979
C30   C     C_R   0.035630 0.788492 0.579919 -0.164975
C31   C     C_R   0.023740 0.212103 0.424103 -0.173845
C32   C     C_R   0.976252 0.788064 0.575533 -0.173844
Cu1   Cu    Cu3+1 0.506340 0.517380 0.684380 0.957436
Cu2   Cu    Cu3+1 0.493660 0.482620 0.315620 0.957447
H1    H     H_    0.939982 0.098811 0.387480 0.193080
H2    H     H_    0.060011 0.901357 0.612217 0.193073
H3    H     H_    0.043450 0.099557 0.394892 0.187112
H4    H     H_    0.956541 0.900610 0.604731 0.187117
H5    H     H_    0.222672 0.592711 0.805411 0.143939
H6    H     H_    0.777252 0.405822 0.194641 0.144246
H7    H     H_    0.312077 0.413540 0.213322 0.170714
H8    H     H_    0.687950 0.587928 0.786395 0.170987
H9    H     H_    0.208362 0.412907 0.214999 0.150881
H10   H     H_    0.791664 0.588726 0.784568 0.151234
H11   H     H_    0.492696 0.959896 0.285512 0.175758
H12   H     H_    0.507309 0.040104 0.714486 0.175787
H13   H     H_    0.454838 0.379769 0.948870 0.229028
H14   H     H_    0.545161 0.620234 0.051130 0.228900
N1    N     N_R   0.851925 0.498989 0.489990 -0.466423
N2    N     N_R   0.148064 0.501176 0.509716 -0.466510
N3    N     N_2   0.484110 0.456420 0.038520 -0.208207
N4    N     N_2   0.515890 0.543580 0.961480 -0.208269
O1    O     O_R   0.504120 0.286130 0.619770 -0.583759
O2    O     O_R   0.495880 0.713870 0.380230 -0.583895
O3    O     O_R   0.493410 0.256770 0.308360 -0.589470
O4    O     O_R   0.506590 0.743230 0.691640 -0.589598
O5    O     O_R   0.423230 0.514630 0.655730 -0.554194
O6    O     O_R   0.576770 0.485370 0.344270 -0.554209
O7    O     O_R   0.412530 0.485280 0.344320 -0.589531
O8    O     O_R   0.587470 0.514720 0.655680 -0.589509
O9    O     O_2   0.856635 0.777954 0.562673 -0.518379
O10   O     O_2   0.143358 0.222218 0.436848 -0.518268
O11   O     O_2   0.845230 0.219982 0.416889 -0.517619
O12   O     O_2   0.154773 0.780174 0.583009 -0.517472
N5    N     N_2   0.335727 0.616263 0.850614 -0.414737
H15   H     H_    0.317188 0.590485 0.963265 0.245953
C33   C     C_3   0.354917 0.781626 0.883931 -0.603210
H16   H     H_    0.317781 0.857260 0.899200 0.222949
H17   H     H_    0.379172 0.804102 0.768145 0.223523
H18   H     H_    0.383516 0.814387 0.013590 0.222541
N6    N     N_2   0.664195 0.381527 0.149798 -0.414583
H19   H     H_    0.682723 0.406082 0.036516 0.246307
C34   C     C_3   0.644932 0.216358 0.118516 -0.603460
H20   H     H_    0.682038 0.140581 0.104541 0.223067
H21   H     H_    0.616391 0.182507 0.988790 0.222324
H22   H     H_    0.620596 0.195224 0.234725 0.223323

loop_
_geom_bond_atom_site_label_1
_geom_bond_atom_site_label_2
_ccdc_geom_bond_type
C10   H8    S    
C34   H20   S    
C21   N1    A    
Cu1   N4    S    
Cu2   N3    S    
C23   C29   A    
C24   C26   A    
C14   N1    S    
C15   C16   D    
N3    N4    D    
C1    O1    A    
C20   N2    A    
C18   O6    A    
C4    H6    S    
C7    C17   S    
C11   H9    S    
C1    C15   S    
C32   H4    S    
C2    C16   S    
C3    C13   A    
C22   N2    A    
Cu1   O4    S    
C3    H5    S    
Cu2   O3    S    
C4    C14   A    
C34   H21   S    
Cu1   O1    S    
C6    N6    S    
C33   H16   S    
C4    C6    A    
C2    O2    A    
C16   H12   S    
N6    C34   S    
H13   N3    S    
C20   C28   A    
N5    C33   S    
C25   C26   A    
C8    C18   S    
C31   H3    S    
C33   H17   S    
C19   N1    A    
C5    N5    S    
Cu1   Cu2   S    
C9    C11   A    
C10   C12   A    
C17   O7    A    
C18   O8    A    
C12   C14   A    
Cu2   O2    S    
Cu1   O8    S    
C21   C23   A    
Cu2   O7    S    
C34   H22   S    
C22   C24   A    
C15   H11   S    
C19   C27   A    
C5    C7    A    
C7    C9    A    
Cu1   O5    S    
C27   C32   A    
C26   C28   A    
C28   C31   A    
C3    C5    A    
C6    C8    A    
C25   C27   A    
C29   H1    S    
C9    H7    S    
C30   H2    S    
C33   H18   S    
C1    O3    A    
N6    H19   S    
C29   C31   A    
C2    O4    A    
C30   C32   A    
C11   C13   A    
C19   O9    S    
C23   C25   A    
C20   O10   S    
C24   C30   A    
C21   O11   S    
C22   O12   S    
C13   N2    S    
H14   N4    S    
C8    C10   A    
N5    H15   S    
Cu2   O6    S    
C12   H10   S    
C17   O5    A    
