data_str_m2_o4_o4_f0_pcu.sym.95
_audit_creation_date              2012-12-10T19:07:39-0500
_audit_creation_method            fapswitch 2.2
_symmetry_space_group_name_H-M    P1
_symmetry_Int_Tables_number       1
_space_group_crystal_system       triclinic
_cell_length_a                    10.852183
_cell_length_b                    10.837093
_cell_length_c                    9.557358
_cell_angle_alpha                 91.543953
_cell_angle_beta                  89.979047
_cell_angle_gamma                 88.758663
_cell_volume                      1123.3314889

loop_
_atom_site_label
_atom_site_type_symbol
_atom_type_description
_atom_site_fract_x
_atom_site_fract_y
_atom_site_fract_z
_atom_type_partial_charge
C1    C     C_R   0.498293 0.262804 0.498226 0.851644
C2    C     C_R   0.936452 0.525704 0.624779 0.089294
C3    C     C_3   0.929416 0.463391 0.763030 -0.266408
C4    C     C_3   0.071523 0.461068 0.763309 -0.271586
C5    C     C_R   0.591160 0.063254 0.557471 0.043709
C6    C     C_R   0.498331 0.130026 0.492463 -0.077474
C7    C     C_R   0.410411 0.066502 0.412789 -0.162648
C8    C     C_R   0.405305 0.936633 0.416629 -0.018242
C9    C     C_R   0.493823 0.871502 0.498148 -0.129282
C10   C     C_R   0.592187 0.936387 0.555263 -0.071748
C11   C     C_3   0.650254 0.932371 0.696383 -0.261380
C12   C     C_R   0.262462 0.502695 0.499991 0.833254
C13   C     C_3   0.644777 0.072982 0.700885 0.282401
C14   C     C_R   0.586355 0.564157 0.076219 0.176587
C15   C     C_R   0.423200 0.426936 0.072183 -0.083616
C16   C     C_R   0.423746 0.426476 0.923400 -0.045262
C17   C     C_R   0.586087 0.563820 0.928575 0.192802
C18   C     C_3   0.601611 0.699035 0.927603 -0.477139
C19   C     C_3   0.603215 0.700286 0.086367 -0.233851
C20   C     C_R   0.497420 0.737665 0.500825 0.746779
C21   C     C_R   0.737503 0.503309 0.500013 0.808132
C22   C     C_R   0.062823 0.522664 0.624451 0.119160
C23   C     C_R   0.129343 0.514236 0.499527 -0.052571
C24   C     C_R   0.064078 0.522973 0.372716 -0.186839
C25   C     C_R   0.935274 0.523397 0.372752 -0.189096
C26   C     C_R   0.870201 0.516339 0.499712 -0.067114
Cu1   Cu    Cu3+1 0.499990 0.499980 0.640670 0.971754
Cu2   Cu    Cu3+1 0.500010 0.500020 0.359330 0.932910
H1    H     H_    0.111877 0.523281 0.273220 0.164397
H2    H     H_    0.734654 0.119155 0.702948 0.143940
H3    H     H_    0.359340 0.369497 0.126191 0.139974
H4    H     H_    0.361630 0.367601 0.866016 0.152760
H5    H     H_    0.689730 0.721301 0.876600 0.234999
H6    H     H_    0.516809 0.744690 0.887146 0.196822
H7    H     H_    0.522669 0.751302 0.133201 0.167170
H8    H     H_    0.887603 0.523032 0.273229 0.158832
H9    H     H_    0.888887 0.525581 0.846179 0.134837
H10   H     H_    0.110630 0.523898 0.844920 0.128816
H11   H     H_    0.341607 0.118590 0.355435 0.189063
H12   H     H_    0.589917 0.893057 0.774869 0.187436
N1    N     N_R   0.500790 0.500930 0.147930 -0.190151
N2    N     N_R   0.500790 0.500890 0.852020 -0.186449
O1    O     O_R   0.500000 0.319640 0.618810 -0.531035
O2    O     O_R   0.500010 0.319680 0.381230 -0.596742
O3    O     O_R   0.319650 0.499970 0.618810 -0.574561
O4    O     O_R   0.319660 0.500010 0.381230 -0.601365
O5    O     O_R   0.499990 0.680320 0.618770 -0.578870
O6    O     O_R   0.500000 0.680360 0.381190 -0.616483
O7    O     O_R   0.680340 0.499990 0.618770 -0.588364
O8    O     O_R   0.680350 0.500030 0.381190 -0.600224
C27   C     C_2   0.779103 0.878457 0.689975 0.337830
H13   H     H_    0.806765 0.816166 0.604160 0.080893
O9    O     O_2   0.852256 0.900937 0.783723 -0.490764
O10   O     O_3   0.556852 0.119866 0.798984 -0.551947
C28   C     C_3   0.610301 0.130994 0.933642 0.059672
H14   H     H_    0.634045 0.228965 0.954266 0.147500
H15   H     H_    0.695283 0.072629 0.947387 0.181827
C29   C     C_3   0.517090 0.093377 0.042673 -0.717694
H16   H     H_    0.495562 0.994185 0.027325 0.246315
H17   H     H_    0.555791 0.108063 0.149214 0.209050
H18   H     H_    0.430777 0.149414 0.033435 0.244367
C30   C     C_2   0.723652 0.733715 0.154490 0.396675
H19   H     H_    0.737768 0.715011 0.264245 0.080827
O11   O     O_2   0.804493 0.784544 0.090067 -0.502666
C31   C     C_2   0.869510 0.339113 0.754005 0.434522
H20   H     H_    0.813458 0.309762 0.840264 0.022047
O12   O     O_2   0.886039 0.270144 0.652176 -0.527864
C32   C     C_2   0.131531 0.333458 0.763417 0.488532
H21   H     H_    0.139764 0.286239 0.861729 0.041364
O13   O     O_2   0.168889 0.281624 0.656063 -0.505649
C33   C     C_2   0.303101 0.872451 0.343474 0.382410
H22   H     H_    0.286014 0.775933 0.361225 0.076021
O14   O     O_2   0.235653 0.927179 0.262581 -0.522245

loop_
_geom_bond_atom_site_label_1
_geom_bond_atom_site_label_2
_ccdc_geom_bond_type
C2    C22   A    
C32   H21   S    
C23   C24   A    
C15   H3    S    
C30   H19   S    
Cu1   O1    S    
C16   H4    S    
C4    C22   S    
C9    C10   A    
Cu2   N1    S    
C9    C20   S    
C5    C13   S    
Cu1   N2    S    
C28   H14   S    
C1    O2    A    
C15   C16   A    
Cu1   O3    S    
C29   H18   S    
C21   O7    A    
C17   C18   S    
C29   H16   S    
C5    C10   A    
C2    C26   A    
C19   H7    S    
C13   O10   S    
C24   H1    S    
C11   C13   S    
C12   C23   S    
Cu2   O4    S    
C20   O6    A    
C1    O1    A    
Cu2   O8    S    
C18   H6    S    
C14   N1    A    
C5    C6    A    
C12   O4    A    
C21   O8    A    
C21   C26   S    
C4    H10   S    
C2    C3    S    
C6    C7    A    
C28   H15   S    
C11   H12   S    
C3    C31   S    
C18   H5    S    
C20   O5    A    
C11   C27   S    
C31   H20   S    
C25   H8    S    
C29   H17   S    
C27   H13   S    
C16   N2    A    
C13   H2    S    
C33   H22   S    
C24   C25   A    
C15   N1    A    
C32   O13   D    
C18   C19   S    
C10   C11   S    
C28   C29   S    
Cu1   O5    S    
C1    C6    S    
C33   O14   D    
C7    C8    A    
C7    H11   S    
O10   C28   S    
C12   O3    A    
C8    C33   S    
C30   O11   D    
C31   O12   D    
C19   C30   S    
C27   O9    D    
C25   C26   A    
C17   N2    A    
C4    C32   S    
C14   C19   S    
Cu2   O2    S    
C22   C23   A    
Cu2   O6    S    
C3    C4    S    
Cu1   O7    S    
C3    H9    S    
C8    C9    A    
Cu1   Cu2   S    
C14   C17   A    
