data_str_m3_o10_o16_f0_pcu.sym.141
_audit_creation_date              2012-12-10T16:51:28-0500
_audit_creation_method            fapswitch 2.2
_symmetry_space_group_name_H-M    P1
_symmetry_Int_Tables_number       1
_space_group_crystal_system       triclinic
_cell_length_a                    7.83292
_cell_length_b                    8.59693
_cell_length_c                    12.019815
_cell_angle_alpha                 92.448291
_cell_angle_beta                  101.424189
_cell_angle_gamma                 93.964518
_cell_volume                      790.150262385

loop_
_atom_site_label
_atom_site_type_symbol
_atom_type_description
_atom_site_fract_x
_atom_site_fract_y
_atom_site_fract_z
_atom_type_partial_charge
C1    C     C_R   0.047253 0.794671 0.502797 0.825909
C2    C     C_R   0.158838 0.502349 0.833769 -0.072830
C3    C     C_2   0.079461 0.958986 0.518264 0.260051
C4    C     C_R   0.106443 0.504609 0.710854 0.866446
C5    C     C_2   0.938214 0.042163 0.509225 -0.416908
C6    C     C_R   0.957809 0.205780 0.506369 0.959697
C7    C     C_R   0.892292 0.488691 0.289217 0.858283
C8    C     C_R   0.797409 0.265247 0.010450 -0.133926
C9    C     C_R   0.830058 0.455155 0.168473 -0.184857
C10   C     C_R   0.075832 0.594712 0.902613 -0.281393
C11   C     C_R   0.138282 0.610244 0.019263 -0.141176
C12   C     C_R   0.386520 0.465305 0.995337 -0.035773
C13   C     C_R   0.290642 0.543213 0.067552 0.544736
C14   C     C_R   0.303781 0.423052 0.882616 -0.027751
C15   C     C_R   0.561780 0.430089 0.029614 -0.057798
C16   C     C_R   0.629425 0.311894 0.968224 0.055366
C17   C     C_R   0.528975 0.244486 0.865734 0.450050
C18   C     C_R   0.369129 0.304529 0.821603 -0.266456
C19   C     C_R   0.675868 0.517943 0.117803 0.404078
C20   C     C_R   0.893618 0.331545 0.113372 -0.274403
H1    H     H_    0.013830 0.282863 0.151787 0.182646
H2    H     H_    0.741342 0.721470 0.199343 0.325050
H3    H     H_    0.402551 0.455792 0.206555 0.322618
H4    H     H_    0.334152 0.947118 0.555228 0.358301
H5    H     H_    0.804896 0.989377 0.495306 0.160209
H6    H     H_    0.469709 0.373510 0.417211 0.149906
H7    H     H_    0.850997 0.172836 0.967333 0.200385
H8    H     H_    0.962607 0.654801 0.866195 0.185721
H9    H     H_    0.067725 0.674381 0.072598 0.163932
H10   H     H_    0.294582 0.255692 0.740624 0.184460
H11   H     H_    0.634460 0.708210 0.636961 0.344026
H12   H     H_    0.506771 0.094025 0.736948 0.357102
N1    N     N_2   0.434800 0.456690 0.470850 -0.036743
N2    N     N_2   0.565200 0.543310 0.529150 0.114386
O1    O     O_R   0.893060 0.738880 0.507150 -0.643364
O2    O     O_3   0.592841 0.126760 0.807613 -0.776582
O3    O     O_3   0.635296 0.664134 0.152625 -0.722007
O4    O     O_3   0.332984 0.545640 0.184652 -0.720284
O5    O     O_3   0.249383 0.028172 0.545270 -0.763769
O6    O     O_R   0.172250 0.711130 0.488470 -0.561498
O7    O     O_R   0.944700 0.520730 0.667600 -0.625869
O8    O     O_R   0.223890 0.492980 0.648920 -0.560122
O9    O     O_R   0.827750 0.288870 0.511530 -0.638778
O10   O     O_R   0.106940 0.261120 0.492850 -0.553852
O11   O     O_R   0.776110 0.507020 0.351080 -0.610846
O12   O     O_R   0.055300 0.479270 0.332400 -0.586135
O13   O     O_3   0.521808 0.652234 0.599174 -0.633864
Zn1   Zn    Zn3+2 0.813580 0.518530 0.512470 0.993402
Zn2   Zn    Zn3+2 0.186420 0.481470 0.487530 1.060223

loop_
_geom_bond_atom_site_label_1
_geom_bond_atom_site_label_2
_ccdc_geom_bond_type
O10   Zn2   S    
C2    C4    S    
C18   H10   S    
C17   O2    S    
H3    O4    S    
O9    Zn1   S    
C14   C18   A    
C9    C20   A    
C12   C15   A    
N1    N2    D    
C3    O5    S    
C8    C16   A    
C6    O10   A    
C12   C13   A    
C15   C19   A    
C11   C13   A    
O12   Zn2   S    
C1    O1    A    
C13   O4    S    
C8    C20   A    
C4    O8    A    
C5    H5    S    
O1    Zn1   S    
H12   O2    S    
O7    Zn1   S    
C12   C14   A    
C17   C18   A    
C6    O9    A    
C5    C6    S    
C2    C14   A    
N2    Zn1   S    
C10   C11   A    
O8    Zn2   S    
N1    Zn2   S    
C15   C16   A    
C2    C10   A    
C7    O12   A    
C7    O11   A    
H4    O5    S    
C20   H1    S    
C11   H9    S    
C4    O7    A    
O11   Zn1   S    
C10   H8    S    
C7    C9    S    
C8    H7    S    
H11   O13   S    
N2    O13   S    
C19   O3    S    
C1    O6    A    
C3    C5    D    
H2    O3    S    
C9    C19   A    
O6    Zn2   S    
H6    N1    S    
C16   C17   A    
C1    C3    S    
