data_str_m9_o4_o16_f0_sra.sym.16
_audit_creation_date              2013-03-05T16:07:19-0500
_audit_creation_method            fapswitch 2.2
_symmetry_space_group_name_H-M    P1
_symmetry_Int_Tables_number       1
_space_group_crystal_system       triclinic
_cell_length_a                    6.946007
_cell_length_b                    13.526389
_cell_length_c                    20.287465
_cell_angle_alpha                 103.102113
_cell_angle_beta                  90.049778
_cell_angle_gamma                 90.371158
_cell_volume                      1856.43190544

loop_
_atom_site_label
_atom_site_type_symbol
_atom_site_description
_atom_site_fract_x
_atom_site_fract_y
_atom_site_fract_z
_atom_type_partial_charge
O1    O     O_R   0.506770 0.599700 0.449550 -0.576575
O2    O     O_R   0.179980 0.595740 0.587960 -0.602268
O3    O     O_R   0.004580 0.400300 0.550450 -0.593338
C1    C     C_R   0.348047 0.616887 0.615394 0.921419
O4    O     O_R   0.177380 0.611700 0.452380 -0.609845
O5    O     O_R   0.001970 0.416370 0.413900 -0.559684
C2    C     C_R   0.346621 0.638373 0.435617 0.940657
O6    O     O_R   0.509390 0.583630 0.586100 -0.611153
O7    O     O_3   0.337530 0.435890 0.487530 -0.234017
V1    V     V_3+5 0.064660 0.511890 0.502310 1.181465
O8    O     O_R   0.671950 0.404260 0.412040 -0.576615
C3    C     C_R   0.841090 0.380003 0.385693 1.040617
O9    O     O_R   0.674540 0.388300 0.547620 -0.596209
C4    C     C_R   0.843634 0.361306 0.564215 0.922059
V2    V     V_3+5 0.564030 0.488110 0.497690 1.199172
O10   O     O_3   0.841030 0.564110 0.512470 -0.297347
C5    C     C_R   0.949849 0.110902 0.608974 0.027734
C6    C     C_R   0.857341 0.281369 0.602303 -0.137536
C7    C     C_R   0.800545 0.314392 0.927801 0.517224
C8    C     C_R   0.770861 0.387324 0.890537 -0.155450
C9    C     C_R   0.794552 0.363810 0.820648 -0.271363
C10   C     C_R   0.853667 0.265859 0.785445 0.131018
C11   C     C_R   0.891043 0.192500 0.824133 0.045699
C12   C     C_R   0.874905 0.238472 0.713329 0.063075
C13   C     C_R   0.939264 0.138964 0.681066 0.088845
C14   C     C_R   0.992251 0.070716 0.721742 0.004764
C15   C     C_R   0.961772 0.097088 0.791587 -0.262907
C16   C     C_R   0.835527 0.307831 0.672330 -0.249679
C17   C     C_R   0.911788 0.182617 0.570226 -0.038200
C18   C     C_R   0.858790 0.216311 0.895202 -0.331348
H1    H     H_    0.792443 0.384848 0.693136 0.107284
H2    H     H_    0.765901 0.424916 0.796213 0.135253
H3    H     H_    0.726513 0.463049 0.915859 0.158521
H4    H     H_    0.999820 0.042410 0.820848 0.125981
C19   C     C_R   0.694477 0.227745 0.211992 0.047937
C20   C     C_R   0.863630 0.178431 0.185712 -0.207658
C21   C     C_R   0.020160 0.182917 0.230688 -0.245705
H5    H     H_    0.148688 0.139323 0.214207 0.160392
C22   C     C_R   0.013539 0.244125 0.297162 0.449723
C23   C     C_R   0.850011 0.305629 0.319386 -0.305243
C24   C     C_R   0.689770 0.291110 0.276158 0.089361
C25   C     C_3   0.560272 0.365225 0.253805 0.294504
C26   C     C_3   0.563317 0.294824 0.183598 -0.417588
H6    H     H_    0.416629 0.370865 0.278264 0.124397
H7    H     H_    0.633977 0.327820 0.144406 0.281065
H8    H     H_    0.421762 0.257739 0.168360 0.182207
C27   C     C_R   0.496615 0.759113 0.702977 0.074000
C28   C     C_R   0.350713 0.686879 0.683132 -0.221381
C29   C     C_R   0.195879 0.688134 0.728391 -0.112962
H9    H     H_    0.077951 0.634826 0.714808 0.120026
C30   C     C_R   0.197817 0.753300 0.793412 -0.182476
H10   H     H_    0.081783 0.748421 0.828042 0.131972
C31   C     C_R   0.355400 0.818466 0.815171 -0.214572
C32   C     C_R   0.499970 0.822397 0.767622 0.141975
C33   C     C_3   0.713079 0.814907 0.773555 -0.478892
C34   C     C_3   0.709828 0.745893 0.702807 -0.150928
H11   H     H_    0.754191 0.774787 0.813491 0.180825
H12   H     H_    0.785642 0.889270 0.777015 0.186488
H13   H     H_    0.753918 0.666379 0.700640 0.145677
C35   C     C_R   0.472679 0.879503 0.384574 -0.157432
H14   H     H_    0.487910 0.826808 0.476221 0.106728
H15   H     H_    0.506463 0.004268 0.302007 0.158866
H16   H     H_    0.531146 0.953448 0.408553 0.128119
C36   C     C_R   0.360409 0.714583 0.394882 -0.133138
C37   C     C_R   0.318793 0.681315 0.067500 -0.127465
C38   C     C_R   0.309449 0.604334 0.103397 0.543273
C39   C     C_R   0.327410 0.628008 0.173672 -0.197581
C40   C     C_R   0.349417 0.729412 0.210907 0.027194
C41   C     C_R   0.374697 0.806265 0.173863 0.061519
C42   C     C_R   0.361325 0.756186 0.283358 0.136928
C43   C     C_R   0.431088 0.854720 0.315169 0.146581
C44   C     C_R   0.458990 0.928207 0.277632 -0.194518
C45   C     C_R   0.424649 0.905537 0.208534 -0.186733
C46   C     C_R   0.306294 0.690272 0.325963 -0.036836
C47   C     C_R   0.445871 0.808180 0.423358 -0.193495
C48   C     C_R   0.354321 0.781895 0.102508 -0.220572
H17   H     H_    0.334112 0.564478 0.197228 0.204878
H18   H     H_    0.445704 0.965953 0.182165 0.124438
O11   O     O_R   0.203450 0.916320 0.913910 -0.608216
O12   O     O_R   0.535520 0.888300 0.047620 -0.601454
O13   O     O_R   0.710860 0.083650 0.086100 -0.595579
C49   C     C_R   0.366237 0.861218 0.063936 0.981255
O14   O     O_R   0.532860 0.904250 0.912040 -0.602306
O15   O     O_R   0.708190 0.099710 0.949550 -0.582588
C50   C     C_R   0.364289 0.883103 0.884628 0.938229
O16   O     O_R   0.206120 0.900260 0.050460 -0.599625
O17   O     O_3   0.375280 0.064080 0.012470 -0.256450
V3    V     V_3+5 0.648180 0.988110 0.997690 1.182649
O18   O     O_R   0.038220 0.111740 0.952370 -0.582118
C51   C     C_R   0.869604 0.137702 0.934868 1.033848
O19   O     O_R   0.040880 0.095790 0.087940 -0.596628
C52   C     C_R   0.872403 0.116473 0.115468 1.016657
V4    V     V_3+5 0.148800 0.011950 0.002300 1.195770
O20   O     O_3   0.871820 0.935920 0.987530 -0.292586
N1    N     N_3   0.929987 0.153589 0.497925 -0.216275
H19   H     H_    0.798910 0.167096 0.476248 0.102544
H20   H     H_    0.035610 0.199249 0.482908 0.163343
Cl1   Cl    Cl    0.212556 0.238892 0.350150 -0.727531
Cl2   Cl    Cl    0.675382 0.484774 0.256211 -0.673488
N2    N     N_3   0.085598 0.976102 0.692952 -0.206378
H21   H     H_    0.098895 0.931202 0.728385 0.124274
H22   H     H_    0.225845 0.993332 0.680325 0.112063
N3    N     N_3   0.806125 0.791059 0.652426 -0.191219
H23   H     H_    0.744785 0.861370 0.651834 0.121773
H24   H     H_    0.780696 0.743837 0.604788 0.142917
N4    N     N_3   0.182451 0.604354 0.301475 -0.193126
H25   H     H_    0.248893 0.539055 0.309685 0.133190
H26   H     H_    0.054074 0.615066 0.328965 0.171913
N5    N     N_3   0.297609 0.658020 0.995242 -0.220956
H27   H     H_    0.404452 0.606340 0.974210 0.151554
H28   H     H_    0.163323 0.623311 0.982949 0.156007
Cl3   Cl    Cl    0.278027 0.476267 0.061183 -0.578186
N6    N     N_3   0.995554 0.008966 0.574408 -0.214254
H29   H     H_    0.118716 0.010868 0.545092 0.122463
H30   H     H_    0.881271 0.979714 0.542098 0.113757
Cl4   Cl    Cl    0.765430 0.349004 0.015924 -0.596391

loop_
_geom_bond_atom_site_label_1
_geom_bond_atom_site_label_2
_geom_bond_distance
_ccdc_geom_bond_type
O17   V3    2.150713 S    
V4    O20   2.163904 S    
C5    C17   1.406251 A    
C24   C25   1.495605 S    
C4    C6    1.468088 S    
N1    H19   1.045741 S    
C39   H17   1.075023 S    
C18   C51   1.474006 S    
C5    N6    1.435757 S    
C31   C32   1.402152 A    
H14   C47   1.083919 S    
C14   C15   1.397228 A    
C37   C48   1.404823 A    
O15   C51   1.293203 A    
C35   H16   1.084341 S    
C20   C21   1.410919 A    
O11   V4    1.997206 S    
N5    H28   1.045696 S    
O5    C3    1.297048 A    
O19   V4    1.996647 S    
N4    H25   1.045332 S    
V2    O10   2.163856 S    
C41   C48   1.416675 A    
O13   C52   1.297545 A    
O8    V2    1.996848 S    
C7    C8    1.388418 A    
C40   C41   1.424207 A    
C29   C30   1.410619 A    
C42   C46   1.426073 A    
C45   H18   1.082668 S    
C41   C45   1.408378 A    
C42   C43   1.424366 A    
O1    V2    2.016377 S    
C11   C15   1.401919 A    
C19   C26   1.493933 S    
O7    V1    2.150713 S    
C1    O6    1.303070 A    
C20   C52   1.481977 S    
C38   C39   1.393889 A    
O9    C4    1.298768 A    
C25   H6    1.110063 S    
C15   H4    1.081908 S    
C21   C22   1.414446 A    
C9    H2    1.075288 S    
V3    O20   1.703732 S    
C30   H10   1.081130 S    
C11   C18   1.422560 A    
C12   C16   1.415463 A    
C6    C16   1.392805 A    
C12   C13   1.431368 A    
O12   C49   1.294767 A    
C48   C49   1.466299 S    
O19   C52   1.301603 A    
O4    C2    1.295593 A    
C22   Cl1   1.762026 S    
C35   C43   1.400889 A    
C13   C14   1.420521 A    
C49   O16   1.289614 A    
C25   Cl2   1.789965 S    
C39   C40   1.415172 A    
C30   C31   1.407190 A    
C19   C20   1.399889 A    
C3    C23   1.487572 S    
O2    C1    1.294899 A    
C21   H5    1.083729 S    
O16   V4    2.017888 S    
C46   N4    1.435942 S    
C27   C28   1.397110 A    
C33   C34   1.524542 S    
N2    H22   1.045688 S    
H15   C44   1.084636 S    
N3    H24   1.044793 S    
C6    C17   1.401296 A    
C26   H7    1.109508 S    
C37   N5    1.435090 S    
O3    C4    1.290593 A    
C27   C32   1.394271 A    
C8    H3    1.083403 S    
C23   C24   1.401392 A    
O14   C50   1.297884 A    
C29   H9    1.081076 S    
O6    V2    1.996835 S    
C33   H11   1.110594 S    
C10   C12   1.433475 A    
C25   C26   1.523592 S    
O2    V1    2.009884 S    
O11   C50   1.299821 A    
C17   N1    1.435813 S    
N6    H29   1.045830 S    
C1    C28   1.481561 S    
C32   C33   1.491003 S    
C28   C29   1.412419 A    
O1    C2    1.290341 A    
C16   H1    1.076047 S    
O15   V3    2.016742 S    
C34   N3    1.464356 S    
C44   C45   1.385514 A    
O5    V1    2.004179 S    
O8    C3    1.303918 A    
N1    H20   1.045145 S    
C35   C47   1.388015 A    
C34   H13   1.111464 S    
C5    C13   1.427385 A    
O9    V2    2.017439 S    
O7    V2    1.713366 S    
O4    V1    2.017295 S    
O12   V3    2.017135 S    
O3    V1    2.016727 S    
V1    O10   1.703827 S    
N5    H27   1.045712 S    
N4    H26   1.045503 S    
C7    Cl4   1.760028 S    
O17   V4    1.712784 S    
N2    H21   1.045319 S    
C36   C47   1.395365 A    
O14   V3    2.009933 S    
O18   V4    2.017416 S    
C19   C24   1.387395 A    
C26   H8    1.112087 S    
C2    C36   1.462824 S    
O13   V3    2.004282 S    
C22   C23   1.424311 A    
C43   C44   1.395164 A    
C8    C9    1.391127 A    
C40   C42   1.434054 A    
C37   C38   1.400656 A    
C33   H12   1.109995 S    
N3    H23   1.047178 S    
C36   C46   1.411875 A    
C10   C11   1.422722 A    
C31   C50   1.481339 S    
C38   Cl3   1.761837 S    
O18   C51   1.297019 A    
C9    C10   1.418675 A    
C7    C18   1.403842 A    
C14   N2    1.439419 S    
C27   C34   1.492799 S    
N6    H30   1.045846 S    
