data_str_m3_o5_o14_f0_pcu.sym.52
_audit_creation_date              2013-03-05T16:46:43-0500
_audit_creation_method            fapswitch 2.2
_symmetry_space_group_name_H-M    P1
_symmetry_Int_Tables_number       1
_space_group_crystal_system       triclinic
_cell_length_a                    10.668894
_cell_length_b                    8.931465
_cell_length_c                    8.114851
_cell_angle_alpha                 90.008767
_cell_angle_beta                  88.355752
_cell_angle_gamma                 90.26376
_cell_volume                      772.928271962

loop_
_atom_site_label
_atom_site_type_symbol
_atom_site_description
_atom_site_fract_x
_atom_site_fract_y
_atom_site_fract_z
_atom_type_partial_charge
O1    O     O_R   0.500000 0.285350 0.636850 -0.588327
O2    O     O_R   0.500000 0.714650 0.636850 -0.584804
O3    O     O_R   0.500000 0.285360 0.363100 -0.615256
O4    O     O_R   0.500000 0.714640 0.363100 -0.622042
C1    C     C_R   0.499979 0.218030 0.499975 0.939407
C2    C     C_R   0.498643 0.781940 0.500020 0.974839
O5    O     O_R   0.316770 0.500000 0.636900 -0.606927
O6    O     O_R   0.683230 0.500000 0.636900 -0.622207
O7    O     O_R   0.316780 0.500000 0.363150 -0.605934
O8    O     O_R   0.683220 0.500000 0.363150 -0.634734
C3    C     C_R   0.259410 0.483598 0.503747 0.875165
C4    C     C_R   0.740649 0.512168 0.497713 0.924436
Zn1   Zn    Zn3+2 0.500000 0.500000 0.682780 1.091467
Zn2   Zn    Zn3+2 0.500000 0.500000 0.317220 1.053899
H1    H     H_    0.114879 0.385203 0.263539 0.213868
H2    H     H_    0.890208 0.417984 0.251803 0.182967
C5    C     C_R   0.098338 0.492431 0.821971 0.347187
C6    C     C_R   0.887578 0.668076 0.757183 0.336937
C7    C     C_R   0.043833 0.582367 0.945794 -0.295107
C8    C     C_R   0.942712 0.673986 0.911791 -0.237952
H3    H     H_    0.079124 0.581415 0.069121 0.200441
H4    H     H_    0.906045 0.747724 0.007331 0.212114
N1    N     N_1   0.500000 0.500000 0.073640 0.019029
N2    N     N_1   0.500000 0.500000 0.926360 0.026141
C9    C     C_R   0.938186 0.569228 0.634952 -0.063994
C10   C     C_R   0.055701 0.505967 0.658360 -0.043922
C11   C     C_R   0.125235 0.463095 0.514644 -0.043122
C12   C     C_R   0.874484 0.523249 0.493201 -0.037991
C13   C     C_R   0.064498 0.430170 0.369516 -0.189135
C14   C     C_R   0.938073 0.454299 0.360967 -0.208169
C15   C     C_1   0.499248 0.065195 0.500012 -0.116881
C16   C     C_1   0.498714 0.934788 0.500023 -0.087561
N3    N     N_R   0.181479 0.373683 0.867414 0.220099
O9    O     O_R   0.244530 0.382683 0.001824 -0.423079
O10   O     O_R   0.185498 0.249731 0.782916 -0.384599
N4    N     N_R   0.790733 0.773437 0.720406 0.207040
O11   O     O_R   0.718879 0.827396 0.838188 -0.382879
O12   O     O_R   0.786979 0.833117 0.574319 -0.430412

loop_
_geom_bond_atom_site_label_1
_geom_bond_atom_site_label_2
_geom_bond_distance
_ccdc_geom_bond_type
Zn2   N1    1.976615 S    
C2    C16   1.365150 S    
O7    Zn2   1.979439 S    
C13   C14   1.370621 A    
O3    Zn2   1.952925 S    
O6    C4    1.273782 A    
C11   C13   1.391144 A    
C15   C16   1.164711 T    
C3    C11   1.442517 S    
N1    N2    1.195154 T    
N4    O12   1.301614 A    
N3    O9    1.300080 A    
C5    N3    1.440566 S    
C9    C12   1.412744 A    
O5    C3    1.265128 A    
O7    C3    1.287229 A    
C10   C11   1.417705 A    
O2    C2    1.263133 A    
C6    C9    1.424149 A    
O8    C4    1.271745 A    
C4    C12   1.430267 S    
O1    C1    1.262945 A    
C5    C10   1.421080 A    
C12   C14   1.397432 A    
N4    O11   1.301797 A    
C7    H3    1.079377 S    
C8    H4    1.082896 S    
H1    C13   1.079416 S    
C6    C8    1.401750 A    
O4    Zn2   1.952812 S    
O1    Zn1   1.952977 S    
H2    C14   1.084009 S    
O6    Zn1   1.979477 S    
O3    C1    1.263134 A    
O5    Zn1   2.000467 S    
O4    C2    1.262926 A    
O8    Zn2   2.000448 S    
O2    Zn1   1.953088 S    
C5    C7    1.401264 A    
N3    O10   1.302354 A    
C9    C10   1.395511 A    
C6    N4    1.438366 S    
C7    C8    1.391009 A    
Zn1   N2    1.976615 S    
C1    C15   1.365034 S    
