data_str_m2_o10_o29_f0_pcu.sym.180
_audit_creation_date              2012-12-10T16:51:16-0500
_audit_creation_method            fapswitch 2.2
_symmetry_space_group_name_H-M    P1
_symmetry_Int_Tables_number       1
_space_group_crystal_system       triclinic
_cell_length_a                    27.802054
_cell_length_b                    8.667715
_cell_length_c                    7.429148
_cell_angle_alpha                 103.024873
_cell_angle_beta                  93.839962
_cell_angle_gamma                 92.442498
_cell_volume                      1737.23316862

loop_
_atom_site_label
_atom_site_type_symbol
_atom_type_description
_atom_site_fract_x
_atom_site_fract_y
_atom_site_fract_z
_atom_type_partial_charge
C1    C     C_R   0.498540 0.199621 0.453149 0.892636
C2    C     C_R   0.501460 0.800379 0.546851 0.892636
C3    C     C_R   0.102597 0.502939 0.522274 -0.078910
C4    C     C_R   0.897403 0.497060 0.477724 -0.078910
C5    C     C_R   0.125425 0.359070 0.468972 -0.009724
C6    C     C_R   0.874575 0.640929 0.531027 -0.009724
C7    C     C_R   0.097769 0.216272 0.412539 -0.163615
C8    C     C_R   0.902231 0.783727 0.587461 -0.163615
C9    C     C_R   0.131276 0.647122 0.585069 -0.036734
C10   C     C_R   0.868724 0.352877 0.414929 -0.036735
C11   C     C_R   0.354735 0.499098 0.510321 -0.036108
C12   C     C_R   0.645265 0.500902 0.489679 -0.036108
C13   C     C_R   0.971803 0.354279 0.435511 -0.002577
C14   C     C_R   0.028197 0.645720 0.564487 -0.002576
C15   C     C_R   0.976790 0.644849 0.550254 0.063215
C16   C     C_R   0.023210 0.355150 0.449744 0.063216
C17   C     C_R   0.948836 0.498537 0.487948 0.069598
C18   C     C_R   0.051164 0.501463 0.512050 0.069597
C19   C     C_R   0.942529 0.213194 0.366900 -0.206561
C20   C     C_R   0.057470 0.786806 0.633096 -0.206561
C21   C     C_R   0.892104 0.209719 0.356185 0.154832
C22   C     C_R   0.107896 0.790280 0.643812 0.154832
C23   C     C_R   0.407514 0.499659 0.503065 0.799133
C24   C     C_R   0.592486 0.500341 0.496935 0.799133
C25   C     C_R   0.047926 0.213681 0.405348 -0.218378
C26   C     C_R   0.952074 0.786318 0.594652 -0.218377
C27   C     C_2   0.497840 0.031659 0.426731 -0.363404
C28   C     C_2   0.502160 0.968341 0.573268 -0.363404
C29   C     C_R   0.175784 0.360207 0.473206 0.527451
C30   C     C_R   0.824216 0.639792 0.526793 0.527451
C31   C     C_R   0.182269 0.640960 0.585983 0.541650
C32   C     C_R   0.817731 0.359038 0.414016 0.541649
C33   C     C_R   0.274579 0.479012 0.352942 -0.102772
C34   C     C_R   0.725421 0.520990 0.647058 -0.102772
C35   C     C_R   0.324532 0.479641 0.346289 -0.207260
C36   C     C_R   0.675468 0.520361 0.653711 -0.207259
C37   C     C_R   0.334013 0.517709 0.680970 -0.214562
C38   C     C_R   0.665987 0.482288 0.319029 -0.214562
C39   C     C_R   0.283993 0.517426 0.687206 -0.098537
C40   C     C_R   0.716007 0.482571 0.312793 -0.098537
C41   C     C_R   0.254220 0.498102 0.523225 0.368877
C42   C     C_R   0.745780 0.501896 0.476774 0.368876
Cu1   Cu    Cu3+1 0.505380 0.517380 0.684380 0.956017
Cu2   Cu    Cu3+1 0.494620 0.482620 0.315620 0.956017
H1    H     H_    0.356373 0.532754 0.809526 0.158528
H2    H     H_    0.643627 0.467241 0.190474 0.158529
H3    H     H_    0.462180 0.378289 0.948576 0.225613
H4    H     H_    0.537820 0.621711 0.051424 0.225613
H5    H     H_    0.268325 0.532177 0.819188 0.133935
H6    H     H_    0.731675 0.467818 0.180811 0.133936
H7    H     H_    0.114595 0.104358 0.373440 0.185953
H8    H     H_    0.885405 0.895641 0.626561 0.185953
H9    H     H_    0.660578 0.534997 0.787156 0.157915
H10   H     H_    0.339422 0.465007 0.212844 0.157915
H11   H     H_    0.748386 0.535499 0.774086 0.135048
H12   H     H_    0.251614 0.464504 0.225914 0.135047
H13   H     H_    0.957931 0.101567 0.317011 0.141118
H14   H     H_    0.042069 0.898433 0.682983 0.141118
H15   H     H_    0.030278 0.096979 0.365161 0.138425
H16   H     H_    0.969722 0.903020 0.634840 0.138425
H17   H     H_    0.493773 0.959820 0.285621 0.179807
H18   H     H_    0.506227 0.040180 0.714379 0.179807
N1    N     N_R   0.202852 0.499604 0.529142 -0.469531
N2    N     N_R   0.797147 0.500395 0.470857 -0.469531
N3    N     N_2   0.486510 0.456430 0.038510 -0.218483
N4    N     N_2   0.513490 0.543570 0.961490 -0.218483
O1    O     O_R   0.503500 0.286120 0.619780 -0.583230
O2    O     O_R   0.496500 0.713880 0.380220 -0.583230
O3    O     O_R   0.494410 0.256780 0.308360 -0.583302
O4    O     O_R   0.505590 0.743220 0.691640 -0.583302
O5    O     O_R   0.434810 0.514700 0.655690 -0.592213
O6    O     O_R   0.565190 0.485300 0.344310 -0.592213
O7    O     O_R   0.425720 0.485350 0.344280 -0.584529
O8    O     O_R   0.574280 0.514650 0.655720 -0.584530
O9    O     O_2   0.197730 0.222901 0.421394 -0.537148
O10   O     O_2   0.802270 0.777098 0.578605 -0.537148
O11   O     O_2   0.788549 0.226095 0.359830 -0.530131
O12   O     O_2   0.211451 0.773903 0.640170 -0.530131
C43   C     C_3   0.865170 0.050348 0.278898 -0.727597
H19   H     H_    0.843315 0.017140 0.385457 0.275482
H20   H     H_    0.841808 0.054751 0.153175 0.261578
H21   H     H_    0.889788 0.953172 0.237044 0.198497
C44   C     C_3   0.134830 0.949651 0.721098 -0.727597
H22   H     H_    0.158192 0.945249 0.846822 0.261578
H23   H     H_    0.156685 0.982858 0.614539 0.275483
H24   H     H_    0.110212 0.046827 0.762950 0.198496

loop_
_geom_bond_atom_site_label_1
_geom_bond_atom_site_label_2
_ccdc_geom_bond_type
C29   N1    A    
C30   N2    A    
C8    C26   A    
C14   C18   A    
C34   C42   A    
C39   C41   A    
C19   H13   S    
C3    C18   A    
C19   C21   A    
C2    O2    A    
C9    C22   A    
C14   C20   A    
C11   C37   A    
C36   H9    S    
C27   H17   S    
C1    O1    A    
C32   O11   S    
C12   C36   A    
C8    H8    S    
C33   H12   S    
C40   C42   A    
C34   H11   S    
C35   H10   S    
Cu2   N3    S    
C23   O7    A    
C5    C29   A    
C10   C21   A    
C13   C19   A    
C31   N1    A    
C32   N2    A    
C4    C6    A    
C5    C7    A    
C15   C26   A    
C6    C8    A    
C6    C30   A    
C1    O3    A    
Cu1   Cu2   S    
C3    C9    A    
C23   O5    A    
C30   O10   S    
C44   H22   S    
C21   C43   S    
Cu2   O3    S    
C4    C17   A    
Cu1   O1    S    
C44   H23   S    
C20   C22   A    
Cu1   O4    S    
Cu2   O2    S    
C41   N1    S    
C20   H14   S    
C42   N2    S    
C24   O6    A    
C31   O12   S    
C43   H20   S    
C16   C25   A    
C15   C17   A    
Cu1   O5    S    
C39   H5    S    
C4    C10   A    
C3    C5    A    
C43   H21   S    
C29   O9    S    
C12   C24   S    
C7    C25   A    
C13   C17   A    
C33   C41   A    
C22   C44   S    
C11   C35   A    
C7    H7    S    
C37   C39   A    
C38   C40   A    
C24   O8    A    
C26   H16   S    
Cu1   O8    S    
Cu1   N4    S    
C40   H6    S    
C11   C23   S    
C33   C35   A    
Cu2   O6    S    
C34   C36   A    
C12   C38   A    
Cu2   O7    S    
C38   H2    S    
C9    C31   A    
C43   H19   S    
C10   C32   A    
C44   H24   S    
C16   C18   A    
N3    N4    D    
C13   C16   A    
C27   C28   D    
C1    C27   S    
C14   C15   A    
C2    C28   S    
C25   H15   S    
H4    N4    S    
C2    O4    A    
C37   H1    S    
H3    N3    S    
C28   H18   S    
