data_str_m3_o10_o18_f0_pcu.sym.119
_audit_creation_date              2013-03-05T15:40:57-0500
_audit_creation_method            fapswitch 2.2
_symmetry_space_group_name_H-M    P1
_symmetry_Int_Tables_number       1
_space_group_crystal_system       triclinic
_cell_length_a                    7.851355
_cell_length_b                    8.517839
_cell_length_c                    13.746106
_cell_angle_alpha                 93.325489
_cell_angle_beta                  92.897658
_cell_angle_gamma                 94.377892
_cell_volume                      913.669910754

loop_
_atom_site_label
_atom_site_type_symbol
_atom_site_description
_atom_site_fract_x
_atom_site_fract_y
_atom_site_fract_z
_atom_type_partial_charge
O1    O     O_R   0.891570 0.738930 0.506190 -0.581989
O2    O     O_R   0.108430 0.261070 0.493810 -0.584027
O3    O     O_R   0.174650 0.711050 0.490030 -0.574887
O4    O     O_R   0.825350 0.288950 0.509970 -0.572738
C1    C     C_R   0.048072 0.794907 0.507911 0.877162
C2    C     C_R   0.958802 0.207108 0.514063 0.845879
O5    O     O_R   0.909850 0.521900 0.644940 -0.606877
O6    O     O_R   0.090150 0.478100 0.355060 -0.586950
O7    O     O_R   0.192930 0.494020 0.628780 -0.591966
O8    O     O_R   0.807070 0.505980 0.371220 -0.622124
C3    C     C_R   0.062913 0.512160 0.681976 0.857847
C4    C     C_R   0.936818 0.486490 0.317981 0.868558
Zn1   Zn    Zn3+2 0.810990 0.518620 0.510790 1.047962
Zn2   Zn    Zn3+2 0.189010 0.481380 0.489210 1.060017
C5    C     C_R   0.095186 0.530612 0.786675 -0.110553
C6    C     C_R   0.903101 0.459568 0.213552 -0.070746
C7    C     C_R   0.061248 0.664802 0.942697 -0.162435
C8    C     C_R   0.940001 0.316331 0.060459 -0.172164
C9    C     C_R   0.005979 0.632011 0.845295 -0.152517
C10   C     C_R   0.995212 0.356984 0.157254 -0.175575
C11   C     C_R   0.234689 0.460512 0.825352 -0.149695
C12   C     C_R   0.758288 0.519638 0.173542 -0.259365
C13   C     C_R   0.308169 0.510786 0.917170 0.094858
C14   C     C_R   0.685447 0.459251 0.083474 0.083662
C15   C     C_R   0.212127 0.604983 0.978965 0.055336
C16   C     C_R   0.785629 0.368128 0.023012 0.129770
C17   C     C_R   0.471077 0.466505 0.949998 -0.032247
C18   C     C_R   0.519637 0.494110 0.050842 -0.142709
C19   C     C_R   0.401031 0.558029 0.115294 0.419153
C20   C     C_R   0.589289 0.401107 0.885791 0.451977
C21   C     C_R   0.260586 0.628172 0.077445 -0.202433
C22   C     C_R   0.736552 0.339473 0.924900 -0.318148
H1    H     H_    0.178857 0.686622 0.126962 0.174188
H2    H     H_    0.820880 0.280938 0.877021 0.159374
H3    H     H_    0.700944 0.611093 0.215391 0.209280
H4    H     H_    0.283398 0.366418 0.781713 0.227631
H5    H     H_    0.108399 0.308814 0.187839 0.169687
H6    H     H_    0.895532 0.685866 0.815892 0.205836
H7    H     H_    0.987830 0.737959 0.989178 0.146428
H8    H     H_    0.016401 0.243774 0.015435 0.145206
C23   C     C_2   0.081604 0.959749 0.530766 -0.010999
C24   C     C_2   0.947820 0.048676 0.545575 -0.017427
N1    N     N_2   0.440860 0.456490 0.474790 -0.121116
N2    N     N_2   0.559140 0.543510 0.525210 -0.121857
H9    H     H_    0.486752 0.373513 0.427598 0.212369
H10   H     H_    0.513260 0.626393 0.572479 0.235274
O9    O     O_3   0.408730 0.542714 0.214672 -0.761547
H11   H     H_    0.455574 0.440298 0.226723 0.330232
O10   O     O_3   0.568378 0.410002 0.785818 -0.756154
H12   H     H_    0.662201 0.360130 0.753145 0.363870
N3    N     N_R   0.256392 0.024869 0.532146 0.237659
O11   O     O_R   0.321788 0.112446 0.607653 -0.329546
O12   O     O_R   0.349943 0.995438 0.458735 -0.346980
N4    N     N_R   0.799919 0.990944 0.594981 0.215856
O13   O     O_R   0.651110 0.041762 0.575029 -0.280693
O14   O     O_R   0.818957 0.905975 0.669956 -0.408609

loop_
_geom_bond_atom_site_label_1
_geom_bond_atom_site_label_2
_geom_bond_distance
_ccdc_geom_bond_type
C15   C21   1.386284 A    
O5    Zn1   1.962071 S    
O5    C3    1.291723 A    
O7    Zn2   1.913872 S    
C21   H1    1.084684 S    
C16   C22   1.386306 A    
C12   H3    1.080828 S    
C9    H6    1.082847 S    
C13   C17   1.420175 A    
O6    C4    1.292093 A    
N1    H9    1.029324 S    
C23   C24   1.357833 D    
O9    H11   0.991619 S    
C8    C16   1.404830 A    
C6    C10   1.400007 A    
N1    N2    1.289346 D    
C7    C15   1.404760 A    
C13   C15   1.418441 A    
C19   C21   1.386441 A    
C11   H4    1.078267 S    
C24   N4    1.443189 S    
C17   C20   1.433667 A    
C20   C22   1.401432 A    
C10   H5    1.082936 S    
O7    C3    1.298877 A    
O2    C2    1.278421 A    
O3    Zn2   1.967526 S    
O8    C4    1.299222 A    
C19   O9    1.378522 S    
O1    C1    1.282201 A    
C12   C14   1.390736 A    
C18   C19   1.432966 A    
C7    C9    1.392235 A    
C20   O10   1.382893 S    
C14   C16   1.412912 A    
C8    C10   1.394090 A    
C11   C13   1.391107 A    
C7    H7    1.083838 S    
O2    Zn2   1.939668 S    
N4    O14   1.302223 A    
O1    Zn1   1.939669 S    
N3    O11   1.301999 A    
C4    C6    1.448251 S    
C5    C11   1.384431 A    
C8    H8    1.083777 S    
O4    C2    1.302722 A    
O10   H12   0.991913 S    
C2    C24   1.438768 S    
C17   C18   1.420326 A    
C1    C23   1.422509 S    
N4    O13   1.298547 A    
O6    Zn2   1.962072 S    
N2    H10   1.029391 S    
N3    O12   1.301675 A    
C5    C9    1.398038 A    
C3    C5    1.446028 S    
C23   N3    1.439179 S    
Zn1   N2    2.023107 S    
C14   C18   1.414056 A    
O4    Zn1   1.967526 S    
C6    C12   1.383922 A    
Zn2   N1    2.023107 S    
O3    C1    1.292661 A    
O8    Zn1   1.913873 S    
C22   H2    1.084670 S    
