data_str_m4_o12_o15_f0_acs.sym.63
_audit_creation_date              2012-12-11T14:13:27-0500
_audit_creation_method            fapswitch 2.2
_symmetry_space_group_name_H-M    P1
_symmetry_Int_Tables_number       1
_space_group_crystal_system       triclinic
_cell_length_a                    11.5864
_cell_length_b                    18.616085
_cell_length_c                    10.033144
_cell_angle_alpha                 89.999449
_cell_angle_beta                  109.644244
_cell_angle_gamma                 89.999483
_cell_volume                      2038.12934715

loop_
_atom_site_label
_atom_site_type_symbol
_atom_type_description
_atom_site_fract_x
_atom_site_fract_y
_atom_site_fract_z
_atom_type_partial_charge
C1    C     C_R   0.129145 0.638032 0.157103 0.548888
C2    C     C_2   0.604516 0.072334 0.074526 -0.102768
C3    C     C_2   0.604522 0.427671 0.074507 -0.102762
C4    C     C_2   0.394915 0.571464 0.929120 -0.103661
C5    C     C_2   0.498948 0.961654 0.996244 -0.169325
C6    C     C_2   0.499267 0.039333 0.013297 -0.176688
C7    C     C_2   0.499279 0.460674 0.013259 -0.176683
C8    C     C_2   0.498964 0.538354 0.996198 -0.169330
C9    C     C_2   0.098994 0.938763 0.143905 -0.107856
C10   C     C_2   0.003016 0.081058 0.886133 -0.110973
C11   C     C_2   0.002987 0.418952 0.886118 -0.110966
C12   C     C_R   0.929553 0.352810 0.859950 0.549963
C13   C     C_2   0.098994 0.561237 0.143912 -0.107836
C14   C     C_2   0.089059 0.975936 0.027002 -0.162752
C15   C     C_2   0.043225 0.050044 0.013237 -0.152875
C16   C     C_2   0.043203 0.449960 0.013231 -0.152856
C17   C     C_2   0.089052 0.524065 0.027007 -0.162745
C18   C     C_R   0.439367 0.636956 0.382405 0.521713
C19   C     C_R   0.565325 0.361451 0.631386 0.547215
C20   C     C_R   0.565329 0.138549 0.631394 0.547228
C21   C     C_R   0.439379 0.863045 0.382426 0.521712
C22   C     C_R   0.375678 0.645012 0.963719 0.545923
C23   C     C_R   0.929574 0.147199 0.859959 0.549975
C24   C     C_R   0.624019 0.354652 0.037067 0.552481
C25   C     C_R   0.624019 0.145349 0.037069 0.552478
C26   C     C_R   0.375676 0.854990 0.963721 0.545933
C27   C     C_R   0.546567 0.439549 0.603490 -0.035474
C28   C     C_R   0.462342 0.563067 0.439058 -0.026358
C29   C     C_R   0.462372 0.936930 0.439096 -0.026346
C30   C     C_R   0.546587 0.060448 0.603526 -0.035485
C31   C     C_R   0.361258 0.442445 0.675305 -0.078611
C32   C     C_R   0.640193 0.548695 0.354412 -0.080904
C33   C     C_R   0.640254 0.951290 0.354506 -0.080898
C34   C     C_R   0.129138 0.861967 0.157099 0.548902
C35   C     C_R   0.361272 0.057555 0.675318 -0.078621
C36   C     C_R   0.236521 0.454483 0.630575 -0.024029
C37   C     C_R   0.763501 0.531161 0.389769 -0.009881
C38   C     C_R   0.763563 0.968820 0.389889 -0.009865
C39   C     C_R   0.236529 0.045543 0.630537 -0.024001
C40   C     C_R   0.189452 0.512178 0.543315 -0.141649
C41   C     C_R   0.819049 0.489535 0.509158 -0.104471
C42   C     C_R   0.819102 0.010434 0.509294 -0.104456
C43   C     C_R   0.189446 0.987866 0.543229 -0.141628
C44   C     C_R   0.267297 0.552520 0.493575 -0.119988
C45   C     C_R   0.434727 0.471975 0.601138 0.023350
C46   C     C_R   0.747179 0.462186 0.584129 -0.079194
C47   C     C_R   0.747211 0.037797 0.584229 -0.079213
C48   C     C_R   0.267299 0.947509 0.493520 -0.119977
C49   C     C_R   0.388963 0.531176 0.512592 0.007513
C50   C     C_R   0.621832 0.475787 0.542662 0.000408
C51   C     C_R   0.621865 0.024202 0.542732 0.000395
C52   C     C_R   0.388982 0.968829 0.512603 0.007505
C53   C     C_1   0.158429 0.398858 0.651015 0.161761
C54   C     C_1   0.832772 0.562727 0.310315 0.159485
C55   C     C_1   0.832849 0.937259 0.310451 0.159499
C56   C     C_R   0.572468 0.528702 0.442098 0.013716
C57   C     C_1   0.158464 0.101174 0.651033 0.161768
C58   C     C_R   0.572513 0.971284 0.442171 0.013733
C59   C     C_R   0.434748 0.028023 0.601164 0.023344
C60   C     C_2   0.394911 0.928542 0.929133 -0.103670
Cr1   Cr    Cr6+3 0.187610 0.750000 0.979860 1.037009
Cr2   Cr    Cr6+3 0.812390 0.250000 0.020140 1.033644
Cr3   Cr    Cr6+3 0.245810 0.750000 0.341640 1.030277
Cr4   Cr    Cr6+3 0.754190 0.250000 0.658360 1.069698
Cr5   Cr    Cr6+3 0.485760 0.750000 0.219910 1.025254
Cr6   Cr    Cr6+3 0.514240 0.250000 0.780090 1.016019
H1    H     H_    0.092747 0.524785 0.509440 0.121580
H2    H     H_    0.788188 0.436762 0.682750 0.130939
H3    H     H_    0.788197 0.063234 0.682834 0.130944
H4    H     H_    0.225450 0.904566 0.429545 0.178515
H5    H     H_    0.415375 0.069974 0.969323 0.140299
H6    H     H_    0.582278 0.930861 0.043749 0.152857
H7    H     H_    0.582300 0.569145 0.043682 0.152867
H8    H     H_    0.415383 0.430035 0.969290 0.140289
H9    H     H_    0.686006 0.041008 0.128037 0.125237
H10   H     H_    0.313883 0.959711 0.872699 0.113342
H11   H     H_    0.313882 0.540294 0.872711 0.113346
H12   H     H_    0.916321 0.478811 0.544701 0.112921
H13   H     H_    0.686017 0.458996 0.128014 0.125247
H14   H     H_    0.030871 0.076354 0.104297 0.165398
H15   H     H_    0.105289 0.950080 0.937706 0.154848
H16   H     H_    0.105292 0.549920 0.937717 0.154843
H17   H     H_    0.030849 0.423648 0.104294 0.165398
H18   H     H_    0.012276 0.052457 0.796161 0.108490
H19   H     H_    0.083729 0.966061 0.232051 0.126832
H20   H     H_    0.083722 0.533942 0.232061 0.126849
H21   H     H_    0.012233 0.447559 0.796136 0.108487
H22   H     H_    0.916380 0.021145 0.544870 0.112874
H23   H     H_    0.092731 0.975288 0.509290 0.121595
H24   H     H_    0.395604 0.402659 0.755837 0.159676
H25   H     H_    0.599734 0.581205 0.262405 0.146897
H26   H     H_    0.599807 0.918789 0.262490 0.146885
H27   H     H_    0.395628 0.097332 0.755863 0.159667
H28   H     H_    0.225443 0.595479 0.429648 0.178572
N1    N     N_1   0.097785 0.351992 0.664257 -0.261048
N2    N     N_1   0.885843 0.589547 0.244722 -0.282760
N3    N     N_1   0.885934 0.910444 0.244872 -0.282767
N4    N     N_1   0.097855 0.148047 0.664340 -0.261049
O1    O     O_R   0.267710 0.668200 0.902110 -0.520147
O2    O     O_R   0.883280 0.330790 0.732340 -0.500687
O3    O     O_R   0.883280 0.169210 0.732340 -0.500689
O4    O     O_R   0.116720 0.830790 0.267660 -0.501351
O5    O     O_R   0.366710 0.675440 0.427590 -0.505626
O6    O     O_R   0.633290 0.324560 0.572410 -0.473379
O7    O     O_R   0.633290 0.175440 0.572410 -0.473372
O8    O     O_R   0.366710 0.824560 0.427590 -0.505604
O9    O     O_R   0.534870 0.669390 0.371760 -0.491623
O10   O     O_R   0.465130 0.330610 0.628240 -0.506776
O11   O     O_R   0.465130 0.169390 0.628240 -0.506767
O12   O     O_R   0.732290 0.331800 0.097890 -0.502222
O13   O     O_R   0.534870 0.830610 0.371760 -0.491645
O14   O     O_R   0.453080 0.674480 0.075160 -0.518091
O15   O     O_R   0.546920 0.325520 0.924840 -0.533080
O16   O     O_R   0.546920 0.174480 0.924840 -0.533082
O17   O     O_R   0.453080 0.825520 0.075160 -0.518076
O18   O     O_3   0.306390 0.750000 0.180470 -0.335296
O19   O     O_3   0.693610 0.250000 0.819530 -0.313208
O20   O     O_R   0.732290 0.168200 0.097890 -0.502220
O21   O     O_R   0.267710 0.831800 0.902110 -0.520139
O22   O     O_R   0.099480 0.674460 0.038850 -0.467072
O23   O     O_R   0.900520 0.325540 0.961150 -0.500722
O24   O     O_R   0.900520 0.174460 0.961150 -0.500723
O25   O     O_R   0.099480 0.825540 0.038850 -0.467081
O26   O     O_R   0.116720 0.669210 0.267660 -0.501390

loop_
_geom_bond_atom_site_label_1
_geom_bond_atom_site_label_2
_ccdc_geom_bond_type
C44   C49   A    
C30   C51   A    
C33   C58   A    
Cr6   O15   S    
Cr1   O21   S    
C4    C8    D    
C3    H13   S    
C25   O20   A    
Cr3   O26   S    
C28   C56   A    
C7    C8    S    
C20   C30   S    
C34   O4    A    
C38   C42   A    
C5    H6    S    
C3    C7    D    
C10   C15   D    
C5    C6    S    
C32   H25   S    
C53   N1    T    
C39   C57   S    
C35   C59   A    
C17   H16   S    
C19   O6    A    
C26   O17   A    
Cr5   O13   S    
Cr2   O19   S    
C36   C53   S    
C9    H19   S    
C18   O9    A    
C47   H3    S    
C38   C55   S    
C11   H21   S    
C16   C17   S    
C40   H1    S    
C13   H20   S    
C41   C46   A    
C7    H8    S    
C19   C27   S    
C43   C48   A    
C28   C49   A    
C54   N2    T    
C21   O8    A    
C27   C50   A    
C18   O5    A    
C19   O10   A    
C27   C45   A    
C24   O15   A    
Cr1   O22   S    
C32   C56   A    
Cr5   O17   S    
C3    C24   S    
Cr1   O1    S    
Cr3   O4    S    
C21   O13   A    
C23   O24   A    
C35   H27   S    
Cr4   O3    S    
Cr2   O20   S    
C12   O23   A    
Cr4   O7    S    
C24   O12   A    
C26   O21   A    
Cr3   O5    S    
C33   H26   S    
C48   H4    S    
C41   H12   S    
C39   C43   A    
C21   C29   S    
Cr6   O19   S    
C16   H17   S    
C50   C56   A    
Cr4   O19   S    
C2    C6    D    
C1    O22   A    
C35   C39   A    
C9    C14   D    
Cr5   O14   S    
C46   H2    S    
C52   C59   A    
C4    C22   S    
C11   C16   D    
C15   H14   S    
Cr2   O12   S    
C45   C49   A    
C31   H24   S    
C30   C59   A    
C55   N3    T    
Cr1   O18   S    
C18   C28   S    
C51   C58   A    
C43   H23   S    
C32   C37   A    
Cr3   O8    S    
C37   C54   S    
C22   O14   A    
C9    C34   S    
Cr5   O18   S    
C42   H22   S    
Cr3   O18   S    
Cr2   O24   S    
C36   C40   A    
C20   O7    A    
Cr4   O6    S    
C22   O1    A    
Cr6   O16   S    
C5    C60   D    
C14   C15   S    
Cr6   O10   S    
C6    H5    S    
C47   C51   A    
C11   C12   S    
C10   C23   S    
C46   C50   A    
C33   C38   A    
C13   C17   D    
Cr1   O25   S    
C1    O26   A    
Cr4   O2    S    
C4    H11   S    
C25   O16   A    
C23   O3    A    
C57   N4    T    
C10   H18   S    
C8    H7    S    
C60   H10   S    
C2    C25   S    
C42   C47   A    
Cr6   O11   S    
C37   C41   A    
C12   O2    A    
C44   H28   S    
C20   O11   A    
C40   C44   A    
C1    C13   S    
C29   C58   A    
C31   C45   A    
C34   O25   A    
C31   C36   A    
C14   H15   S    
C48   C52   A    
C26   C60   S    
Cr5   O9    S    
Cr2   O23   S    
C2    H9    S    
C29   C52   A    
