data_str_m2_o10_o18_f0_pcu.sym.53
_audit_creation_date              2012-10-26T19:59:13-0400
_audit_creation_method            fapswitch 2.2
_symmetry_space_group_name_H-M    P1
_symmetry_Int_Tables_number       1
_space_group_crystal_system       triclinic
_cell_length_a                    7.432805
_cell_length_b                    8.774582
_cell_length_c                    15.761949
_cell_angle_alpha                 94.167266
_cell_angle_beta                  74.813892
_cell_angle_gamma                 102.754675
_cell_volume                      967.492331202

loop_
_atom_site_label
_atom_site_type_symbol
_atom_type_description
_atom_site_fract_x
_atom_site_fract_y
_atom_site_fract_z
_atom_type_partial_charge
C1    C     C_R   0.544470 0.799105 0.501404 0.594780
C2    C     C_R   0.616623 0.513711 0.333769 0.536996
C3    C     C_R   0.312229 0.467915 0.761476 -0.020256
C4    C     C_R   0.689173 0.543165 0.239431 -0.017940
C5    C     C_R   0.086853 0.338714 0.887697 -0.133787
C6    C     C_R   0.913084 0.689629 0.118283 -0.130406
C7    C     C_R   0.140034 0.366518 0.797863 -0.146392
C8    C     C_R   0.860062 0.649107 0.206526 -0.142124
C9    C     C_R   0.430448 0.539258 0.815153 -0.101324
C10   C     C_R   0.571357 0.481239 0.184009 -0.116497
C11   C     C_R   0.394958 0.494754 0.903098 0.035288
C12   C     C_R   0.455528 0.200893 0.498596 0.596107
C13   C     C_R   0.606180 0.540143 0.099181 0.028432
C14   C     C_R   0.212803 0.401390 0.940249 0.013049
C15   C     C_R   0.787344 0.635681 0.064575 0.019527
C16   C     C_R   0.530695 0.540529 0.955476 0.038858
C17   C     C_R   0.469704 0.503629 0.047353 0.021800
C18   C     C_R   0.273066 0.436514 0.084697 0.085946
C19   C     C_R   0.725763 0.617178 0.920441 0.085880
C20   C     C_R   0.153055 0.377018 0.030041 -0.107074
C21   C     C_R   0.844772 0.671822 0.976219 -0.121524
C22   C     C_2   0.575036 0.963836 0.491199 0.065112
C23   C     C_2   0.424956 0.036154 0.508798 0.065339
C24   C     C_R   0.383589 0.487787 0.666283 0.536639
Cu1   Cu    Cu3+1 0.322120 0.483240 0.490330 0.957519
Cu2   Cu    Cu3+1 0.677880 0.516760 0.509670 0.957814
H1    H     H_    0.007450 0.317351 0.058631 0.113208
H2    H     H_    0.203000 0.555066 0.198880 0.239284
H3    H     H_    0.927112 0.579888 0.811062 0.244931
H4    H     H_    0.863498 0.753919 0.815403 0.221572
H5    H     H_    0.820706 0.113545 0.504369 0.267996
H6    H     H_    0.781675 0.105750 0.400542 0.225452
H7    H     H_    0.179290 0.886441 0.495621 0.267683
H8    H     H_    0.218297 0.894230 0.599454 0.223281
H9    H     H_    0.002357 0.612192 0.569938 0.241253
H10   H     H_    0.997658 0.387839 0.430047 0.241731
H11   H     H_    0.988737 0.736072 0.948564 0.113157
H12   H     H_    0.454405 0.385573 0.208818 0.172127
H13   H     H_    0.545047 0.632586 0.786010 0.167162
H14   H     H_    0.951606 0.700604 0.248938 0.134105
H15   H     H_    0.046570 0.310264 0.757182 0.141444
H16   H     H_    0.948763 0.265484 0.915879 0.117199
H17   H     H_    0.050288 0.766014 0.092515 0.114848
H18   H     H_    0.044874 0.386809 0.193879 0.232439
N1    N     N_2   0.945180 0.542040 0.524240 -0.258105
N2    N     N_2   0.054820 0.457960 0.475760 -0.258348
N3    N     N_3   0.190253 0.438292 0.178028 -0.652079
N4    N     N_3   0.811342 0.634771 0.828153 -0.657556
N5    N     N_3   0.770265 0.042086 0.455976 -0.623116
N6    N     N_3   0.229725 0.957897 0.544017 -0.624148
O1    O     O_R   0.384450 0.714270 0.493720 -0.532986
O2    O     O_R   0.615550 0.285730 0.506280 -0.531953
O3    O     O_R   0.684880 0.742590 0.510050 -0.469846
O4    O     O_R   0.315120 0.257410 0.489950 -0.468095
O5    O     O_R   0.265540 0.477900 0.617090 -0.509229
O6    O     O_R   0.734460 0.522100 0.382910 -0.510343
O7    O     O_R   0.565970 0.506210 0.633420 -0.491272
O8    O     O_R   0.434030 0.493790 0.366580 -0.493559

loop_
_geom_bond_atom_site_label_1
_geom_bond_atom_site_label_2
_ccdc_geom_bond_type
C10   H12   S    
C2    C4    S    
C5    H16   S    
Cu1   O1    S    
H2    N3    S    
H10   N2    S    
C3    C9    A    
C20   H1    S    
Cu2   O2    S    
C9    C11   A    
C11   C16   A    
C3    C7    A    
H18   N3    S    
C13   C17   A    
C4    C8    A    
C18   N3    S    
C13   C15   A    
C17   C18   A    
C6    C15   A    
C1    C22   S    
C2    O6    A    
N1    N2    D    
C24   O5    A    
C1    O1    A    
C12   C23   S    
C5    C14   A    
H5    N5    S    
C22   N5    S    
H4    N4    S    
C12   O2    A    
C18   C20   A    
C6    H17   S    
C7    H15   S    
C16   C19   A    
C2    O8    A    
Cu2   O7    S    
H6    N5    S    
H8    N6    S    
Cu1   O8    S    
H3    N4    S    
C4    C10   A    
H7    N6    S    
H9    N1    S    
Cu2   O3    S    
C14   C20   A    
C15   C21   A    
C21   H11   S    
Cu1   O4    S    
C11   C14   A    
C5    C7    A    
C1    O3    A    
C22   C23   D    
C16   C17   A    
C23   N6    S    
C6    C8    A    
C8    H14   S    
Cu2   N1    S    
C19   C21   A    
Cu1   Cu2   S    
C19   N4    S    
Cu1   N2    S    
C9    H13   S    
C12   O4    A    
Cu1   O5    S    
C3    C24   S    
C24   O7    A    
C10   C13   A    
Cu2   O6    S    
