data_str_m9_o2_o2_f0_sra.sym.71
_audit_creation_date              2012-12-11T16:35:22-0500
_audit_creation_method            fapswitch 2.2
_symmetry_space_group_name_H-M    P1
_symmetry_Int_Tables_number       1
_space_group_crystal_system       triclinic
_cell_length_a                    6.926676
_cell_length_b                    17.696357
_cell_length_c                    19.4719
_cell_angle_alpha                 109.16867
_cell_angle_beta                  90.448922
_cell_angle_gamma                 90.500656
_cell_volume                      2254.24098193

loop_
_atom_site_label
_atom_site_type_symbol
_atom_type_description
_atom_site_fract_x
_atom_site_fract_y
_atom_site_fract_z
_atom_type_partial_charge
O1    O     O_R   0.505700 0.440210 0.561730 -0.504592
O2    O     O_R   0.169350 0.406300 0.412660 -0.542196
O3    O     O_R   0.005650 0.559790 0.438270 -0.545390
C1    C     C_R   0.337896 0.383100 0.384950 0.686939
O4    O     O_R   0.175560 0.430650 0.559600 -0.549001
O5    O     O_R   0.011900 0.584320 0.586250 -0.534265
C2    C     C_R   0.345195 0.413841 0.579650 0.727481
O6    O     O_R   0.499450 0.415680 0.413750 -0.535868
O7    O     O_3   0.341370 0.550390 0.508570 -0.373744
V1    V     V_3+5 0.063940 0.490650 0.498410 1.435154
O8    O     O_R   0.682570 0.593700 0.587340 -0.538827
C3    C     C_R   0.852624 0.616539 0.615024 0.702313
O9    O     O_R   0.676370 0.569350 0.440400 -0.545976
C4    C     C_R   0.845155 0.584344 0.418759 0.676147
V2    V     V_3+5 0.564750 0.509350 0.501590 1.459605
O10   O     O_3   0.837190 0.449610 0.491430 -0.353438
C5    C     C_R   0.038482 0.680384 0.284445 -0.141396
H1    H     H_    0.171160 0.678840 0.255050 0.098723
C6    C     C_R   0.027333 0.635590 0.331670 -0.153899
H2    H     H_    0.152422 0.601933 0.337736 0.114484
C7    C     C_R   0.856430 0.633093 0.369472 -0.051409
C8    C     C_R   0.697145 0.677013 0.359097 -0.167773
H3    H     H_    0.563532 0.676777 0.387558 0.125008
C9    C     C_R   0.709126 0.722812 0.312609 -0.122477
H4    H     H_    0.584798 0.757322 0.307579 0.129089
C10   C     C_R   0.879882 0.725029 0.274314 0.093292
C11   C     C_R   0.729428 0.783912 0.184737 -0.105066
H5    H     H_    0.592410 0.755966 0.188912 0.102224
C12   C     C_R   0.740902 0.829892 0.138492 -0.139968
H6    H     H_    0.611982 0.836749 0.109351 0.122169
C13   C     C_R   0.916579 0.865713 0.129326 -0.060138
C14   C     C_R   0.080433 0.854580 0.167786 -0.135226
H7    H     H_    0.217661 0.881879 0.162511 0.135451
C15   C     C_R   0.068377 0.809525 0.214862 -0.110465
H8    H     H_    0.196727 0.804216 0.244897 0.128171
C16   C     C_R   0.892669 0.773396 0.224096 0.090414
H9    H     H_    0.678191 0.646051 0.934465 0.141452
C17   C     C_R   0.031949 0.899260 0.747379 -0.144406
C18   C     C_R   0.083863 0.909093 0.681822 -0.120074
C19   C     C_R   0.064394 0.845667 0.617105 -0.110656
C20   C     C_R   0.993092 0.771915 0.617473 -0.134084
C21   C     C_R   0.940544 0.759931 0.683289 0.068570
C22   C     C_R   0.960156 0.824932 0.749548 0.066368
C23   C     C_R   0.867018 0.685053 0.683746 -0.171139
C24   C     C_R   0.814159 0.674986 0.750461 0.032656
C25   C     C_R   0.832971 0.740127 0.816648 0.073721
C26   C     C_R   0.905456 0.815072 0.816121 -0.170746
C27   C     C_R   0.746330 0.600217 0.752928 -0.170241
C28   C     C_R   0.697849 0.590128 0.818795 0.214607
C29   C     C_R   0.715191 0.653977 0.883327 -0.131849
C30   C     C_R   0.782124 0.728124 0.882590 -0.174148
H10   H     H_    0.048168 0.950634 0.796120 0.100245
H11   H     H_    0.138652 0.966373 0.681246 0.121022
H12   H     H_    0.103966 0.853716 0.566256 0.126728
H13   H     H_    0.978661 0.724755 0.565587 0.100109
H14   H     H_    0.731969 0.548706 0.704186 0.134582
H15   H     H_    0.795601 0.775473 0.934396 0.109339
H16   H     H_    0.322177 0.480165 0.176397 0.117892
C31   C     C_R   0.367380 0.219414 0.383953 -0.194058
C32   C     C_R   0.394234 0.142258 0.386017 -0.139538
C33   C     C_R   0.432350 0.079739 0.322492 0.221631
C34   C     C_R   0.441033 0.093774 0.256151 -0.168046
C35   C     C_R   0.413331 0.171359 0.252229 0.034267
C36   C     C_R   0.376964 0.235645 0.317632 0.073236
C37   C     C_R   0.421687 0.185376 0.184596 -0.169680
C38   C     C_R   0.394664 0.264060 0.182775 0.068446
C39   C     C_R   0.359957 0.328446 0.248274 0.065843
C40   C     C_R   0.351045 0.314371 0.315833 -0.169210
C41   C     C_R   0.401631 0.280192 0.116339 -0.134442
C42   C     C_R   0.375691 0.357491 0.114405 -0.108034
C43   C     C_R   0.342331 0.420249 0.178228 -0.114502
C44   C     C_R   0.334502 0.406230 0.244523 -0.142025
H17   H     H_    0.338776 0.266065 0.434838 0.102682
H18   H     H_    0.385843 0.131124 0.437343 0.133724
H19   H     H_    0.471104 0.043462 0.208074 0.119198
H20   H     H_    0.428151 0.233412 0.065319 0.094165
H21   H     H_    0.381711 0.368747 0.063066 0.129920
H22   H     H_    0.307261 0.456886 0.292643 0.092694
C45   C     C_R   0.533570 0.272443 0.676343 -0.215853
H23   H     H_    0.664007 0.240623 0.679575 0.097410
C46   C     C_R   0.524761 0.317068 0.628002 0.437815
C47   C     C_R   0.356737 0.361522 0.625961 -0.134399
C48   C     C_R   0.198123 0.355866 0.668719 -0.199018
H24   H     H_    0.067197 0.388518 0.667615 0.177469
C49   C     C_R   0.207742 0.310285 0.715255 -0.118813
H25   H     H_    0.084300 0.309673 0.748831 0.131621
C50   C     C_R   0.376379 0.268730 0.720447 0.053428
C51   C     C_R   0.227378 0.180939 0.785586 -0.153013
H26   H     H_    0.091084 0.181272 0.758100 0.098351
C52   C     C_R   0.239655 0.137125 0.833604 -0.160776
H27   H     H_    0.111711 0.105879 0.842127 0.117139
C53   C     C_R   0.414925 0.132544 0.869068 -0.052772
C54   C     C_R   0.577269 0.173650 0.855693 -0.174261
H28   H     H_    0.714220 0.171869 0.882306 0.125500
C55   C     C_R   0.564440 0.218297 0.808252 -0.116612
H29   H     H_    0.691608 0.250509 0.800622 0.121259
C56   C     C_R   0.389510 0.222213 0.772105 0.121196
O11   O     O_R   0.273230 0.084330 0.086440 -0.532825
O12   O     O_R   0.596660 0.069390 0.940470 -0.544150
O13   O     O_R   0.760270 0.915710 0.913690 -0.535800
C57   C     C_R   0.427224 0.084290 0.918803 0.682721
O14   O     O_R   0.603330 0.093680 0.087390 -0.535703
O15   O     O_R   0.766990 0.940160 0.061660 -0.541623
C58   C     C_R   0.434877 0.116635 0.115411 0.701367
O16   O     O_R   0.266510 0.059870 0.938470 -0.542865
O17   O     O_3   0.431050 0.949630 0.991510 -0.368193
V3    V     V_3+5 0.708490 0.009340 0.001580 1.423311
O18   O     O_R   0.096270 0.930570 0.059390 -0.543281
C59   C     C_R   0.927508 0.915302 0.080824 0.690333
O19   O     O_R   0.089600 0.906290 0.912460 -0.538401
C60   C     C_R   0.919561 0.883581 0.884801 0.696325
V4    V     V_3+5 0.207670 0.990600 0.998190 1.425601
O20   O     O_3   0.935250 0.050360 0.008480 -0.367038
I1    I     I_    0.601750 0.477645 0.821167 -0.453667
I2    I     I_    0.479164 0.963755 0.326846 -0.498202
O21   O     O_3   0.682401 0.322357 0.585877 -0.547974
C61   C     C_3   0.755438 0.245885 0.547314 0.053500
H30   H     H_    0.638639 0.199732 0.528456 0.111733
H31   H     H_    0.860047 0.227234 0.582098 0.127791
C62   C     C_3   0.861866 0.250011 0.480548 -0.628650
H32   H     H_    0.916291 0.189879 0.448982 0.178049
H33   H     H_    0.763077 0.270664 0.445343 0.223694
H34   H     H_    0.986350 0.292142 0.497276 0.216508

loop_
_geom_bond_atom_site_label_1
_geom_bond_atom_site_label_2
_ccdc_geom_bond_type
C35   C37   A    
C54   H28   S    
C11   C12   A    
C20   C21   A    
C55   H29   S    
C1    O6    A    
C45   C50   A    
C46   C47   A    
O17   V4    S    
C49   H25   S    
O21   C61   S    
C31   C36   A    
C34   C35   A    
C5    C10   A    
C36   C40   A    
C4    C7    S    
C6    C7    A    
C9    C10   A    
C39   C44   A    
C61   H31   S    
O5    C3    A    
C17   C18   A    
C26   C60   S    
H16   C43   S    
C38   C41   A    
C17   H10   S    
O17   V3    S    
V2    O10   S    
O18   C59   A    
C41   H20   S    
C15   H8    S    
C28   C29   A    
O19   C60   A    
C20   H13   S    
C44   H22   S    
O8    V2    S    
V3    O20   S    
C13   C14   A    
C33   I2    S    
C42   C43   A    
C30   H15   S    
O7    V1    S    
C31   H17   S    
C51   C56   A    
C62   H34   S    
C38   C39   A    
C31   C32   A    
C54   C55   A    
O9    C4    A    
C42   H21   S    
C41   C42   A    
C21   C23   A    
V4    O20   S    
C62   H33   S    
C29   C30   A    
C49   C50   A    
C57   O16   A    
O11   V4    S    
C39   C40   A    
C9    H4    S    
C61   C62   S    
C18   C19   A    
C1    C40   S    
C24   C25   A    
C25   C30   A    
O18   V4    S    
C32   C33   A    
C14   C15   A    
O2    C1    A    
C12   H6    S    
C52   C53   A    
C48   H24   S    
C5    H1    S    
C13   C59   S    
O14   V3    S    
O14   C58   A    
O3    C4    A    
C53   C57   S    
O1    V2    S    
C10   C16   S    
C19   C20   A    
C48   C49   A    
O16   V4    S    
C51   C52   A    
C37   C38   A    
O6    V2    S    
C19   H12   S    
O9    V2    S    
C8    C9    A    
C34   H19   S    
C21   C22   A    
O2    V1    S    
C23   C24   A    
O4    C2    A    
C24   C27   A    
C27   H14   S    
C25   C26   A    
C27   C28   A    
O13   V3    S    
O12   C57   A    
O1    C2    A    
C8    H3    S    
C35   C36   A    
O5    V1    S    
O8    C3    A    
C55   C56   A    
C11   C16   A    
O12   V3    S    
C45   C46   A    
O15   C59   A    
C14   H7    S    
C6    H2    S    
O7    V2    S    
C17   C22   A    
C12   C13   A    
O3    V1    S    
V1    O10   S    
C61   H30   S    
H9    C29   S    
C52   H27   S    
C18   H11   S    
O11   C58   A    
C46   O21   S    
C32   H18   S    
C53   C54   A    
C5    C6    A    
C28   I1    S    
C15   C16   A    
C33   C34   A    
O19   V4    S    
C45   H23   S    
O4    V1    S    
C2    C47   S    
C43   C44   A    
C51   H26   S    
O13   C60   A    
C3    C23   S    
C47   C48   A    
C11   H5    S    
C62   H32   S    
O15   V3    S    
C37   C58   S    
C7    C8    A    
C22   C26   A    
C50   C56   S    
