data_str_m2_o14_o16_f0_pcu.sym.138
_audit_creation_date              2012-12-10T17:18:53-0500
_audit_creation_method            fapswitch 2.2
_symmetry_space_group_name_H-M    P1
_symmetry_Int_Tables_number       1
_space_group_crystal_system       triclinic
_cell_length_a                    9.575488
_cell_length_b                    10.830503
_cell_length_c                    13.401624
_cell_angle_alpha                 91.77564
_cell_angle_beta                  72.758764
_cell_angle_gamma                 90.005533
_cell_volume                      1326.69706484

loop_
_atom_site_label
_atom_site_type_symbol
_atom_type_description
_atom_site_fract_x
_atom_site_fract_y
_atom_site_fract_z
_atom_type_partial_charge
C1    C     C_R   0.503112 0.737128 0.490659 0.836375
C2    C     C_R   0.429228 0.465937 0.979903 0.075987
C3    C     C_R   0.467291 0.442132 0.870665 0.026132
C4    C     C_R   0.536918 0.447458 0.031717 -0.000959
C5    C     C_R   0.672111 0.388913 0.977822 0.077843
C6    C     C_R   0.695414 0.342715 0.875223 0.401729
C7    C     C_R   0.595564 0.373110 0.821476 -0.316601
C8    C     C_R   0.515116 0.488845 0.135225 -0.201795
C9    C     C_R   0.754845 0.416272 0.132182 -0.240627
C10   C     C_R   0.373360 0.485203 0.814484 -0.079967
C11   C     C_R   0.266278 0.888725 0.436873 0.177915
C12   C     C_R   0.421722 0.493385 0.699826 0.782661
C13   C     C_R   0.129182 0.946561 0.463136 -0.168257
C14   C     C_R   0.104273 0.055829 0.522789 -0.180907
C15   C     C_R   0.220088 0.114106 0.547129 -0.168455
C16   C     C_R   0.362450 0.061529 0.513744 0.069929
C17   C     C_R   0.378244 0.938037 0.475955 0.052921
C18   C     C_R   0.504611 0.871494 0.479865 -0.103336
C19   C     C_R   0.625732 0.936027 0.492011 -0.204660
C20   C     C_R   0.621041 0.063327 0.503483 -0.224196
C21   C     C_R   0.490531 0.127755 0.513696 -0.099075
C22   C     C_R   0.912442 0.336214 0.362362 -0.170082
C23   C     C_R   0.496177 0.262542 0.507556 0.767107
C24   C     C_R   0.011993 0.255236 0.295626 -0.227879
C25   C     C_R   0.155689 0.254541 0.295773 -0.187902
C26   C     C_R   0.200622 0.334848 0.362616 -0.134960
C27   C     C_R   0.102679 0.418863 0.432573 0.211045
C28   C     C_R   0.953010 0.419199 0.432496 0.208797
C29   C     C_R   0.899514 0.577138 0.564023 -0.051152
C30   C     C_R   0.047576 0.577148 0.563960 -0.034949
C31   C     C_R   0.578145 0.495031 0.299901 0.803233
C32   C     C_R   0.780277 0.374793 0.028703 -0.155552
C33   C     C_R   0.620524 0.471176 0.186474 -0.038752
C34   C     C_R   0.232808 0.529253 0.869391 -0.180519
C35   C     C_R   0.187928 0.536671 0.977725 -0.150100
C36   C     C_R   0.285189 0.507903 0.032786 -0.148743
Cu1   Cu    Cu3+1 0.359340 0.500010 0.500010 0.945830
Cu2   Cu    Cu3+1 0.640660 0.499990 0.499990 0.933860
H1    H     H_    0.837874 0.401199 0.170547 0.154869
H2    H     H_    0.043121 0.909049 0.434310 0.154577
H3    H     H_    0.997173 0.099237 0.545054 0.148013
H4    H     H_    0.195689 0.198973 0.593695 0.172627
H5    H     H_    0.719592 0.111039 0.505734 0.160254
H6    H     H_    0.822468 0.640410 0.616439 0.141978
H7    H     H_    0.805618 0.329779 0.354869 0.202301
H8    H     H_    0.977155 0.192855 0.243096 0.158255
H9    H     H_    0.233384 0.191383 0.243534 0.164059
H10   H     H_    0.313389 0.326154 0.355479 0.201076
H11   H     H_    0.081356 0.640451 0.616257 0.133889
H12   H     H_    0.884291 0.330624 0.989094 0.179456
H13   H     H_    0.415862 0.535716 0.178204 0.178886
H14   H     H_    0.157623 0.559795 0.828472 0.157133
H15   H     H_    0.242830 0.516243 0.116745 0.145948
H16   H     H_    0.078340 0.568624 0.019300 0.153204
H17   H     H_    0.617808 0.338147 0.741952 0.174782
H18   H     H_    0.724879 0.888247 0.492609 0.160730
N1    N     N_R   0.852480 0.498790 0.499000 -0.200050
N2    N     N_R   0.148360 0.498710 0.498970 -0.192178
O1    O     O_R   0.381190 0.680360 0.500010 -0.559786
O2    O     O_R   0.618760 0.680340 0.500000 -0.581335
O3    O     O_R   0.323240 0.499990 0.650990 -0.582328
O4    O     O_R   0.560820 0.499960 0.650980 -0.577389
O5    O     O_R   0.381240 0.319660 0.500000 -0.609759
O6    O     O_R   0.618810 0.319640 0.499990 -0.609037
O7    O     O_R   0.439180 0.500040 0.349020 -0.583507
O8    O     O_R   0.676760 0.500010 0.349010 -0.595735
I1    I     I_    0.309037 0.764855 0.305736 -0.430978
O9    O     O_3   0.820205 0.273099 0.826750 -0.619931
C37   C     C_3   0.782091 0.156604 0.791907 0.039104
H19   H     H_    0.779778 0.162871 0.709722 0.145528
H20   H     H_    0.673479 0.123714 0.840976 0.139641
C38   C     C_3   0.897068 0.060838 0.796415 -0.313694
H21   H     H_    0.006633 0.090906 0.748652 0.226661
H22   H     H_    0.899226 0.053960 0.878537 0.218983
C39   C     C_3   0.864297 0.933755 0.756392 -0.923206
H23   H     H_    0.759186 0.898841 0.807622 0.259544
H24   H     H_    0.952950 0.867747 0.756583 0.254755
H25   H     H_    0.857364 0.938470 0.675334 0.250718

loop_
_geom_bond_atom_site_label_1
_geom_bond_atom_site_label_2
_ccdc_geom_bond_type
C19   H18   S    
C31   O8    A    
C16   C21   A    
C35   C36   A    
C7    H17   S    
C4    C8    A    
C28   N1    A    
C1    C18   S    
Cu1   Cu2   S    
C34   C35   A    
C3    C7    A    
C1    O1    A    
C5    C6    A    
C15   C16   A    
C9    H1    S    
C18   C19   A    
C37   H20   S    
C13   H2    S    
C36   H15   S    
C9    C32   A    
O9    C37   S    
Cu2   O8    S    
C16   C17   A    
Cu1   O7    S    
C31   C33   S    
C25   H9    S    
Cu1   N2    S    
C26   H10   S    
C5    C32   A    
C23   O5    A    
C22   C28   A    
C13   C14   A    
C35   H16   S    
C9    C33   A    
C38   C39   S    
Cu1   O5    S    
C11   I1    S    
Cu2   O6    S    
C24   C25   A    
C38   H22   S    
C1    O2    A    
C38   H21   S    
C25   C26   A    
C37   C38   S    
C2    C4    A    
C39   H23   S    
C29   C30   A    
Cu2   N1    S    
C12   O4    A    
C17   C18   A    
C26   C27   A    
C10   C34   A    
C39   H24   S    
C8    H13   S    
C32   H12   S    
Cu1   O1    S    
C10   C12   S    
C14   H3    S    
Cu2   O2    S    
C23   O6    A    
C30   H11   S    
C29   N1    A    
C21   C23   S    
C29   H6    S    
C22   C24   A    
C20   H5    S    
C2    C36   A    
C31   O7    A    
C11   C17   A    
C15   H4    S    
C4    C5    A    
C27   N2    A    
Cu1   O3    S    
C6    C7    A    
C34   H14   S    
C24   H8    S    
C19   C20   A    
C2    C3    A    
C3    C10   A    
C12   O3    A    
C11   C13   A    
C30   N2    A    
C6    O9    S    
C8    C33   A    
C37   H19   S    
C39   H25   S    
C22   H7    S    
C20   C21   A    
C27   C28   A    
C14   C15   A    
Cu2   O4    S    
