data_str_m2_o10_o29_f0_pcu.sym.202
_audit_creation_date              2012-12-10T16:51:17-0500
_audit_creation_method            fapswitch 2.2
_symmetry_space_group_name_H-M    P1
_symmetry_Int_Tables_number       1
_space_group_crystal_system       triclinic
_cell_length_a                    27.747681
_cell_length_b                    8.684337
_cell_length_c                    7.458902
_cell_angle_alpha                 103.230579
_cell_angle_beta                  93.957335
_cell_angle_gamma                 92.509808
_cell_volume                      1742.2049676

loop_
_atom_site_label
_atom_site_type_symbol
_atom_type_description
_atom_site_fract_x
_atom_site_fract_y
_atom_site_fract_z
_atom_type_partial_charge
C1    C     C_R   0.498530 0.199659 0.453059 0.887747
C2    C     C_R   0.501451 0.800339 0.546943 0.886405
C3    C     C_R   0.101108 0.497043 0.463255 -0.042080
C4    C     C_R   0.896670 0.508671 0.430630 -0.043442
C5    C     C_R   0.123385 0.352596 0.447120 -0.017430
C6    C     C_R   0.874416 0.654029 0.469967 -0.019031
C7    C     C_R   0.094828 0.211000 0.407369 -0.154855
C8    C     C_R   0.902887 0.795756 0.505464 -0.154888
C9    C     C_R   0.130311 0.638593 0.493982 -0.011924
C10   C     C_R   0.867573 0.366135 0.392101 -0.021849
C11   C     C_R   0.354834 0.493601 0.507629 -0.064715
C12   C     C_R   0.645357 0.506366 0.488013 -0.066607
C13   C     C_R   0.969676 0.357761 0.396320 0.044058
C14   C     C_R   0.027982 0.647721 0.475453 0.045021
C15   C     C_R   0.976692 0.650883 0.470667 0.045081
C16   C     C_R   0.020968 0.354952 0.409361 0.045603
C17   C     C_R   0.947896 0.505784 0.431846 0.067518
C18   C     C_R   0.049783 0.499909 0.448870 0.066285
C19   C     C_R   0.939079 0.217107 0.351001 -0.215637
C20   C     C_R   0.058620 0.787785 0.508519 -0.216128
C21   C     C_R   0.889148 0.221610 0.349594 -0.149350
C22   C     C_R   0.108637 0.782763 0.515538 -0.147606
C23   C     C_R   0.407605 0.498639 0.502579 0.801737
C24   C     C_R   0.592496 0.501450 0.497098 0.806969
C25   C     C_R   0.044757 0.211646 0.387116 -0.211056
C26   C     C_R   0.952913 0.794627 0.505686 -0.214522
C27   C     C_2   0.497821 0.031539 0.426876 -0.364084
C28   C     C_2   0.502135 0.968454 0.573127 -0.364294
C29   C     C_R   0.174018 0.353071 0.470972 0.535284
C30   C     C_R   0.823972 0.654050 0.476311 0.518411
C31   C     C_R   0.180853 0.632753 0.503405 0.502830
C32   C     C_R   0.817299 0.371505 0.399133 0.525892
C33   C     C_R   0.283026 0.568923 0.670351 0.196450
C34   C     C_R   0.727012 0.507046 0.632784 0.198852
C35   C     C_R   0.333601 0.571171 0.666121 -0.224329
C36   C     C_R   0.676627 0.503213 0.643434 -0.222496
C37   C     C_R   0.325407 0.410109 0.353136 -0.226153
C38   C     C_R   0.664927 0.516010 0.322123 -0.216079
C39   C     C_R   0.275377 0.406658 0.355367 -0.141585
C40   C     C_R   0.714677 0.521457 0.311295 -0.146010
C41   C     C_R   0.253642 0.488534 0.510250 0.317926
C42   C     C_R   0.745847 0.515952 0.464214 0.344340
Cu1   Cu    Cu3+1 0.505380 0.517380 0.684380 0.952920
Cu2   Cu    Cu3+1 0.494620 0.482620 0.315620 0.953089
H1    H     H_    0.341093 0.347429 0.230224 0.164799
H2    H     H_    0.641846 0.520069 0.200309 0.161885
H3    H     H_    0.462099 0.377996 0.948762 0.226240
H4    H     H_    0.537910 0.621973 0.051238 0.223970
H5    H     H_    0.253131 0.342468 0.234125 0.160702
H6    H     H_    0.729212 0.529192 0.183335 0.146089
H7    H     H_    0.111130 0.098156 0.389630 0.179233
H8    H     H_    0.886630 0.909085 0.535545 0.185107
H9    H     H_    0.661971 0.497263 0.772813 0.157995
H10   H     H_    0.356455 0.635746 0.785736 0.159820
H11   H     H_    0.867482 0.110415 0.316491 0.192290
H12   H     H_    0.130425 0.893333 0.542292 0.195729
H13   H     H_    0.952276 0.100311 0.315231 0.139408
H14   H     H_    0.045370 0.904383 0.529930 0.135350
H15   H     H_    0.025894 0.096819 0.356331 0.131099
H16   H     H_    0.971742 0.909678 0.537219 0.135531
H17   H     H_    0.493759 0.959381 0.286192 0.179127
H18   H     H_    0.506194 0.040612 0.713810 0.179596
N1    N     N_R   0.201740 0.492091 0.498875 -0.469659
N2    N     N_R   0.796809 0.513997 0.444694 -0.472107
N3    N     N_2   0.486510 0.456430 0.038510 -0.218179
N4    N     N_2   0.513490 0.543570 0.961490 -0.219252
O1    O     O_R   0.503500 0.286120 0.619780 -0.582256
O2    O     O_R   0.496500 0.713880 0.380220 -0.582601
O3    O     O_R   0.494410 0.256780 0.308360 -0.584689
O4    O     O_R   0.505590 0.743220 0.691640 -0.584558
O5    O     O_R   0.434810 0.514700 0.655690 -0.590189
O6    O     O_R   0.565190 0.485300 0.344310 -0.590501
O7    O     O_R   0.425720 0.485350 0.344280 -0.582370
O8    O     O_R   0.574280 0.514650 0.655720 -0.584510
O9    O     O_2   0.195395 0.215693 0.466356 -0.526537
O10   O     O_2   0.802269 0.792510 0.516327 -0.527558
O11   O     O_2   0.789087 0.235625 0.362714 -0.528870
O12   O     O_2   0.208952 0.766607 0.517815 -0.532430
C43   C     C_3   0.759794 0.504114 0.802236 -0.436785
C44   C     C_3   0.756737 0.341256 0.847310 -0.763748
H19   H     H_    0.719409 0.310279 0.877811 0.247090
H20   H     H_    0.767425 0.249467 0.729390 0.294408
H21   H     H_    0.781753 0.342152 0.970424 0.248270
H22   H     H_    0.798168 0.534379 0.784609 0.216644
H23   H     H_    0.749400 0.596083 0.920315 0.203494
C45   C     C_3   0.261958 0.652832 0.845976 -0.365528
C46   C     C_3   0.275247 0.575613 0.005043 -0.837890
H24   H     H_    0.263374 0.447733 0.965410 0.256906
H25   H     H_    0.314883 0.588758 0.042447 0.254739
H26   H     H_    0.256774 0.633497 0.128055 0.273654
H27   H     H_    0.275720 0.779127 0.883294 0.222640
H28   H     H_    0.221957 0.650749 0.830024 0.222129

loop_
_geom_bond_atom_site_label_1
_geom_bond_atom_site_label_2
_ccdc_geom_bond_type
C46   H24   S    
C29   N1    A    
C30   N2    A    
C8    C26   A    
C14   C18   A    
C34   C42   A    
Cu1   Cu2   S    
C39   C41   A    
C19   H13   S    
C3    C18   A    
C19   C21   A    
C2    O2    A    
C45   H27   S    
C43   H22   S    
C9    C22   A    
C14   C20   A    
C11   C37   A    
C36   H9    S    
C27   H17   S    
C33   C35   A    
C32   O11   S    
C46   H26   S    
C12   C36   A    
C8    H8    S    
Cu1   O8    S    
C40   C42   A    
C35   H10   S    
Cu2   N3    S    
C23   O7    A    
C44   H21   S    
C5    C29   A    
C10   C21   A    
C13   C19   A    
C31   N1    A    
C32   N2    A    
C4    C6    A    
C5    C7    A    
C45   C46   S    
C15   C26   A    
C6    C8    A    
C1    O3    A    
C33   C45   S    
C3    C9    A    
C23   O5    A    
C34   C43   S    
C30   O10   S    
Cu2   O3    S    
C16   C18   A    
C4    C17   A    
C44   H20   S    
C39   H5    S    
C20   C22   A    
Cu1   O4    S    
C46   H25   S    
Cu2   O2    S    
C41   N1    S    
C20   H14   S    
C42   N2    S    
C43   H23   S    
C24   O6    A    
C31   O12   S    
C21   H11   S    
C16   C25   A    
C15   C17   A    
Cu1   O5    S    
C6    C30   A    
C4    C10   A    
C44   H19   S    
C3    C5    A    
C22   H12   S    
C29   O9    S    
C12   C24   S    
C7    C25   A    
C13   C17   A    
C33   C41   A    
C11   C35   A    
C7    H7    S    
C37   C39   A    
C45   H28   S    
C38   C40   A    
C24   O8    A    
C26   H16   S    
Cu1   N4    S    
C40   H6    S    
C11   C23   S    
C1    O1    A    
Cu2   O6    S    
C34   C36   A    
C12   C38   A    
Cu2   O7    S    
C38   H2    S    
C9    C31   A    
C43   C44   S    
C10   C32   A    
Cu1   O1    S    
N3    N4    D    
C13   C16   A    
C27   C28   D    
C1    C27   S    
C14   C15   A    
C2    C28   S    
C25   H15   S    
H4    N4    S    
C2    O4    A    
C37   H1    S    
H3    N3    S    
C28   H18   S    
