data_str_m12_o9_o22_f0_bcu.sym.146
_audit_creation_date              2012-12-11T17:45:21-0500
_audit_creation_method            fapswitch 2.2
_symmetry_space_group_name_H-M    P1
_symmetry_Int_Tables_number       1
_space_group_crystal_system       triclinic
_cell_length_a                    15.004989
_cell_length_b                    14.860738
_cell_length_c                    15.121773
_cell_angle_alpha                 109.628755
_cell_angle_beta                  108.697846
_cell_angle_gamma                 109.285466
_cell_volume                      2620.9454872

loop_
_atom_site_label
_atom_site_type_symbol
_atom_type_description
_atom_site_fract_x
_atom_site_fract_y
_atom_site_fract_z
_atom_type_partial_charge
C1    C     C_R   0.973456 0.247912 0.061784 -0.118786
C2    C     C_R   0.319847 0.802065 0.325568 0.057761
C3    C     C_R   0.300633 0.501987 0.931261 -0.013293
C4    C     C_R   0.945500 0.496336 0.305475 0.068796
C5    C     C_R   0.686980 0.408842 0.935081 -0.136768
C6    C     C_R   0.021736 0.595598 0.784848 -0.109468
C7    C     C_R   0.792057 0.197358 0.701174 -0.132183
C8    C     C_R   0.000257 0.801799 0.095862 -0.147168
C9    C     C_R   0.094647 0.807147 0.009373 -0.149695
C10   C     C_R   0.705523 0.195923 0.796189 -0.159127
C11   C     C_R   0.777184 0.592727 0.026946 -0.141899
C12   C     C_R   0.313834 0.767846 0.224582 -0.138491
C13   C     C_R   0.939365 0.412804 0.687918 -0.139036
C14   C     C_R   0.675855 0.501339 0.951709 -0.011473
C15   C     C_R   0.955851 0.508953 0.682792 0.043212
C16   C     C_R   0.702297 0.134226 0.703000 0.070538
C17   C     C_R   0.064067 0.870119 0.072701 0.069078
C18   C     C_R   0.665602 0.133735 0.136724 0.093192
C19   C     C_R   0.713803 0.247285 0.208209 -0.249777
C20   C     C_R   0.794952 0.294167 0.314564 0.119447
C21   C     C_R   0.820072 0.224955 0.350195 -0.166559
C22   C     C_R   0.762790 0.112107 0.283939 -0.118121
C23   C     C_R   0.209363 0.410206 0.902883 -0.149698
C24   C     C_R   0.685233 0.066584 0.178366 -0.149453
C25   C     C_R   0.847921 0.432250 0.491141 -0.245912
C26   C     C_R   0.935584 0.520678 0.588041 0.063716
C27   C     C_R   0.014349 0.606637 0.589236 0.019995
C28   C     C_R   0.003427 0.598810 0.493082 -0.244688
C29   C     C_R   0.928106 0.500484 0.396061 0.066043
C30   C     C_R   0.850742 0.412636 0.395457 0.034054
C31   C     C_R   0.139354 0.801781 0.737629 -0.195542
C32   C     C_R   0.235627 0.880756 0.833432 -0.120094
C33   C     C_R   0.313390 0.853351 0.875796 -0.078540
C34   C     C_R   0.997178 0.588779 0.299091 -0.150816
C35   C     C_R   0.296731 0.747738 0.821212 -0.121429
C36   C     C_R   0.200672 0.668167 0.725763 -0.129993
C37   C     C_R   0.119998 0.693944 0.685065 0.111451
C38   C     C_R   0.256342 0.104776 0.529124 -0.137903
C39   C     C_R   0.321957 0.065851 0.501781 -0.142173
C40   C     C_R   0.322449 0.974188 0.509157 0.129980
C41   C     C_R   0.255549 0.922297 0.543945 -0.188159
C42   C     C_R   0.184900 0.956939 0.564201 -0.114980
C43   C     C_R   0.186362 0.049200 0.558308 -0.130461
C44   C     C_R   0.510308 0.032095 0.604199 -0.254509
C45   C     C_R   0.299617 0.592217 0.995597 -0.138942
C46   C     C_R   0.606732 0.034681 0.614701 0.070155
C47   C     C_R   0.607171 0.952967 0.534308 0.013066
C48   C     C_R   0.510350 0.874068 0.440997 -0.245814
C49   C     C_R   0.414997 0.877064 0.428268 0.072802
C50   C     C_R   0.414382 0.955577 0.512549 0.005380
C51   C     C_R   0.753634 0.988166 0.486587 -0.196421
C52   C     C_R   0.849168 0.988871 0.495682 -0.139578
C53   C     C_R   0.892849 0.943245 0.552393 -0.090466
C54   C     C_R   0.845233 0.904017 0.606907 -0.108142
C55   C     C_R   0.752842 0.909211 0.603333 -0.138816
C56   C     C_R   0.915712 0.406684 0.212503 -0.156797
C57   C     C_R   0.706404 0.950605 0.542303 0.134030
C58   C     C_3   0.473449 0.394413 0.838779 -0.400728
C59   C     C_3   0.370101 0.398946 0.829305 -0.406459
C60   C     C_3   0.569264 0.511717 0.041096 -0.397002
C61   C     C_3   0.569613 0.599174 0.923402 -0.394446
C62   C     C_3   0.574039 0.501629 0.937554 0.396545
C63   C     C_3   0.398096 0.502917 0.928085 0.405945
C64   C     C_3   0.464567 0.508027 0.033555 -0.391120
C65   C     C_3   0.468216 0.603563 0.923869 -0.417190
C66   C     C_R   0.159058 0.075287 0.802709 -0.127305
C67   C     C_R   0.217654 0.758861 0.312330 -0.124250
C68   C     C_R   0.124817 0.069508 0.876918 -0.177326
C69   C     C_R   0.197476 0.138504 0.987300 0.109812
C70   C     C_R   0.305311 0.210018 0.022631 -0.167499
C71   C     C_R   0.339416 0.213415 0.947532 -0.142470
C72   C     C_R   0.266308 0.146225 0.837823 -0.125099
C73   C     C_R   0.170509 0.042756 0.084103 -0.236230
C74   C     C_R   0.100390 0.988323 0.113724 0.061326
C75   C     C_R   0.053290 0.043340 0.162498 0.018679
C76   C     C_R   0.064519 0.139872 0.162786 -0.240334
C77   C     C_R   0.100481 0.168903 0.096672 0.063115
C78   C     C_R   0.070600 0.256010 0.976482 -0.134779
C79   C     C_R   0.162248 0.124785 0.063893 0.027653
C80   C     C_R   0.866139 0.948284 0.131738 -0.131920
C81   C     C_R   0.794020 0.892160 0.158737 -0.150128
C82   C     C_R   0.832723 0.882495 0.250273 -0.131578
C83   C     C_R   0.943955 0.933637 0.317859 -0.133976
C84   C     C_R   0.016405 0.994098 0.293722 -0.176056
C85   C     C_R   0.977829 0.996644 0.197759 0.111699
C86   C     C_R   0.053517 0.225314 0.049265 0.051370
H1    H     H_    0.936725 0.231318 0.108906 0.095056
H2    H     H_    0.045692 0.680626 0.811042 0.120533
H3    H     H_    0.819194 0.174002 0.643861 0.110019
H4    H     H_    0.974157 0.820787 0.153720 0.133371
H5    H     H_    0.155144 0.836142 0.986840 0.102000
H6    H     H_    0.654430 0.168347 0.828678 0.121778
H7    H     H_    0.797077 0.677558 0.064176 0.111624
H8    H     H_    0.892275 0.329439 0.622083 0.094300
H9    H     H_    0.641919 0.978429 0.128251 0.096176
H10   H     H_    0.696128 0.300556 0.180040 0.115890
H11   H     H_    0.379460 0.788901 0.206486 0.095680
H12   H     H_    0.882190 0.258475 0.431443 0.112128
H13   H     H_    0.779768 0.059943 0.314132 0.126454
H14   H     H_    0.788480 0.367350 0.492308 0.133515
H15   H     H_    0.066929 0.664840 0.497487 0.125640
H16   H     H_    0.078480 0.823234 0.706758 0.113945
H17   H     H_    0.249841 0.962858 0.876291 0.149209
H18   H     H_    0.386803 0.914131 0.950840 0.117967
H19   H     H_    0.357765 0.727469 0.853850 0.099110
H20   H     H_    0.187468 0.585692 0.685425 0.109575
H21   H     H_    0.134308 0.078560 0.577596 0.101238
H22   H     H_    0.179727 0.325879 0.846525 0.104097
H23   H     H_    0.258980 0.177548 0.526690 0.110784
H24   H     H_    0.377295 0.111030 0.481258 0.113886
H25   H     H_    0.258583 0.855343 0.556072 0.106173
H26   H     H_    0.131665 0.914101 0.587734 0.103520
H27   H     H_    0.509504 0.096350 0.664773 0.134373
H28   H     H_    0.509902 0.812097 0.377023 0.130712
H29   H     H_    0.718840 0.021228 0.440143 0.114093
H30   H     H_    0.889079 0.025197 0.458874 0.121695
H31   H     H_    0.963237 0.938122 0.553601 0.080187
H32   H     H_    0.879940 0.869825 0.651883 0.099230
H33   H     H_    0.016272 0.671660 0.348712 0.097313
H34   H     H_    0.716548 0.879422 0.646228 0.104784
H35   H     H_    0.468717 0.321777 0.847102 0.145189
H36   H     H_    0.477944 0.382999 0.764046 0.156399
H37   H     H_    0.328520 0.399592 0.754115 0.153254
H38   H     H_    0.314686 0.323599 0.822552 0.159635
H39   H     H_    0.575535 0.444454 0.054746 0.149155
H40   H     H_    0.417011 0.436107 0.038102 0.167150
H41   H     H_    0.641950 0.677814 0.988661 0.148841
H42   H     H_    0.567863 0.589885 0.846627 0.156609
H43   H     H_    0.420717 0.603239 0.850184 0.149417
H44   H     H_    0.354829 0.677510 0.027080 0.085715
H45   H     H_    0.494450 0.681542 0.994469 0.144162
H46   H     H_    0.638531 0.590454 0.112297 0.158999
H47   H     H_    0.484229 0.582390 0.104355 0.153334
H48   H     H_    0.292871 0.149066 0.779923 0.119728
H49   H     H_    0.103207 0.022990 0.718317 0.105703
H50   H     H_    0.042007 0.011774 0.848870 0.120188
H51   H     H_    0.362761 0.261341 0.107593 0.115579
H52   H     H_    0.422572 0.267625 0.974145 0.106869
H53   H     H_    0.216747 0.009340 0.057027 0.123673
H54   H     H_    0.028496 0.180660 0.200607 0.130259
H55   H     H_    0.870340 0.321694 0.186174 0.117021
H56   H     H_    0.835211 0.951351 0.058143 0.106292
H57   H     H_    0.708125 0.854834 0.107961 0.099991
H58   H     H_    0.776548 0.835867 0.269044 0.119425
H59   H     H_    0.973814 0.924611 0.387695 0.122084
H60   H     H_    0.101926 0.029971 0.343231 0.135912
H61   H     H_    0.191964 0.762060 0.371016 0.107753
H62   H     H_    0.129852 0.257690 0.951474 0.132539
H63   H     H_    0.624867 0.323828 0.886644 0.094701
N1    N     N_R   0.947080 0.293830 0.002870 -0.040514
N2    N     N_R   0.054040 0.556820 0.847890 -0.041531
N3    N     N_R   0.848290 0.293830 0.791110 -0.040285
N4    N     N_R   0.995680 0.706170 0.053910 -0.041329
N5    N     N_R   0.052920 0.706170 0.997130 -0.041908
N6    N     N_R   0.791050 0.293830 0.847890 -0.038517
N7    N     N_R   0.846330 0.556820 0.053910 -0.036908
N8    N     N_R   0.997640 0.443180 0.791110 -0.040402
N9    N     N_R   0.208950 0.706170 0.152110 -0.039698
N10   N     N_R   0.153670 0.443180 0.946090 -0.038235
N11   N     N_R   0.002360 0.556820 0.208890 -0.039439
N12   N     N_R   0.210070 0.556820 0.002870 -0.033408
N13   N     N_R   0.945960 0.443180 0.152110 -0.039298
N14   N     N_R   0.151710 0.706170 0.208890 -0.041290
N15   N     N_R   0.004320 0.293830 0.946090 -0.042340
N16   N     N_R   0.789930 0.443180 0.997130 -0.035978
Ni1   Ni    Ni4+2 0.869690 0.369690 0.000000 0.216405
Ni2   Ni    Ni4+2 0.130310 0.630310 0.000000 0.214210
Ni3   Ni    Ni4+2 0.000970 0.369690 0.869780 0.215749
Ni4   Ni    Ni4+2 0.999030 0.630310 0.130220 0.214345
C87   C     C_R   0.601725 0.084473 0.018322 0.111726
C88   C     C_R   0.605421 0.995780 0.948888 -0.180174
C89   C     C_R   0.542507 0.945112 0.837884 -0.108016
C90   C     C_R   0.477028 0.983515 0.794352 -0.072228
C91   C     C_R   0.476827 0.074743 0.861316 -0.133892
C92   C     C_R   0.538079 0.124746 0.972933 -0.174914
H64   H     H_    0.657131 0.965260 0.979981 0.104697
H65   H     H_    0.544516 0.875975 0.785595 0.107993
H66   H     H_    0.427412 0.942935 0.708624 0.118114
H67   H     H_    0.429092 0.106300 0.826258 0.116876
H68   H     H_    0.534243 0.193210 0.023388 0.106788

loop_
_geom_bond_atom_site_label_1
_geom_bond_atom_site_label_2
_ccdc_geom_bond_type
C89   H65   S    
C58   C62   S    
C66   C68   A    
C88   C89   A    
C63   C65   S    
C1    H1    S    
N16   Ni1   S    
C33   H18   S    
C73   C74   A    
C3    C23   A    
C35   C36   A    
C2    C12   A    
C60   H46   S    
C81   C82   A    
C6    H2    S    
C20   C30   S    
C53   C54   A    
C52   C53   A    
C78   N15   A    
C26   C27   A    
C80   C85   A    
C18   C24   A    
N2    N8    A    
C28   C29   A    
C77   C86   S    
C38   C39   A    
C11   C14   A    
C53   H31   S    
C66   H49   S    
C87   C88   A    
N6    Ni1   S    
C14   C62   S    
C56   N13   A    
N7    Ni4   S    
C1    C86   A    
C5    H63   S    
N10   Ni3   S    
C60   C62   S    
C18   C19   A    
C41   C42   A    
C45   N12   A    
C91   C92   A    
C42   H26   S    
C65   H45   S    
C6    C15   A    
C83   H59   S    
C28   H15   S    
C75   C85   S    
C39   H24   S    
C66   C72   A    
C83   C84   A    
C90   H66   S    
C68   C69   A    
C23   N10   A    
N11   Ni4   S    
N10   N12   A    
C70   C71   A    
C51   C57   A    
C5    N16   A    
C5    C14   A    
C4    C29   S    
C78   H62   S    
C55   H34   S    
C78   C86   A    
C18   C87   S    
C10   H6    S    
C45   H44   S    
N13   Ni1   S    
C21   C22   A    
C4    C56   A    
C9    H5    S    
C61   C62   S    
N8    Ni3   S    
C13   N8    A    
N3    Ni3   S    
C44   C46   A    
N9    Ni2   S    
C71   H52   S    
C87   C92   A    
C52   H30   S    
C59   H37   S    
C4    C34   A    
C58   H36   S    
N1    Ni1   S    
C74   C75   A    
C36   H20   S    
C51   C52   A    
C31   H16   S    
N15   Ni3   S    
C76   C77   A    
C82   H58   S    
C2    C67   A    
C24   H9    S    
C16   C46   S    
C39   C40   A    
C25   C30   A    
C15   C26   S    
C73   H53   S    
C58   C59   S    
C90   C91   A    
C3    C45   A    
C51   H29   S    
C7    N3    A    
N11   N13   A    
C75   C76   A    
C29   C30   A    
C35   H19   S    
C2    C49   S    
C61   C65   S    
C47   C57   S    
C25   H14   S    
C72   H48   S    
C47   C48   A    
N3    N6    A    
C68   H50   S    
C73   C79   A    
C77   C79   A    
C1    N1    A    
C61   H41   S    
C43   H21   S    
C84   C85   A    
C38   H23   S    
C32   H17   S    
C8    N4    A    
C12   H11   S    
N12   Ni2   S    
C11   N7    A    
C6    N2    A    
N9    N14   A    
C9    C17   A    
C48   C49   A    
C9    N5    A    
C82   C83   A    
C64   H40   S    
C55   C57   A    
C67   H61   S    
C17   C74   S    
C59   H38   S    
C22   C24   A    
N5    Ni2   S    
C69   C79   S    
C8    H4    S    
C42   C43   A    
C56   H55   S    
C76   H54   S    
C54   H32   S    
C89   C90   A    
C48   H28   S    
C64   H47   S    
C44   C50   A    
C34   H33   S    
C54   C55   A    
C60   H39   S    
C58   H35   S    
C22   H13   S    
C59   C63   S    
C31   C32   A    
C7    C16   A    
C80   C81   A    
C10   N6    A    
C44   H27   S    
C65   H43   S    
C92   H68   S    
N2    Ni2   S    
C3    C63   S    
N1    N15   A    
C88   H64   S    
C80   H56   S    
C8    C17   A    
C13   H8    S    
C60   C64   S    
C32   C33   A    
C19   C20   A    
C13   C15   A    
C25   C26   A    
C38   C43   A    
C10   C16   A    
C21   H12   S    
C11   H7    S    
N7    N16   A    
C27   C37   S    
C40   C50   S    
C23   H22   S    
C33   C35   A    
C61   H42   S    
C69   C70   A    
N14   Ni4   S    
C46   C47   A    
C63   C64   S    
C67   N14   A    
C31   C37   A    
C81   H57   S    
C71   C72   A    
C20   C21   A    
C70   H51   S    
C36   C37   A    
C49   C50   A    
C41   H25   S    
N4    Ni4   S    
C27   C28   A    
C40   C41   A    
C84   H60   S    
C12   N9    A    
N4    N5    A    
C91   H67   S    
C19   H10   S    
C34   N11   A    
C7    H3    S    
