data_str_m3_o5_o28_f0_pcu.sym.24
_audit_creation_date              2013-03-05T16:48:15-0500
_audit_creation_method            fapswitch 2.2
_symmetry_space_group_name_H-M    P1
_symmetry_Int_Tables_number       1
_space_group_crystal_system       triclinic
_cell_length_a                    23.503095
_cell_length_b                    8.932407
_cell_length_c                    8.0987
_cell_angle_alpha                 89.742998
_cell_angle_beta                  89.98908
_cell_angle_gamma                 89.999536
_cell_volume                      1700.21754721

loop_
_atom_site_label
_atom_site_type_symbol
_atom_site_description
_atom_site_fract_x
_atom_site_fract_y
_atom_site_fract_z
_atom_type_partial_charge
O1    O     O_R   0.500000 0.285350 0.636850 -0.629449
O2    O     O_R   0.500000 0.714650 0.363150 -0.629205
O3    O     O_R   0.500000 0.714650 0.636850 -0.614166
O4    O     O_R   0.500000 0.285350 0.363150 -0.614181
H1    H     H_    0.949996 0.209293 0.769509 0.191913
H2    H     H_    0.053295 0.783367 0.221295 0.191771
H3    H     H_    0.950049 0.790401 0.230242 0.191910
H4    H     H_    0.053238 0.216402 0.778620 0.191770
C1    C     C_R   0.499786 0.217963 0.500239 0.945366
C2    C     C_R   0.499786 0.782037 0.499762 0.945704
O5    O     O_R   0.416160 0.500000 0.636910 -0.621307
O6    O     O_R   0.583840 0.500000 0.363090 -0.579076
O7    O     O_R   0.583840 0.500000 0.636910 -0.579116
O8    O     O_R   0.416160 0.500000 0.363090 -0.620800
C3    C     C_R   0.210101 0.499934 0.500068 0.161426
C4    C     C_R   0.793154 0.499878 0.499875 0.170262
C5    C     C_R   0.389580 0.499957 0.500017 1.011233
C6    C     C_R   0.611206 0.499992 0.499985 0.914707
Zn1   Zn    Zn3+2 0.500000 0.500000 0.682780 1.009647
Zn2   Zn    Zn3+2 0.500000 0.500000 0.317220 1.009925
H5    H     H_    0.217152 0.738593 0.539448 0.185865
H6    H     H_    0.786280 0.499727 0.765298 0.184636
H7    H     H_    0.217160 0.261267 0.460711 0.185993
H8    H     H_    0.786279 0.500025 0.234463 0.184619
C7    C     C_R   0.299092 0.635927 0.513797 0.412161
C8    C     C_R   0.704244 0.490310 0.650529 0.415017
C9    C     C_R   0.299088 0.363926 0.486365 0.411986
C10   C     C_R   0.704244 0.509553 0.349326 0.415042
C11   C     C_R   0.328365 0.499930 0.500075 -0.254309
C12   C     C_R   0.673851 0.499953 0.499947 -0.287238
C13   C     C_R   0.882623 0.607227 0.411020 0.524770
C14   C     C_R   0.120667 0.404740 0.604433 0.528316
C15   C     C_R   0.882606 0.392458 0.588673 0.524759
C16   C     C_R   0.120690 0.595102 0.395611 0.528362
N1    N     N_R   0.854088 0.499848 0.499845 -0.327316
N2    N     N_R   0.149189 0.499932 0.500044 -0.327952
C17   C     C_R   0.941962 0.393753 0.595350 -0.020153
C18   C     C_R   0.061331 0.600767 0.397819 -0.020345
C19   C     C_R   0.941980 0.605944 0.404397 -0.020154
C20   C     C_R   0.061310 0.399018 0.602119 -0.020346
C21   C     C_R   0.971765 0.499857 0.499894 -0.022078
C22   C     C_R   0.031526 0.499879 0.499943 -0.021867
C23   C     C_R   0.972039 0.291463 0.694369 -0.156521
C24   C     C_R   0.031252 0.704178 0.300239 -0.156218
C25   C     C_R   0.972077 0.708246 0.305416 -0.156516
C26   C     C_R   0.031211 0.295577 0.699642 -0.156225
C27   C     C_1   0.499606 0.065184 0.500341 -0.193092
C28   C     C_1   0.499606 0.934817 0.499660 -0.193107
C29   C     C_R   0.239906 0.634568 0.520906 -0.181107
C30   C     C_R   0.763401 0.498330 0.649194 -0.202630
C31   C     C_R   0.239909 0.365300 0.479238 -0.180657
C32   C     C_R   0.763401 0.501461 0.350591 -0.202625
N3    N     N_1   0.500000 0.500000 0.073640 -0.028261
N4    N     N_1   0.500000 0.500000 0.926360 -0.028299
O9    O     O_2   0.853642 0.715851 0.330735 -0.570705
O10   O     O_2   0.149664 0.316985 0.711337 -0.566608
O11   O     O_2   0.853610 0.283826 0.668926 -0.570684
O12   O     O_2   0.149712 0.682885 0.288760 -0.566665
O13   O     O_3   0.328585 0.769329 0.525506 -0.627047
C33   C     C_3   0.329603 0.836989 0.367724 -0.258896
H9    H     H_    0.345159 0.758780 0.270726 0.163516
H10   H     H_    0.359643 0.932648 0.370109 0.211793
H11   H     H_    0.286815 0.881088 0.334421 0.198068
O14   O     O_3   0.676388 0.479562 0.800374 -0.586951
C34   C     C_3   0.677416 0.328586 0.852251 -0.165433
H12   H     H_    0.659534 0.252661 0.756546 0.126580
H13   H     H_    0.650377 0.316865 0.963792 0.212582
H14   H     H_    0.721300 0.293292 0.886151 0.167272
O15   O     O_3   0.328535 0.230463 0.474572 -0.626930
C35   C     C_3   0.330188 0.163807 0.632802 -0.260977
H15   H     H_    0.287412 0.121544 0.668887 0.197803
H16   H     H_    0.346774 0.242112 0.728131 0.164050
H17   H     H_    0.359679 0.067028 0.629659 0.212214
O16   O     O_3   0.676380 0.520317 0.199521 -0.586955
C36   C     C_3   0.677535 0.671224 0.147429 -0.165238
H18   H     H_    0.721424 0.706086 0.113061 0.167387
H19   H     H_    0.659843 0.747417 0.243181 0.126468
H20   H     H_    0.650399 0.683051 0.036130 0.212509

loop_
_geom_bond_atom_site_label_1
_geom_bond_atom_site_label_2
_geom_bond_distance
_ccdc_geom_bond_type
H8    C32   1.083381 S    
C9    C11   1.401034 A    
C5    C11   1.438761 S    
C21   C22   1.404573 A    
C10   O16   1.381764 S    
H5    C29   1.083134 S    
C19   C21   1.407051 A    
N3    N4    1.192776 T    
C20   C26   1.403994 A    
O5    Zn1   2.005283 S    
O7    C6    1.281841 A    
C33   H11   1.112829 S    
H3    C25   1.083208 S    
C4    C30   1.396811 A    
C18   C22   1.407113 A    
C8    C30   1.392262 A    
C4    N1    1.432138 S    
C33   H10   1.108658 S    
C8    O14   1.381744 S    
C34   H13   1.108955 S    
O3    Zn1   1.951451 S    
C35   H15   1.112478 S    
C6    C12   1.472351 S    
C3    C31   1.402593 A    
C9    O15   1.382134 S    
C19   C25   1.404009 A    
C14   C20   1.396142 A    
H1    C23   1.083207 S    
O13   C33   1.411286 S    
H2    C24   1.083206 S    
O8    C5    1.272677 A    
C36   H20   1.108951 S    
C9    C31   1.392154 A    
H4    C26   1.083209 S    
C7    C11   1.400910 A    
O1    Zn1   1.954728 S    
O16   C36   1.410888 S    
O7    Zn1   2.005142 S    
O2    Zn2   1.954727 S    
O8    Zn2   2.005144 S    
O1    C1    1.261893 A    
C15   C17   1.396143 A    
C33   H9    1.115181 S    
C17   C23   1.404016 A    
C36   H18   1.112496 S    
C18   C24   1.403989 A    
H7    C31   1.083148 S    
C27   C28   1.164526 T    
C34   H14   1.112617 S    
O6    Zn2   2.005281 S    
C35   H17   1.108398 S    
C36   H19   1.114480 S    
Zn1   N4    1.972681 S    
C1    C27   1.364694 S    
C2    C28   1.364696 S    
C13   N1    1.371462 A    
O2    C2    1.261896 A    
C14   N2    1.371299 A    
C3    N2    1.431630 S    
C24   C25   1.391889 A    
O5    C5    1.272648 A    
C15   O11   1.350044 S    
C16   C18   1.396147 A    
C4    C32   1.396812 A    
Zn2   N3    1.972681 S    
C8    C12   1.415736 A    
H6    C30   1.083388 S    
O14   C34   1.410912 S    
C10   C12   1.415737 A    
O3    C2    1.260546 A    
C10   C32   1.392291 A    
C20   C22   1.407110 A    
C15   N1    1.371474 A    
C13   C19   1.396147 A    
C16   N2    1.371280 A    
C3    C29   1.402604 A    
C17   C21   1.407044 A    
O15   C35   1.411146 S    
C23   C26   1.391886 A    
C7    C29   1.392297 A    
O4    Zn2   1.951452 S    
C34   H12   1.114535 S    
O6    C6    1.281837 A    
C16   O12   1.350047 S    
C35   H16   1.114542 S    
C7    O13   1.382182 S    
C13   O9    1.350051 S    
O4    C1    1.260548 A    
C14   O10   1.350042 S    
