data_str_m3_o10_o26_f0_pcu.sym.153
_audit_creation_date              2012-12-10T16:57:04-0500
_audit_creation_method            fapswitch 2.2
_symmetry_space_group_name_H-M    P1
_symmetry_Int_Tables_number       1
_space_group_crystal_system       triclinic
_cell_length_a                    7.766397
_cell_length_b                    8.622903
_cell_length_c                    16.563072
_cell_angle_alpha                 91.96085
_cell_angle_beta                  79.767475
_cell_angle_gamma                 93.502854
_cell_volume                      1089.22089058

loop_
_atom_site_label
_atom_site_type_symbol
_atom_type_description
_atom_site_fract_x
_atom_site_fract_y
_atom_site_fract_z
_atom_type_partial_charge
C1    C     C_R   0.545139 0.794331 0.498439 0.957425
C2    C     C_R   0.396743 0.340243 0.243279 -0.265675
C3    C     C_R   0.488955 0.589667 0.873987 0.210547
C4    C     C_R   0.395032 0.280425 0.164798 0.194114
C5    C     C_R   0.395110 0.458312 0.911680 0.097286
C6    C     C_R   0.531544 0.326544 0.101212 0.094472
C7    C     C_R   0.316029 0.342585 0.865284 0.197405
C8    C     C_R   0.679251 0.418194 0.117921 0.187088
C9    C     C_R   0.345906 0.352773 0.779050 0.156297
C10   C     C_R   0.675788 0.484757 0.197342 0.162163
C11   C     C_2   0.400514 0.434366 0.997773 -0.203456
C12   C     C_R   0.455202 0.205630 0.501023 0.951495
C13   C     C_2   0.494598 0.321629 0.017981 -0.192637
C14   C     C_3   0.821874 0.600620 0.213106 -0.872688
C15   C     C_3   0.269730 0.229670 0.725492 -0.865018
C16   C     C_3   0.197479 0.211882 0.907250 -0.923366
C17   C     C_3   0.836692 0.450159 0.050895 -0.912111
C18   C     C_3   0.242511 0.174013 0.149016 -0.901975
C19   C     C_3   0.562590 0.719638 0.923356 -0.914959
C20   C     C_3   0.697635 0.013307 0.563529 -0.891169
C21   C     C_3   0.308719 0.986696 0.433011 -0.883074
C22   C     C_2   0.561782 0.956086 0.511342 -0.023080
C23   C     C_2   0.439946 0.043912 0.487476 -0.020164
C24   C     C_R   0.475003 0.499576 0.654428 0.895548
C25   C     C_R   0.523509 0.494192 0.345119 0.880088
C26   C     C_R   0.450038 0.480462 0.742136 -0.122412
C27   C     C_R   0.530790 0.446186 0.259530 -0.126277
C28   C     C_R   0.517443 0.598109 0.789039 -0.273118
H1    H     H_    0.591317 0.697329 0.758953 0.150303
H2    H     H_    0.164628 0.278441 0.698297 0.258645
H3    H     H_    0.373780 0.191073 0.675557 0.212223
H4    H     H_    0.213880 0.123466 0.758274 0.241019
H5    H     H_    0.166882 0.227704 0.974663 0.250699
H6    H     H_    0.069361 0.206825 0.886026 0.244135
H7    H     H_    0.260274 0.099483 0.893247 0.244190
H8    H     H_    0.849340 0.574885 0.035551 0.241114
H9    H     H_    0.957598 0.418999 0.072036 0.241968
H10   H     H_    0.829216 0.380960 0.993839 0.243178
H11   H     H_    0.161684 0.131607 0.207081 0.236603
H12   H     H_    0.290764 0.305132 0.292276 0.164140
H13   H     H_    0.157075 0.237248 0.116170 0.239324
H14   H     H_    0.291078 0.071159 0.111590 0.243170
H15   H     H_    0.630647 0.814114 0.883740 0.237141
H16   H     H_    0.454784 0.770636 0.967417 0.234244
H17   H     H_    0.658249 0.674389 0.957605 0.252191
H18   H     H_    0.746536 0.916130 0.593913 0.226698
H19   H     H_    0.812921 0.071564 0.524519 0.267456
H20   H     H_    0.640502 0.093389 0.613609 0.238283
H21   H     H_    0.261249 0.084141 0.402265 0.222515
H22   H     H_    0.370592 0.907833 0.383208 0.240234
H23   H     H_    0.558666 0.240527 0.972309 0.161951
H24   H     H_    0.192012 0.927015 0.470256 0.266634
H25   H     H_    0.349268 0.521905 0.043122 0.165724
H26   H     H_    0.023466 0.379432 0.439407 0.186275
H27   H     H_    0.976549 0.620610 0.560562 0.190251
H28   H     H_    0.789787 0.667044 0.271702 0.240079
H29   H     H_    0.943538 0.539298 0.213011 0.249817
H30   H     H_    0.846920 0.689478 0.164908 0.234740
N1    N     N_2   0.953500 0.457650 0.478520 -0.168647
N2    N     N_2   0.046500 0.542350 0.521480 -0.169724
O1    O     O_R   0.388470 0.738640 0.505270 -0.616911
O2    O     O_R   0.611530 0.261360 0.494730 -0.616316
O3    O     O_R   0.679650 0.711510 0.491500 -0.626577
O4    O     O_R   0.320350 0.288490 0.508500 -0.626909
O5    O     O_R   0.337210 0.515200 0.623500 -0.607373
O6    O     O_R   0.662790 0.484800 0.376500 -0.603097
O7    O     O_R   0.628380 0.488060 0.609730 -0.621860
O8    O     O_R   0.371620 0.511940 0.390270 -0.625238
Zn1   Zn    Zn3+2 0.305580 0.518120 0.509190 0.930472
Zn2   Zn    Zn3+2 0.694420 0.481880 0.490810 0.934486

loop_
_geom_bond_atom_site_label_1
_geom_bond_atom_site_label_2
_ccdc_geom_bond_type
C10   C27   A    
C14   H28   S    
C18   H11   S    
C19   H17   S    
C3    C19   S    
C2    C27   A    
C17   H8    S    
C16   H5    S    
C25   C27   S    
C12   O2    A    
C2    C4    A    
C8    C17   S    
C11   H25   S    
O3    Zn2   S    
C17   H10   S    
O7    Zn2   S    
C4    C18   S    
C21   H21   S    
C9    C15   S    
N1    N2    D    
C17   H9    S    
O4    Zn1   S    
C6    C13   S    
C15   H3    S    
C11   C13   D    
C12   C23   S    
O6    Zn2   S    
C25   O8    A    
N2    Zn1   S    
O5    Zn1   S    
C1    O3    A    
C4    C6    A    
C28   H1    S    
C19   H15   S    
C9    C26   A    
C5    C11   S    
C7    C9    A    
H26   N1    S    
C21   C23   S    
C16   H7    S    
C13   H23   S    
C12   O4    A    
C20   H18   S    
C20   H19   S    
C3    C28   A    
C20   C22   S    
N1    Zn2   S    
C2    H12   S    
C15   H4    S    
C19   H16   S    
O2    Zn2   S    
C15   H2    S    
C8    C10   A    
C10   C14   S    
C18   H13   S    
O1    Zn1   S    
C5    C7    A    
C14   H29   S    
C24   O5    A    
C22   C23   D    
C21   H22   S    
C1    C22   S    
C6    C8    A    
C20   H20   S    
C18   H14   S    
C16   H6    S    
H27   N2    S    
C26   C28   A    
C21   H24   S    
C7    C16   S    
C25   O6    A    
C14   H30   S    
C24   C26   S    
O8    Zn1   S    
C3    C5    A    
C24   O7    A    
C1    O1    A    
