data_str_m3_o10_o10_f0_pcu.sym.9
_audit_creation_date              2012-12-10T16:47:20-0500
_audit_creation_method            fapswitch 2.2
_symmetry_space_group_name_H-M    P1
_symmetry_Int_Tables_number       1
_space_group_crystal_system       triclinic
_cell_length_a                    12.096195
_cell_length_b                    12.348837
_cell_length_c                    7.888889
_cell_angle_alpha                 90.48738
_cell_angle_beta                  93.577784
_cell_angle_gamma                 90.460463
_cell_volume                      1176.01186076

loop_
_atom_site_label
_atom_site_type_symbol
_atom_type_description
_atom_site_fract_x
_atom_site_fract_y
_atom_site_fract_z
_atom_type_partial_charge
C1    C     C_R   0.353654 0.852663 0.456536 0.941448
C2    C     C_2   0.709629 0.756821 0.555224 -0.004270
C3    C     C_2   0.741041 0.214331 0.562942 -0.005724
C4    C     C_2   0.258959 0.785668 0.437058 -0.005716
C5    C     C_2   0.790370 0.743178 0.444776 -0.004269
C6    C     C_2   0.209629 0.256821 0.555224 -0.004270
C7    C     C_2   0.241041 0.714331 0.562942 -0.005724
C8    C     C_2   0.758959 0.285668 0.437058 -0.005716
C9    C     C_3   0.825143 0.826602 0.317562 -0.931259
C10   C     C_3   0.174856 0.173397 0.682435 -0.931258
C11   C     C_3   0.327013 0.683189 0.702559 -0.910651
C12   C     C_R   0.646346 0.147337 0.543464 0.941452
C13   C     C_3   0.672984 0.316814 0.297445 -0.910645
C14   C     C_3   0.325143 0.326602 0.317562 -0.931259
C15   C     C_3   0.674856 0.673397 0.682435 -0.931258
C16   C     C_3   0.827013 0.183189 0.702559 -0.910652
C17   C     C_3   0.172984 0.816814 0.297445 -0.910645
C18   C     C_3   0.647473 0.965462 0.004688 -0.515392
C19   C     C_3   0.352527 0.034538 0.995312 -0.515393
C20   C     C_3   0.147473 0.465462 0.004688 -0.515392
C21   C     C_3   0.852527 0.534538 0.995312 -0.515393
C22   C     C_R   0.643675 0.850409 0.542168 0.940584
C23   C     C_R   0.356325 0.149591 0.457831 0.940585
C24   C     C_R   0.853654 0.352663 0.456536 0.941448
C25   C     C_R   0.146346 0.647337 0.543464 0.941452
C26   C     C_R   0.143675 0.350409 0.542168 0.940584
C27   C     C_R   0.856325 0.649590 0.457831 0.940585
C28   C     C_2   0.290370 0.243178 0.444776 -0.004269
H1    H     H_    0.908825 0.811037 0.274052 0.240080
H2    H     H_    0.690716 0.397595 0.244526 0.218916
H3    H     H_    0.671173 0.257070 0.191320 0.275686
H4    H     H_    0.590537 0.322886 0.350059 0.233318
H5    H     H_    0.408825 0.311038 0.274052 0.240080
H6    H     H_    0.268004 0.320452 0.203160 0.257241
H7    H     H_    0.327735 0.409554 0.373404 0.245394
H8    H     H_    0.591173 0.688961 0.725943 0.240078
H9    H     H_    0.672265 0.590445 0.626593 0.245395
H10   H     H_    0.731994 0.679548 0.796839 0.257241
H11   H     H_    0.809282 0.102408 0.755479 0.218917
H12   H     H_    0.768004 0.820452 0.203160 0.257241
H13   H     H_    0.909461 0.177120 0.649952 0.233321
H14   H     H_    0.828819 0.242934 0.808681 0.275688
H15   H     H_    0.190716 0.897596 0.244526 0.218916
H16   H     H_    0.171173 0.757070 0.191320 0.275686
H17   H     H_    0.090537 0.822886 0.350059 0.233318
H18   H     H_    0.710126 0.985369 0.108796 0.180803
H19   H     H_    0.646330 0.876695 0.981959 0.193239
H20   H     H_    0.673324 0.010287 0.894599 0.218674
H21   H     H_    0.289874 0.014631 0.891204 0.180803
H22   H     H_    0.326676 0.989713 0.105401 0.218675
H23   H     H_    0.827735 0.909554 0.373404 0.245394
H24   H     H_    0.353670 0.123305 0.018041 0.193239
H25   H     H_    0.210126 0.485369 0.108796 0.180803
H26   H     H_    0.146330 0.376695 0.981959 0.193239
H27   H     H_    0.173324 0.510287 0.894599 0.218674
H28   H     H_    0.789874 0.514631 0.891204 0.180803
H29   H     H_    0.826676 0.489713 0.105401 0.218675
H30   H     H_    0.853670 0.623305 0.018041 0.193239
H31   H     H_    0.091173 0.188961 0.725943 0.240078
H32   H     H_    0.172265 0.090445 0.626593 0.245395
H33   H     H_    0.231994 0.179548 0.796839 0.257241
H34   H     H_    0.309282 0.602408 0.755479 0.218917
H35   H     H_    0.409461 0.677120 0.649952 0.233321
H36   H     H_    0.328818 0.742934 0.808681 0.275688
N1    N     N_2   0.541470 1.000000 0.055820 0.001103
N2    N     N_2   0.458530 1.000000 0.944180 0.001103
N3    N     N_2   0.041470 0.500000 0.055820 0.001103
N4    N     N_2   0.958530 0.500000 0.944180 0.001103
O1    O     O_R   0.375700 0.885870 0.609240 -0.618605
O2    O     O_R   0.597720 0.114130 0.675960 -0.632176
O3    O     O_R   0.597720 0.885870 0.675960 -0.641893
O4    O     O_R   0.402280 0.114130 0.324040 -0.641893
O5    O     O_R   0.902280 0.385870 0.324040 -0.632176
O6    O     O_R   0.097720 0.614130 0.675960 -0.632176
O7    O     O_R   0.097720 0.385870 0.675960 -0.641893
O8    O     O_R   0.902280 0.614130 0.324040 -0.641893
O9    O     O_R   0.624300 0.114130 0.390760 -0.618605
O10   O     O_R   0.624300 0.885870 0.390760 -0.617806
O11   O     O_R   0.375700 0.114130 0.609240 -0.617806
O12   O     O_R   0.875700 0.385870 0.609240 -0.618605
O13   O     O_R   0.124300 0.614130 0.390760 -0.618605
O14   O     O_R   0.124300 0.385870 0.390760 -0.617806
O15   O     O_R   0.875700 0.614130 0.609240 -0.617806
O16   O     O_R   0.402280 0.885870 0.324040 -0.632176
Zn1   Zn    Zn3+2 0.482250 0.000000 0.690430 0.931277
Zn2   Zn    Zn3+2 0.517750 0.000000 0.309570 0.931277
Zn3   Zn    Zn3+2 0.982250 0.500000 0.690430 0.931277
Zn4   Zn    Zn3+2 0.017750 0.500000 0.309570 0.931277

loop_
_geom_bond_atom_site_label_1
_geom_bond_atom_site_label_2
_ccdc_geom_bond_type
O15   Zn3   S    
C8    C13   S    
C15   H8    S    
C20   N3    S    
C9    H23   S    
C11   H34   S    
C18   H19   S    
C14   H5    S    
N1    Zn2   S    
C15   H10   S    
C1    O16   A    
C7    C11   S    
N3    Zn4   S    
O16   Zn2   S    
O12   Zn3   S    
C11   H35   S    
C4    C7    D    
C24   O5    A    
C19   N2    S    
C25   O6    A    
C15   H9    S    
C3    C12   S    
C13   H4    S    
C5    C27   S    
C19   H24   S    
C24   O12   A    
C6    C28   D    
C2    C22   S    
O6    Zn3   S    
O8    Zn4   S    
C9    H1    S    
O10   Zn2   S    
C26   O14   A    
O3    Zn1   S    
C25   O13   A    
N2    Zn1   S    
C20   H27   S    
C18   H18   S    
N3    N4    D    
C13   H2    S    
C22   O10   A    
C20   H26   S    
C3    C8    D    
C14   H7    S    
C9    H12   S    
C1    O1    A    
C18   N1    S    
C10   H32   S    
C17   H15   S    
O5    Zn4   S    
C21   H29   S    
C19   H21   S    
C12   O9    A    
C26   O7    A    
C23   C28   S    
C2    C15   S    
C4    C17   S    
O7    Zn3   S    
O9    Zn2   S    
C11   H36   S    
C21   N4    S    
C2    C5    D    
C27   O8    A    
C16   H14   S    
C22   O3    A    
O11   Zn1   S    
O1    Zn1   S    
C12   O2    A    
C23   O4    A    
C13   H3    S    
C17   H17   S    
C20   H25   S    
C18   H20   S    
C14   H6    S    
C21   H28   S    
O4    Zn2   S    
C7    C25   S    
C1    C4    S    
C23   O11   A    
C27   O15   A    
C10   H31   S    
C17   H16   S    
C21   H30   S    
C19   H22   S    
C6    C26   S    
O14   Zn4   S    
C8    C24   S    
O13   Zn4   S    
C6    C10   S    
C16   H11   S    
C10   H33   S    
N1    N2    D    
N4    Zn3   S    
C5    C9    S    
C14   C28   S    
O2    Zn1   S    
C16   H13   S    
C3    C16   S    
