data_str_m2_o10_o29_f0_pcu.sym.74
_audit_creation_date              2012-10-26T20:17:41-0400
_audit_creation_method            fapswitch 2.2
_symmetry_space_group_name_H-M    P1
_symmetry_Int_Tables_number       1
_space_group_crystal_system       triclinic
_cell_length_a                    27.813181
_cell_length_b                    8.734988
_cell_length_c                    7.487433
_cell_angle_alpha                 103.25231
_cell_angle_beta                  93.959569
_cell_angle_gamma                 93.637535
_cell_volume                      1760.49151066

loop_
_atom_site_label
_atom_site_type_symbol
_atom_type_description
_atom_site_fract_x
_atom_site_fract_y
_atom_site_fract_z
_atom_type_partial_charge
C1    C     C_R   0.497284 0.200348 0.454468 0.584161
C2    C     C_R   0.868839 0.357243 0.460626 0.026270
C3    C     C_R   0.355194 0.511820 0.510457 0.017985
C4    C     C_R   0.644807 0.488221 0.489551 0.017984
C5    C     C_R   0.970841 0.354218 0.464648 0.019256
C6    C     C_R   0.029161 0.645875 0.535389 0.019256
C7    C     C_R   0.977978 0.645960 0.531684 0.019740
C8    C     C_R   0.022024 0.354133 0.468358 0.019741
C9    C     C_R   0.949161 0.500136 0.496418 0.034335
C10   C     C_R   0.050841 0.499957 0.503621 0.034335
C11   C     C_R   0.940233 0.212827 0.430133 -0.145417
C12   C     C_R   0.502716 0.799651 0.545532 0.584173
C13   C     C_R   0.059769 0.787265 0.569898 -0.145416
C14   C     C_R   0.890399 0.214753 0.429106 -0.111501
C15   C     C_R   0.109603 0.785339 0.570919 -0.111502
C16   C     C_R   0.407831 0.505375 0.503611 0.568492
C17   C     C_R   0.592169 0.494636 0.496391 0.568473
C18   C     C_R   0.045709 0.212683 0.438053 -0.144488
C19   C     C_R   0.954293 0.787410 0.561996 -0.144488
C20   C     C_2   0.488658 0.033879 0.437033 0.018114
C21   C     C_2   0.511342 0.966121 0.562967 0.018109
C22   C     C_R   0.174879 0.359533 0.483595 0.398557
C23   C     C_R   0.102040 0.499882 0.507057 -0.026521
C24   C     C_R   0.825123 0.640558 0.516446 0.398560
C25   C     C_R   0.181517 0.640239 0.539062 0.400599
C26   C     C_R   0.818485 0.359852 0.460957 0.400600
C27   C     C_R   0.283623 0.582846 0.669682 -0.077555
C28   C     C_R   0.716382 0.417268 0.330316 -0.077531
C29   C     C_R   0.334008 0.594559 0.668189 -0.015705
C30   C     C_R   0.665997 0.405536 0.331803 -0.015689
C31   C     C_R   0.325095 0.428719 0.355534 -0.167458
C32   C     C_R   0.674903 0.571301 0.644488 -0.167454
C33   C     C_R   0.275072 0.424438 0.356646 -0.059615
C34   C     C_R   0.897961 0.500210 0.492979 -0.026521
C35   C     C_R   0.724927 0.575606 0.643378 -0.059615
C36   C     C_R   0.254089 0.500400 0.513948 0.224088
C37   C     C_R   0.745913 0.499686 0.486067 0.224093
C38   C     C_2   0.443695 0.375860 0.939920 0.477167
C39   C     C_2   0.556304 0.624146 0.060081 0.477172
C40   C     C_2   0.638087 0.298062 0.170543 0.222161
C41   C     C_2   0.361921 0.702071 0.829429 0.222142
C42   C     C_3   0.448973 0.948952 0.291232 -0.327065
C43   C     C_3   0.551026 0.051048 0.708770 -0.327049
C44   C     C_R   0.124273 0.356873 0.477851 0.025520
C45   C     C_R   0.875728 0.643219 0.522192 0.025518
C46   C     C_R   0.095707 0.214459 0.443458 -0.116221
C47   C     C_R   0.904295 0.785633 0.556593 -0.116222
C48   C     C_R   0.131163 0.642849 0.539401 0.026273
Cu1   Cu    Cu3+1 0.505380 0.517380 0.684380 1.036308
Cu2   Cu    Cu3+1 0.494620 0.482620 0.315620 1.036292
H1    H     H_    0.340296 0.365571 0.233142 0.136010
H2    H     H_    0.131277 0.897000 0.597842 0.175205
H3    H     H_    0.953300 0.097301 0.402808 0.104663
H4    H     H_    0.046702 0.902791 0.597218 0.104660
H5    H     H_    0.026898 0.097237 0.409264 0.102052
H6    H     H_    0.973105 0.902856 0.590792 0.102055
H7    H     H_    0.411506 0.438462 0.931158 0.075966
H8    H     H_    0.588493 0.561550 0.068848 0.075933
H9    H     H_    0.651801 0.281072 0.035693 0.094144
H10   H     H_    0.348190 0.719203 0.964273 0.094172
H11   H     H_    0.427878 0.033409 0.234286 0.154689
H12   H     H_    0.659700 0.634413 0.766890 0.136011
H13   H     H_    0.464830 0.872451 0.174154 0.212463
H14   H     H_    0.422796 0.877947 0.351475 0.137225
H15   H     H_    0.572121 0.966592 0.765716 0.154708
H16   H     H_    0.577203 0.122054 0.648528 0.137233
H17   H     H_    0.535168 0.127549 0.825847 0.212456
H18   H     H_    0.252525 0.361956 0.234790 0.150604
H19   H     H_    0.747472 0.638069 0.765247 0.150595
H20   H     H_    0.111893 0.102770 0.419083 0.161270
H21   H     H_    0.888109 0.897323 0.580972 0.161272
H22   H     H_    0.733061 0.356633 0.210149 0.132999
H23   H     H_    0.266946 0.643513 0.789840 0.133002
H24   H     H_    0.868725 0.103092 0.402176 0.175206
N1    N     N_R   0.202416 0.499930 0.512827 -0.397680
N2    N     N_R   0.797586 0.500161 0.487198 -0.397685
N3    N     N_2   0.486510 0.456430 0.038510 -0.180481
N4    N     N_2   0.513490 0.543570 0.961490 -0.180477
O1    O     O_R   0.503500 0.286120 0.619780 -0.509587
O2    O     O_2   0.803589 0.777086 0.538500 -0.478873
O3    O     O_2   0.790642 0.223202 0.437366 -0.473652
O4    O     O_2   0.209360 0.776888 0.562638 -0.473672
O5    O     O_2   0.441351 0.233137 0.880381 -0.503249
O6    O     O_2   0.558646 0.766869 0.119615 -0.503240
O7    O     O_2   0.601431 0.220059 0.187676 -0.471012
O8    O     O_2   0.398601 0.779947 0.812286 -0.471027
O9    O     O_R   0.496500 0.713880 0.380220 -0.509591
O10   O     O_R   0.494410 0.256780 0.308360 -0.461996
O11   O     O_R   0.505590 0.743220 0.691640 -0.461972
O12   O     O_R   0.434810 0.514700 0.655690 -0.494415
O13   O     O_R   0.565190 0.485300 0.344310 -0.494446
O14   O     O_R   0.425720 0.485350 0.344280 -0.547545
O15   O     O_R   0.574280 0.514650 0.655720 -0.547546
O16   O     O_2   0.196412 0.223005 0.461554 -0.478885

loop_
_geom_bond_atom_site_label_1
_geom_bond_atom_site_label_2
_ccdc_geom_bond_type
C19   H6    S    
C16   O12   A    
C38   O5    D    
C27   C29   A    
C17   O13   A    
Cu1   O12   S    
N3    N4    D    
C41   O8    D    
C24   C45   A    
C14   H24   S    
C35   C37   A    
C39   O6    D    
C5    C11   A    
C11   C14   A    
C19   C47   A    
C33   C36   A    
Cu1   N4    S    
C3    C29   A    
C21   C43   S    
C24   O2    S    
C22   C44   A    
C26   N2    A    
C31   C33   A    
C11   H3    S    
Cu2   O10   S    
C2    C34   A    
C1    O10   A    
C40   H9    S    
C22   O16   S    
C28   H22   S    
C22   N1    A    
C18   C46   A    
C44   C46   A    
C45   C47   A    
C32   C35   A    
C12   O11   A    
Cu1   O11   S    
C24   N2    A    
C39   H8    S    
C12   C21   S    
C8    C18   A    
C23   C44   A    
Cu1   O1    S    
C25   N1    A    
C40   O7    D    
C39   N4    S    
C5    C9    A    
C36   N1    S    
C38   H7    S    
C42   H11   S    
C43   H15   S    
C30   C40   S    
C2    C26   A    
C34   C45   A    
C15   H2    S    
C3    C31   A    
C25   C48   A    
C47   H21   S    
C4    C32   A    
C18   H5    S    
C4    C17   S    
Cu2   O9    S    
Cu2   O14   S    
C37   N2    S    
C16   O14   A    
C26   O3    S    
C7    C19   A    
C13   C15   A    
C25   O4    S    
C1    O1    A    
C17   O15   A    
Cu2   N3    S    
C42   H14   S    
C13   H4    S    
C7    C9    A    
C1    C20   S    
C23   C48   A    
C12   O9    A    
C29   C41   S    
C15   C48   A    
C8    C10   A    
C41   H10   S    
C31   H1    S    
C6    C10   A    
C5    C8    A    
C20   C42   S    
C6    C7    A    
C38   N3    S    
C10   C23   A    
C27   C36   A    
C28   C30   A    
C32   H12   S    
C6    C13   A    
C9    C34   A    
C28   C37   A    
C43   H16   S    
C2    C14   A    
C46   H20   S    
Cu2   O13   S    
C20   C21   D    
C35   H19   S    
C43   H17   S    
Cu1   Cu2   S    
Cu1   O15   S    
C27   H23   S    
C42   H13   S    
C4    C30   A    
C3    C16   S    
C33   H18   S    
