data_str_m9_o2_o25_f0_sra.sym.79
_audit_creation_date              2012-12-11T16:33:29-0500
_audit_creation_method            fapswitch 2.2
_symmetry_space_group_name_H-M    P1
_symmetry_Int_Tables_number       1
_space_group_crystal_system       triclinic
_cell_length_a                    6.948119
_cell_length_b                    18.316818
_cell_length_c                    20.099299
_cell_angle_alpha                 68.320817
_cell_angle_beta                  90.955029
_cell_angle_gamma                 90.875251
_cell_volume                      2376.60707152

loop_
_atom_site_label
_atom_site_type_symbol
_atom_type_description
_atom_site_fract_x
_atom_site_fract_y
_atom_site_fract_z
_atom_type_partial_charge
O1    O     O_R   0.488960 0.443750 0.941980 -0.527228
O2    O     O_R   0.823890 0.406510 0.087590 -0.537707
O3    O     O_R   0.999680 0.556250 0.058020 -0.536210
C1    C     C_R   0.655296 0.383348 0.114891 0.679870
O4    O     O_R   0.818360 0.434410 0.944340 -0.523960
O5    O     O_R   0.994110 0.584350 0.913750 -0.538601
C2    C     C_R   0.648301 0.420344 0.923919 0.719356
O6    O     O_R   0.494530 0.415650 0.086250 -0.538362
O7    O     O_3   0.662590 0.549160 0.990130 -0.373604
V1    V     V_3+5 0.935320 0.490880 0.001830 1.492218
O8    O     O_R   0.324180 0.593490 0.912410 -0.538244
C3    C     C_R   0.154803 0.614959 0.883832 0.692441
O9    O     O_R   0.329720 0.565590 0.055660 -0.538505
C4    C     C_R   0.162642 0.579427 0.076375 0.710464
V2    V     V_3+5 0.435990 0.509120 0.998170 1.475660
O10   O     O_3   0.158850 0.450840 0.009870 -0.356142
C5    C     C_3   0.041659 0.705421 0.310915 0.011847
C6    C     C_3   0.230338 0.680153 0.285945 -0.230927
H1    H     H_    0.309801 0.624910 0.314201 0.131624
C7    C     C_1   0.157919 0.624515 0.122407 -0.160941
C8    C     C_1   0.109102 0.873490 0.379269 -0.114035
C9    C     C_3   0.955172 0.730619 0.234178 -0.229831
C10   C     C_3   0.145284 0.706924 0.209100 0.140103
C11   C     C_3   0.040671 0.814045 0.217631 -0.015991
C12   C     C_3   0.123336 0.788901 0.294411 0.113569
C13   C     C_3   0.229368 0.790595 0.191170 -0.217184
C14   C     C_3   0.310262 0.764483 0.268632 -0.003810
C15   C     C_1   0.153337 0.661704 0.161423 0.022023
C16   C     C_1   0.114823 0.835111 0.341360 0.141440
H2    H     H_    0.307941 0.825903 0.141839 0.128654
H3    H     H_    0.807975 0.716887 0.219559 0.148295
C17   C     C_R   0.058543 0.765263 0.881941 -0.136020
C18   C     C_R   0.015628 0.836875 0.886036 -0.208713
C19   C     C_R   0.016438 0.905278 0.825317 0.041620
C20   C     C_R   0.062319 0.901329 0.758148 -0.088222
C21   C     C_R   0.093247 0.826294 0.751884 -0.007732
C22   C     C_R   0.097194 0.757791 0.815924 0.082005
C23   C     C_R   0.123654 0.817058 0.685120 -0.162755
C24   C     C_R   0.169449 0.742143 0.683586 0.067368
C25   C     C_R   0.174155 0.673761 0.747571 -0.006814
C26   C     C_R   0.141386 0.682748 0.814388 -0.168540
C27   C     C_R   0.210261 0.735017 0.617588 -0.163153
C28   C     C_R   0.259757 0.663955 0.613062 -0.078485
C29   C     C_R   0.260763 0.595133 0.674586 -0.016503
C30   C     C_R   0.208859 0.599100 0.741307 -0.085804
H4    H     H_    0.059095 0.715494 0.932097 0.105591
H5    H     H_    0.983681 0.838807 0.937978 0.113189
H6    H     H_    0.207913 0.785471 0.567856 0.109141
C31   C     C_R   0.590040 0.096386 0.249519 -0.126837
C32   C     C_R   0.581873 0.084426 0.184948 -0.052053
C33   C     C_R   0.595887 0.147920 0.120353 -0.102660
C34   C     C_R   0.617283 0.223922 0.119802 -0.122431
C35   C     C_R   0.625094 0.237930 0.184473 0.066310
C36   C     C_R   0.611668 0.172880 0.250672 0.050993
C37   C     C_R   0.645026 0.315232 0.183956 -0.157600
C38   C     C_R   0.650923 0.327545 0.249654 0.025328
C39   C     C_R   0.640598 0.262655 0.315698 0.031322
C40   C     C_R   0.620073 0.185161 0.316323 -0.157782
C41   C     C_R   0.665141 0.404156 0.250534 -0.130661
C42   C     C_R   0.671101 0.417855 0.314808 -0.029367
C43   C     C_R   0.669584 0.353077 0.380675 -0.056962
C44   C     C_R   0.651871 0.276681 0.380189 -0.112068
H7    H     H_    0.578798 0.045091 0.298361 0.122319
H8    H     H_    0.564536 0.025553 0.185046 0.179583
H9    H     H_    0.589867 0.138277 0.070358 0.141219
H10   H     H_    0.627296 0.271441 0.068220 0.099626
H11   H     H_    0.668140 0.454500 0.200706 0.147117
H12   H     H_    0.649047 0.227776 0.431044 0.137913
O11   O     O_R   0.770540 0.084530 0.414050 -0.536759
O12   O     O_R   0.445710 0.065660 0.555720 -0.523962
O13   O     O_R   0.270420 0.915650 0.586190 -0.540234
C45   C     C_R   0.615350 0.079242 0.576739 0.717816
O14   O     O_R   0.441140 0.093540 0.412470 -0.538607
O15   O     O_R   0.265820 0.943740 0.441930 -0.541171
C46   C     C_R   0.609801 0.116804 0.385271 0.679175
O16   O     O_R   0.775150 0.056440 0.558310 -0.529301
O17   O     O_3   0.602370 0.950960 0.510050 -0.373222
V3    V     V_3+5 0.329450 0.009140 0.498150 1.500364
O18   O     O_R   0.935790 0.934280 0.444060 -0.532055
C47   C     C_R   0.103232 0.919963 0.423976 0.703548
O19   O     O_R   0.940370 0.906390 0.587310 -0.538938
C48   C     C_R   0.109760 0.884850 0.615837 0.689545
V4    V     V_3+5 0.828810 0.990710 0.501460 1.497884
O20   O     O_3   0.105780 0.049100 0.489960 -0.355715
C49   C     C_3   0.673545 0.323654 0.713359 -0.158257
C50   C     C_3   0.498210 0.277523 0.700037 0.036025
H13   H     H_    0.710036 0.385898 0.681359 0.148599
H14   H     H_    0.307094 0.241555 0.804320 0.147000
C51   C     C_1   0.624921 0.123776 0.623094 -0.063773
C52   C     C_1   0.636945 0.374327 0.878889 -0.106418
C53   C     C_3   0.803748 0.251713 0.723208 -0.190960
C54   C     C_3   0.626811 0.206538 0.709515 0.103555
C55   C     C_3   0.758187 0.218473 0.804200 -0.000726
C56   C     C_3   0.629348 0.289482 0.794330 0.132202
C57   C     C_3   0.582991 0.173587 0.790048 -0.080916
C58   C     C_3   0.451939 0.244449 0.780922 -0.247052
C59   C     C_1   0.627409 0.160856 0.662165 0.141291
C60   C     C_1   0.631677 0.336052 0.840862 0.112308
H15   H     H_    0.948628 0.254387 0.699921 0.152956
C61   C     C_2   0.970963 0.979473 0.836033 0.364648
H16   H     H_    0.963632 0.979437 0.889973 0.049482
O21   O     O_2   0.936199 0.040521 0.786017 -0.550995
C62   C     C_1   0.094648 0.975269 0.699380 0.337811
N1    N     N_1   0.120685 0.035054 0.653318 -0.287078
C63   C     C_1   0.310347 0.663853 0.543485 0.320315
N2    N     N_1   0.350992 0.663940 0.487838 -0.338868
C64   C     C_1   0.172449 0.525043 0.799560 0.341900
N3    N     N_1   0.143201 0.465219 0.845166 -0.296412
C65   C     C_2   0.693499 0.363281 0.450498 0.409950
H17   H     H_    0.734790 0.419444 0.452973 0.023467
O22   O     O_2   0.671070 0.308011 0.507002 -0.513841
C66   C     C_2   0.939124 0.654963 0.377258 0.381976
H18   H     H_    0.895203 0.595795 0.383523 0.047886
O23   O     O_2   0.905107 0.679704 0.424431 -0.523911
C67   C     C_2   0.672029 0.500441 0.311302 0.310754
H19   H     H_    0.631401 0.514306 0.357022 0.027411
O24   O     O_2   0.714750 0.554785 0.256226 -0.544423
C68   C     C_2   0.348349 0.312291 0.643082 0.410251
H20   H     H_    0.268844 0.363160 0.642016 0.051172
O25   O     O_2   0.313318 0.283455 0.598309 -0.502616
C69   C     C_1   0.530324 0.091727 0.832142 0.346771
N4    N     N_1   0.488519 0.027206 0.865251 -0.369497
C70   C     C_2   0.906998 0.184001 0.861761 0.347686
H21   H     H_    0.993136 0.135250 0.861628 0.085794
O26   O     O_2   0.933008 0.210576 0.908645 -0.528164
C71   C     C_2   0.507238 0.783247 0.288888 0.379819
H22   H     H_    0.604378 0.736121 0.317581 0.073654
O27   O     O_2   0.557790 0.851437 0.274116 -0.521079
C72   C     C_2   0.936159 0.888308 0.176529 0.441175
H23   H     H_    0.876351 0.896981 0.124003 0.026912
O28   O     O_2   0.918535 0.939305 0.201405 -0.516419
C73   C     C_2   0.313474 0.519488 0.667444 0.323982
H24   H     H_    0.297025 0.512554 0.616329 0.058306
O29   O     O_2   0.381774 0.465124 0.717570 -0.547787

loop_
_geom_bond_atom_site_label_1
_geom_bond_atom_site_label_2
_ccdc_geom_bond_type
C37   C38   A    
H14   C58   S    
C55   C56   S    
C31   H7    S    
O12   V3    S    
C32   H8    S    
C57   C58   S    
C1    O6    A    
C43   C65   S    
C66   O23   D    
O19   C48   A    
C49   C53   S    
C39   C44   A    
C35   C36   A    
C34   C35   A    
C13   C14   S    
C71   H22   S    
C21   C22   A    
C11   C13   S    
C6    H1    S    
C20   C62   S    
C65   O22   D    
O5    C3    A    
C23   C24   A    
C14   C71   S    
C70   O26   D    
C56   C60   S    
C31   C36   A    
C38   C39   A    
C19   C20   A    
C28   C63   S    
C10   C13   S    
C68   H20   S    
C41   H11   S    
O8    V2    S    
C11   C72   S    
C20   C21   A    
C73   H24   S    
C67   O24   D    
C54   C59   S    
C19   C61   S    
C64   N3    T    
O1    V2    S    
O7    V1    S    
C45   O16   A    
O13   C48   A    
C57   C69   S    
C49   H13   S    
C41   C42   A    
C55   C57   S    
O15   C47   A    
O9    C4    A    
C23   C48   S    
O14   C46   A    
O16   V4    S    
C66   H18   S    
O19   V4    S    
C40   C46   S    
C5    C6    S    
C24   C27   A    
C35   C37   A    
C12   C16   S    
C25   C30   A    
C9    H3    S    
C6    C10   S    
C4    C7    S    
C70   H21   S    
C11   C12   S    
C53   C54   S    
O4    C2    A    
C7    C15   T    
O17   V3    S    
C2    C52   S    
C8    C16   T    
C54   C57   S    
C33   C34   A    
C51   C59   T    
C42   C43   A    
O2    C1    A    
C28   C29   A    
C3    C26   S    
O11   V4    S    
V3    O20   S    
C53   C55   S    
C49   C56   S    
V4    O20   S    
O14   V3    S    
C61   O21   D    
C32   C33   A    
C50   C68   S    
C27   H6    S    
C17   C22   A    
C56   C58   S    
C69   N4    T    
O3    C4    A    
C50   C58   S    
C25   C26   A    
C13   H2    S    
O6    V2    S    
O9    V2    S    
C1    C37   S    
C12   C14   S    
C18   H5    S    
C9    C11   S    
C10   C15   S    
C27   C28   A    
O2    V1    S    
C5    C66   S    
C24   C25   A    
C34   H10   S    
C29   C30   A    
C72   H23   S    
C36   C40   A    
C71   O27   D    
O1    C2    A    
C17   H4    S    
C6    C14   S    
C55   C70   S    
C49   C50   S    
O5    V1    S    
O12   C45   A    
O8    C3    A    
C29   C73   S    
C63   N2    T    
C5    C9    S    
C38   C41   A    
C44   H12   S    
C5    C12   S    
C17   C18   A    
C21   C23   A    
O7    V2    S    
O4    V1    S    
O3    V1    S    
C50   C54   S    
C65   H17   S    
O18   V4    S    
C45   C51   S    
C39   C40   A    
V2    O10   S    
C8    C47   S    
C61   H16   S    
C18   C19   A    
O11   C46   A    
C22   C26   A    
C43   C44   A    
C68   O25   D    
C33   H9    S    
O18   C47   A    
C30   C64   S    
C73   O29   D    
C31   C32   A    
O15   V3    S    
C62   N1    T    
O17   V4    S    
C9    C10   S    
C42   C67   S    
V1    O10   S    
C53   H15   S    
C52   C60   T    
O13   V3    S    
C67   H19   S    
C72   O28   D    
