data_str_m3_o10_o28_f0_pcu.sym.122
_audit_creation_date              2012-12-10T16:58:23-0500
_audit_creation_method            fapswitch 2.2
_symmetry_space_group_name_H-M    P1
_symmetry_Int_Tables_number       1
_space_group_crystal_system       triclinic
_cell_length_a                    7.747913
_cell_length_b                    8.566558
_cell_length_c                    23.396437
_cell_angle_alpha                 90.995507
_cell_angle_beta                  85.881718
_cell_angle_gamma                 93.681341
_cell_volume                      1545.55770098

loop_
_atom_site_label
_atom_site_type_symbol
_atom_type_description
_atom_site_fract_x
_atom_site_fract_y
_atom_site_fract_z
_atom_type_partial_charge
C1    C     C_R   0.545877 0.794823 0.498509 0.975107
C2    C     C_R   0.648128 0.502386 0.292321 -0.204365
C3    C     C_R   0.356059 0.495374 0.766787 -0.099232
C4    C     C_R   0.643888 0.504192 0.233207 -0.099246
C5    C     C_R   0.515006 0.494722 0.791324 0.323060
C6    C     C_R   0.484946 0.504984 0.208674 0.323110
C7    C     C_2   0.570107 0.958276 0.497649 -0.371601
C8    C     C_2   0.429893 0.041723 0.502351 -0.371598
C9    C     C_R   0.502259 0.499800 0.610656 0.874625
C10   C     C_R   0.497738 0.500189 0.389344 0.874628
C11   C     C_R   0.444882 0.366682 0.120140 0.505425
C12   C     C_R   0.454123 0.205177 0.501491 0.975097
C13   C     C_R   0.555062 0.633011 0.879860 0.505421
C14   C     C_R   0.523722 0.641452 0.119580 0.505736
C15   C     C_R   0.476222 0.358240 0.880419 0.505730
C16   C     C_R   0.531609 0.642517 0.059802 -0.013605
C17   C     C_R   0.468334 0.357174 0.940197 -0.013602
C18   C     C_R   0.495533 0.500996 0.030079 -0.020396
C19   C     C_R   0.504411 0.498695 0.969920 -0.020395
C20   C     C_R   0.450935 0.361710 0.060373 -0.013365
C21   C     C_R   0.549010 0.637981 0.939627 -0.013360
C22   C     C_R   0.575900 0.780618 0.029246 -0.167243
C23   C     C_R   0.670244 0.495654 0.757060 -0.092743
C24   C     C_R   0.424044 0.219073 0.970753 -0.167241
C25   C     C_R   0.584583 0.778359 0.969622 -0.167212
C26   C     C_R   0.415361 0.221332 0.030378 -0.167212
C27   C     C_R   0.329725 0.504287 0.242942 -0.092780
C28   C     C_R   0.666527 0.497048 0.697819 -0.211358
C29   C     C_R   0.333458 0.502995 0.302184 -0.211356
C30   C     C_R   0.507113 0.498130 0.672805 -0.038917
C31   C     C_R   0.492869 0.501783 0.327194 -0.038927
C32   C     C_R   0.351836 0.497285 0.707673 -0.204387
H1    H     H_    0.604401 0.890543 0.051247 0.195098
H2    H     H_    0.763716 0.504389 0.206336 0.136337
H3    H     H_    0.702504 0.009396 0.493161 0.180906
H4    H     H_    0.297495 0.990603 0.506839 0.180906
H5    H     H_    0.014033 0.382787 0.456829 0.191249
H6    H     H_    0.985967 0.617213 0.543171 0.191249
H7    H     H_    0.619138 0.886675 0.947177 0.194884
H8    H     H_    0.380806 0.113016 0.052823 0.194881
H9    H     H_    0.395542 0.109149 0.948752 0.195098
H10   H     H_    0.793094 0.495352 0.776402 0.135095
H11   H     H_    0.206878 0.504706 0.223603 0.135078
H12   H     H_    0.787913 0.497924 0.671759 0.159125
H13   H     H_    0.212084 0.502306 0.328246 0.159142
H14   H     H_    0.227330 0.497751 0.689396 0.161546
H15   H     H_    0.772632 0.501810 0.310594 0.161544
H16   H     H_    0.236218 0.495007 0.793655 0.136360
N1    N     N_R   0.481959 0.504825 0.148075 -0.364229
N2    N     N_R   0.517985 0.494869 0.851924 -0.364221
N3    N     N_2   0.950330 0.457950 0.484560 -0.175362
N4    N     N_2   0.049670 0.542050 0.515440 -0.175361
O1    O     O_R   0.389250 0.738570 0.503790 -0.610636
O2    O     O_2   0.595572 0.764962 0.849763 -0.529747
O3    O     O_2   0.557968 0.775216 0.149166 -0.528760
O4    O     O_2   0.441980 0.224477 0.850832 -0.528771
O5    O     O_R   0.610750 0.261430 0.496210 -0.610639
O6    O     O_R   0.678390 0.711620 0.493890 -0.628779
O7    O     O_R   0.321610 0.288380 0.506110 -0.628784
O8    O     O_R   0.355400 0.513520 0.588790 -0.620962
O9    O     O_R   0.644600 0.486480 0.411210 -0.620964
O10   O     O_R   0.644550 0.486570 0.578900 -0.629306
O11   O     O_R   0.355450 0.513430 0.421100 -0.629310
O12   O     O_2   0.404367 0.234735 0.150239 -0.529740
Zn1   Zn    Zn3+2 0.306930 0.518000 0.506610 0.949636
Zn2   Zn    Zn3+2 0.693070 0.482000 0.493390 0.949637

loop_
_geom_bond_atom_site_label_1
_geom_bond_atom_site_label_2
_ccdc_geom_bond_type
C2    C4    A    
O11   Zn1   S    
C1    O6    A    
C11   N1    A    
C14   C16   A    
C2    H15   S    
C27   C29   A    
O1    Zn1   S    
C6    C27   A    
C5    C23   A    
O5    Zn2   S    
C8    C12   S    
C9    O8    A    
C32   H14   S    
C15   O4    S    
C11   C20   A    
C28   C30   A    
C14   O3    S    
N3    Zn2   S    
C13   C21   A    
C7    C8    D    
C29   C31   A    
C23   C28   A    
O7    Zn1   S    
C30   C32   A    
C24   H9    S    
C26   H8    S    
C23   H10   S    
C20   C26   A    
C9    C30   S    
C12   O5    A    
O9    Zn2   S    
C4    C6    A    
C13   N2    A    
C17   C19   A    
C24   C26   A    
O8    Zn1   S    
C11   O12   S    
C18   C20   A    
C6    N1    S    
C3    C32   A    
H5    N3    S    
C4    H2    S    
C5    N2    S    
C10   O9    A    
H6    N4    S    
O10   Zn2   S    
C9    O10   A    
C14   N1    A    
C27   H11   S    
C3    H16   S    
N3    N4    D    
C16   C18   A    
C13   O2    S    
C8    H4    S    
C15   N2    A    
C29   H13   S    
C15   C17   A    
C22   H1    S    
C1    O1    A    
C18   C19   A    
C21   C25   A    
C19   C21   A    
C1    C7    S    
C12   O7    A    
C7    H3    S    
C10   C31   S    
C28   H12   S    
C17   C24   A    
C25   H7    S    
N4    Zn1   S    
C10   O11   A    
C16   C22   A    
C2    C31   A    
C3    C5    A    
C22   C25   A    
O6    Zn2   S    
