data_str_m3_o14_o21_f0_pcu.sym.19
_audit_creation_date              2012-12-10T17:47:01-0500
_audit_creation_method            fapswitch 2.2
_symmetry_space_group_name_H-M    P1
_symmetry_Int_Tables_number       1
_space_group_crystal_system       triclinic
_cell_length_a                    9.963655
_cell_length_b                    10.749278
_cell_length_c                    13.550363
_cell_angle_alpha                 94.068086
_cell_angle_beta                  82.509968
_cell_angle_gamma                 88.633894
_cell_volume                      1434.4605081

loop_
_atom_site_label
_atom_site_type_symbol
_atom_type_description
_atom_site_fract_x
_atom_site_fract_y
_atom_site_fract_z
_atom_type_partial_charge
C1    C     C_R   0.501647 0.735592 0.482675 1.007705
C2    C     C_R   0.627868 0.922339 0.435256 0.444390
C3    C     C_R   0.627012 0.051376 0.453411 0.378109
C4    C     C_R   0.475441 0.496230 0.685495 0.955388
C5    C     C_R   0.501511 0.119602 0.482187 -0.290611
C6    C     C_R   0.839297 0.696556 0.612973 0.575138
C7    C     C_R   0.903619 0.809830 0.623844 -0.459145
C8    C     C_R   0.040229 0.807841 0.633829 0.380828
C9    C     C_R   0.112314 0.693526 0.615328 0.497644
C10   C     C_R   0.059794 0.591341 0.559790 -0.103742
C11   C     C_R   0.914796 0.591069 0.560353 -0.111443
C12   C     C_1   0.456975 0.486845 0.789305 -0.215649
C13   C     C_R   0.943652 0.440285 0.425257 0.522892
C14   C     C_R   0.085441 0.428908 0.432151 -0.201093
C15   C     C_R   0.500774 0.257481 0.498626 0.867903
C16   C     C_R   0.524933 0.493794 0.314012 0.857972
C17   C     C_1   0.544480 0.472061 0.209343 -0.185798
C18   C     C_2   0.556267 0.434123 0.015576 0.544094
C19   C     C_2   0.446157 0.477258 0.981326 -0.279509
C20   C     C_1   0.446549 0.480855 0.877192 0.051142
C21   C     C_1   0.555478 0.452171 0.121059 -0.174465
C22   C     C_3   0.691554 0.737247 0.758706 -0.331245
C23   C     C_R   0.268899 0.873213 0.408885 0.554110
C24   C     C_3   0.025959 0.992463 0.738127 -0.319663
C25   C     C_3   0.190799 0.673164 0.763319 -0.281499
C26   C     C_3   0.788885 0.386112 0.976480 0.101903
C27   C     C_3   0.844757 0.506363 0.935152 -0.367640
C28   C     C_3   0.983548 0.533700 0.966223 -1.006028
C29   C     C_3   0.775996 0.777776 0.328734 0.071062
C30   C     C_3   0.675679 0.785602 0.250634 -0.440206
C31   C     C_3   0.739761 0.732136 0.147791 -0.945463
C32   C     C_3   0.313088 0.784597 0.248691 0.043386
C33   C     C_3   0.185430 0.795560 0.197463 -0.363801
C34   C     C_R   0.142138 0.932635 0.433565 -0.203950
C35   C     C_3   0.220144 0.816395 0.086953 -0.965715
C36   C     C_3   0.807736 0.156361 0.377622 0.172347
C37   C     C_3   0.870665 0.063782 0.292682 -0.428481
C38   C     C_3   0.960173 0.127686 0.212574 -0.937723
C39   C     C_3   0.961716 0.455714 0.256179 -0.379566
C40   C     C_R   0.129732 0.048549 0.486452 -0.178603
C41   C     C_R   0.244961 0.108604 0.510450 -0.075967
C42   C     C_R   0.376897 0.055242 0.478469 0.000438
C43   C     C_R   0.384035 0.928842 0.443070 -0.080879
C44   C     C_R   0.504749 0.861421 0.448020 -0.344539
H1    H     H_    0.362069 0.522917 0.030992 0.116797
H2    H     H_    0.962625 0.941067 0.794653 0.141948
H3    H     H_    0.962354 0.054924 0.700009 0.175896
H4    H     H_    0.092654 0.052713 0.778803 0.191227
H5    H     H_    0.153840 0.578222 0.776404 0.160961
H6    H     H_    0.113805 0.744536 0.799319 0.148397
H7    H     H_    0.281555 0.687689 0.801490 0.180672
H8    H     H_    0.855561 0.306759 0.940714 0.157546
H9    H     H_    0.794074 0.384569 0.057681 0.127640
H10   H     H_    0.853515 0.497185 0.852306 0.229400
H11   H     H_    0.773792 0.586118 0.962371 0.218894
H12   H     H_    0.842618 0.894975 0.641118 0.210071
H13   H     H_    0.979381 0.538995 0.048480 0.264957
H14   H     H_    0.016244 0.625253 0.940710 0.259624
H15   H     H_    0.059246 0.460034 0.932664 0.269502
H16   H     H_    0.783380 0.680369 0.349073 0.204373
H17   H     H_    0.879163 0.795090 0.292011 0.139287
H18   H     H_    0.586287 0.730693 0.273772 0.202001
H19   H     H_    0.638628 0.882064 0.243729 0.200615
H20   H     H_    0.663502 0.734461 0.094990 0.256375
H21   H     H_    0.774769 0.634125 0.151510 0.273424
H22   H     H_    0.827116 0.788059 0.119761 0.269415
H23   H     H_    0.150849 0.369926 0.377087 0.147867
H24   H     H_    0.375146 0.703351 0.211272 0.172318
H25   H     H_    0.376051 0.868305 0.237332 0.118940
H26   H     H_    0.127694 0.708953 0.204967 0.218756
H27   H     H_    0.120415 0.875331 0.233534 0.214477
H28   H     H_    0.273502 0.905256 0.077913 0.269011
H29   H     H_    0.125478 0.821740 0.052085 0.259563
H30   H     H_    0.285496 0.738294 0.047835 0.260597
H31   H     H_    0.893029 0.208081 0.401905 0.201400
H32   H     H_    0.735194 0.220258 0.348616 0.176973
H33   H     H_    0.933564 0.994117 0.322748 0.245117
H34   H     H_    0.052918 0.885282 0.415834 0.157218
H35   H     H_    0.789631 0.018937 0.256781 0.221514
H36   H     H_    0.900231 0.199612 0.180710 0.278028
H37   H     H_    0.001472 0.057408 0.151470 0.261980
H38   H     H_    0.046409 0.171504 0.244446 0.271246
H39   H     H_    0.059870 0.405428 0.229763 0.174061
H40   H     H_    0.898845 0.447026 0.194864 0.189908
H41   H     H_    0.977607 0.556820 0.272239 0.151246
H42   H     H_    0.030301 0.090944 0.510929 0.178813
H43   H     H_    0.225937 0.192466 0.559163 0.171654
H44   H     H_    0.682798 0.840755 0.765628 0.166993
H45   H     H_    0.775196 0.703996 0.798324 0.134986
H46   H     H_    0.595692 0.703923 0.797072 0.184760
N1    N     N_R   0.857120 0.501200 0.500900 -0.125982
N2    N     N_R   0.142720 0.501280 0.500940 -0.088277
O1    O     O_R   0.385310 0.683220 0.500000 -0.526860
O2    O     O_3   0.108455 0.911129 0.667643 -0.552773
O3    O     O_3   0.227576 0.683906 0.659716 -0.524019
O4    O     O_3   0.657361 0.366402 0.950940 -0.630695
O5    O     O_3   0.752656 0.858290 0.418547 -0.621641
O6    O     O_3   0.279218 0.761418 0.350507 -0.641931
O7    O     O_3   0.750503 0.102344 0.464880 -0.631096
O8    O     O_3   0.892292 0.401076 0.338807 -0.625867
O9    O     O_R   0.614640 0.683250 0.500010 -0.556108
O10   O     O_R   0.368830 0.499960 0.640340 -0.570301
O11   O     O_R   0.598160 0.499980 0.640350 -0.545165
O12   O     O_R   0.385360 0.316750 0.499990 -0.647341
O13   O     O_R   0.614690 0.316780 0.500000 -0.588272
O14   O     O_R   0.401840 0.500020 0.359650 -0.595036
O15   O     O_R   0.631170 0.500040 0.359660 -0.603567
O16   O     O_3   0.707149 0.690970 0.657097 -0.531644
Zn1   Zn    Zn3+2 0.346870 0.499980 0.499990 1.002764
Zn2   Zn    Zn3+2 0.653130 0.500020 0.500010 1.023330

loop_
_geom_bond_atom_site_label_1
_geom_bond_atom_site_label_2
_ccdc_geom_bond_type
C31   H22   S    
O13   Zn2   S    
C35   H30   S    
C18   C21   S    
C18   O4    S    
C41   C42   A    
C19   C20   S    
C5    C42   A    
C27   H10   S    
C7    C8    A    
C28   H13   S    
C37   H35   S    
C26   C27   S    
C29   C30   S    
O11   Zn2   S    
C34   C40   A    
N1    Zn2   S    
C36   C37   S    
C39   H40   S    
C24   O2    S    
O12   Zn1   S    
C27   H11   S    
N2    Zn1   S    
C4    O11   A    
C23   C43   A    
C18   C19   D    
C40   H42   S    
C25   H6    S    
C36   H32   S    
C16   O15   A    
C2    O5    S    
C2    C44   A    
C8    C9    A    
C4    O10   A    
C14   H23   S    
C22   H44   S    
C15   O12   A    
C4    C12   S    
C9    C10   A    
C9    O3    S    
C11   N1    A    
C16   O14   A    
C32   H24   S    
C10   N2    A    
C13   C14   A    
C38   H38   S    
C7    H12   S    
C26   O4    S    
C41   H43   S    
C29   H17   S    
C24   H4    S    
C8    O2    S    
C6    C11   A    
C16   C17   S    
O9    Zn2   S    
C37   H33   S    
C17   C21   T    
C43   C44   A    
C25   H7    S    
C37   C38   S    
C36   H31   S    
C26   H8    S    
C1    C44   S    
C29   H16   S    
C23   C34   A    
C12   C20   T    
C22   H46   S    
C14   N2    A    
C6    C7    A    
C33   H26   S    
C40   C41   A    
C35   H28   S    
C25   O3    S    
C30   H18   S    
C38   H37   S    
O15   Zn2   S    
C42   C43   A    
C39   H41   S    
C26   H9    S    
C1    O9    A    
C28   H15   S    
C31   H21   S    
C35   H29   S    
C24   H3    S    
C31   H20   S    
C3    C5    A    
C19   H1    S    
C32   H25   S    
C28   H14   S    
C29   O5    S    
C24   H2    S    
C32   C33   S    
C15   O13   A    
C13   O8    S    
C2    C3    A    
C39   H39   S    
C34   H34   S    
C39   O8    S    
C30   C31   S    
C38   H36   S    
C22   O16   S    
C33   C35   S    
C22   H45   S    
C32   O6    S    
C36   O7    S    
C25   H5    S    
C5    C15   S    
C10   C11   A    
C33   H27   S    
C3    O7    S    
C23   O6    S    
C1    O1    A    
C27   C28   S    
C6    O16   S    
O10   Zn1   S    
C30   H19   S    
C13   N1    A    
O1    Zn1   S    
O14   Zn1   S    
