data_str_m3_o4_o9_f0_pcu.sym.186
_audit_creation_date              2012-12-10T20:45:31-0500
_audit_creation_method            fapswitch 2.2
_symmetry_space_group_name_H-M    P1
_symmetry_Int_Tables_number       1
_space_group_crystal_system       triclinic
_cell_length_a                    10.69839
_cell_length_b                    10.667671
_cell_length_c                    9.842685
_cell_angle_alpha                 89.77696
_cell_angle_beta                  90.05254
_cell_angle_gamma                 90.186475
_cell_volume                      1123.30025366

loop_
_atom_site_label
_atom_site_type_symbol
_atom_type_description
_atom_site_fract_x
_atom_site_fract_y
_atom_site_fract_z
_atom_type_partial_charge
C1    C     C_R   0.503643 0.259859 0.500201 0.876728
C2    C     C_R   0.234515 0.788796 0.079822 -0.114029
C3    C     C_R   0.932828 0.558623 0.395168 -0.254405
C4    C     C_R   0.872478 0.495977 0.501394 -0.075514
C5    C     C_R   0.939185 0.440965 0.609576 -0.006741
C6    C     C_R   0.067242 0.447556 0.606702 -0.262720
C7    C     C_R   0.127749 0.509218 0.500026 -0.081929
C8    C     C_R   0.061168 0.568622 0.394305 -0.001510
C9    C     C_R   0.884679 0.431031 0.856227 -0.146907
C10   C     C_R   0.825864 0.372660 0.966511 -0.135842
C11   C     C_R   0.762923 0.258959 0.948416 -0.123006
C12   C     C_R   0.260208 0.504504 0.499792 0.872132
C13   C     C_R   0.758869 0.203408 0.820087 -0.127933
C14   C     C_R   0.816205 0.262204 0.709036 -0.119415
C15   C     C_R   0.879368 0.376613 0.726546 0.144249
C16   C     C_R   0.517853 0.063104 0.623391 0.124866
C17   C     C_R   0.523358 0.128506 0.501089 -0.101324
C18   C     C_R   0.553288 0.065455 0.380584 -0.240363
C19   C     C_R   0.554112 0.935729 0.380478 -0.248158
C20   C     C_R   0.524658 0.871326 0.500757 -0.098667
C21   C     C_R   0.518941 0.935444 0.623355 0.132860
C22   C     C_3   0.425444 0.926602 0.735799 -0.493250
C23   C     C_R   0.504384 0.740039 0.499823 0.868442
C24   C     C_3   0.424012 0.068634 0.735544 -0.499888
C25   C     C_R   0.450000 0.401249 0.071808 0.206427
C26   C     C_R   0.560161 0.591189 0.071722 -0.131949
C27   C     C_R   0.560479 0.590995 0.927598 -0.123181
C28   C     C_R   0.448220 0.402308 0.929066 0.236635
C29   C     C_3   0.314512 0.362025 0.925980 -0.531779
C30   C     C_3   0.318400 0.356350 0.079926 -0.498844
C31   C     C_R   0.739911 0.496852 0.500394 0.866288
C32   C     C_R   0.256928 0.817136 0.216189 -0.121807
C33   C     C_R   0.200409 0.745977 0.318909 -0.091176
C34   C     C_R   0.121035 0.645299 0.285682 0.134800
C35   C     C_R   0.096544 0.619603 0.148155 -0.193088
C36   C     C_R   0.154124 0.690312 0.045813 -0.137252
H1    H     H_    0.278829 0.843628 0.000556 0.125661
H2    H     H_    0.717504 0.213778 0.033868 0.117047
H3    H     H_    0.711470 0.114628 0.806929 0.127888
H4    H     H_    0.811462 0.218895 0.609802 0.107421
H5    H     H_    0.567534 0.115162 0.285613 0.165253
H6    H     H_    0.335336 0.884013 0.703002 0.200562
H7    H     H_    0.333174 0.108665 0.701974 0.199927
H8    H     H_    0.463954 0.109790 0.829721 0.199682
H9    H     H_    0.606689 0.666010 0.125930 0.136784
H10   H     H_    0.607502 0.665515 0.872868 0.142573
H11   H     H_    0.251735 0.436709 0.886719 0.214524
H12   H     H_    0.301133 0.268824 0.878628 0.197615
H13   H     H_    0.255561 0.424509 0.129633 0.235998
H14   H     H_    0.312292 0.259270 0.120914 0.195777
H15   H     H_    0.218541 0.769177 0.424161 0.091690
H16   H     H_    0.035128 0.543022 0.120275 0.124903
H17   H     H_    0.136524 0.668619 0.940147 0.127980
H18   H     H_    0.879430 0.604745 0.315689 0.156077
H19   H     H_    0.119903 0.401463 0.686657 0.156706
H20   H     H_    0.828839 0.415643 0.065922 0.133326
N1    N     N_R   0.499160 0.499140 0.142800 -0.100525
N2    N     N_R   0.499160 0.499180 0.857150 -0.100833
O1    O     O_R   0.500020 0.316790 0.614690 -0.610325
O2    O     O_R   0.500000 0.316760 0.385350 -0.626335
O3    O     O_R   0.316770 0.500030 0.614670 -0.627573
O4    O     O_R   0.316750 0.499990 0.385330 -0.607764
O5    O     O_R   0.500000 0.683240 0.614650 -0.623034
O6    O     O_R   0.499980 0.683210 0.385310 -0.622819
O7    O     O_R   0.683250 0.500010 0.614670 -0.607246
O8    O     O_R   0.683230 0.499970 0.385330 -0.631361
Zn1   Zn    Zn3+2 0.500010 0.500020 0.653130 0.948873
Zn2   Zn    Zn3+2 0.499990 0.499980 0.346870 0.942314
H21   H     H_    0.568664 0.886948 0.285481 0.162738
H22   H     H_    0.466448 0.885891 0.829892 0.195400
H23   H     H_    0.317947 0.894430 0.242274 0.132134
H24   H     H_    0.932795 0.519391 0.871259 0.116212

loop_
_geom_bond_atom_site_label_1
_geom_bond_atom_site_label_2
_ccdc_geom_bond_type
C31   O8    A    
O8    Zn2   S    
C9    H24   S    
C16   C21   A    
C28   N2    A    
C33   H15   S    
C10   H20   S    
C9    C10   A    
O3    Zn1   S    
C1    C17   S    
C19   C20   A    
C20   C23   S    
O4    Zn2   S    
C6    H19   S    
C32   C33   A    
C23   O5    A    
C33   C34   A    
C9    C15   A    
C7    C8    A    
C16   C24   S    
C22   H6    S    
C21   C22   S    
C25   C28   A    
C18   C19   A    
C12   O3    A    
C11   C13   A    
C2    H1    S    
C26   C27   A    
C29   C30   S    
C27   N2    A    
C25   N1    A    
C24   H7    S    
C29   H11   S    
O6    Zn2   S    
C27   H10   S    
C28   C29   S    
C3    H18   S    
C30   H13   S    
C17   C18   A    
C6    C7    A    
O5    Zn1   S    
C1    O1    A    
C3    C8    A    
C30   H14   S    
C5    C6    A    
C24   H8    S    
C26   N1    A    
C22   C24   S    
C7    C12   S    
C13   H3    S    
C4    C31   S    
C5    C15   S    
C10   C11   A    
N1    Zn2   S    
C14   H4    S    
C3    C4    A    
C32   H23   S    
N2    Zn1   S    
C35   H16   S    
C12   O4    A    
C20   C21   A    
O2    Zn2   S    
C2    C32   A    
C34   C35   A    
C1    O2    A    
C2    C36   A    
C25   C30   S    
C31   O7    A    
C19   H21   S    
C14   C15   A    
C23   O6    A    
C11   H2    S    
C8    C34   S    
C36   H17   S    
C29   H12   S    
C26   H9    S    
O1    Zn1   S    
C13   C14   A    
C22   H22   S    
C18   H5    S    
C16   C17   A    
C4    C5    A    
O7    Zn1   S    
C35   C36   A    
