data_str_m2_o16_o16_f0_pcu.sym.111
_audit_creation_date              2012-12-10T17:31:17-0500
_audit_creation_method            fapswitch 2.2
_symmetry_space_group_name_H-M    P1
_symmetry_Int_Tables_number       1
_space_group_crystal_system       triclinic
_cell_length_a                    18.916348
_cell_length_b                    18.602128
_cell_length_c                    12.431433
_cell_angle_alpha                 90.186003
_cell_angle_beta                  130.073512
_cell_angle_gamma                 89.847799
_cell_volume                      3347.37609839

loop_
_atom_site_label
_atom_site_type_symbol
_atom_type_description
_atom_site_fract_x
_atom_site_fract_y
_atom_site_fract_z
_atom_type_partial_charge
C1    C     C_R   0.608920 0.895864 0.648393 0.804048
C2    C     C_R   0.610676 0.102920 0.650879 0.802507
C3    C     C_R   0.108919 0.395864 0.648392 0.804034
C4    C     C_R   0.110702 0.602902 0.650912 0.802474
C5    C     C_R   0.237446 0.781176 0.029109 0.071504
C6    C     C_R   0.234897 0.217855 0.026351 0.068804
C7    C     C_R   0.737383 0.281214 0.029035 0.071489
C8    C     C_R   0.734900 0.717857 0.026352 0.068811
C9    C     C_R   0.656209 0.276872 0.013189 0.169482
C10   C     C_R   0.658142 0.728417 0.020398 0.167192
C11   C     C_R   0.156182 0.776967 0.013040 0.169435
C12   C     C_R   0.158137 0.228411 0.020392 0.167203
C13   C     C_R   0.578389 0.242011 0.896827 -0.251978
C14   C     C_R   0.580871 0.765453 0.907853 -0.247289
C15   C     C_R   0.078354 0.742151 0.896599 -0.251894
C16   C     C_R   0.080864 0.265446 0.907844 -0.247278
C17   C     C_R   0.581736 0.207909 0.800774 -0.227873
C18   C     C_R   0.580836 0.795732 0.805986 -0.197696
C19   C     C_R   0.081764 0.707979 0.800663 -0.227824
C20   C     C_R   0.080832 0.295730 0.805983 -0.197726
C21   C     C_R   0.314434 0.816224 0.147827 -0.253423
C22   C     C_R   0.311514 0.180623 0.141583 -0.257021
C23   C     C_R   0.814369 0.316300 0.147681 -0.253462
C24   C     C_R   0.811515 0.680623 0.141583 -0.257021
C25   C     C_R   0.229232 0.847048 0.225496 -0.196791
C26   C     C_R   0.234081 0.160407 0.235523 -0.201085
C27   C     C_R   0.729334 0.346899 0.225727 -0.196835
C28   C     C_R   0.734086 0.660413 0.235529 -0.201065
C29   C     C_R   0.672717 0.163902 0.734148 -0.116977
C30   C     C_R   0.666667 0.831708 0.725782 -0.128095
C31   C     C_R   0.172830 0.663821 0.734296 -0.116918
C32   C     C_R   0.166667 0.331706 0.725780 -0.128095
C33   C     C_R   0.677006 0.957390 0.284672 -0.335106
C34   C     C_R   0.176992 0.457367 0.284656 -0.335078
C35   C     C_R   0.343066 0.012432 0.625219 0.064761
C36   C     C_R   0.843066 0.512434 0.625217 0.064751
C37   C     C_R   0.307366 0.017261 0.694066 -0.255557
C38   C     C_R   0.807364 0.517265 0.694061 -0.255556
C39   C     C_R   0.383966 0.098951 0.342401 0.779290
C40   C     C_R   0.383866 0.901347 0.342221 0.778522
C41   C     C_R   0.883966 0.598952 0.342402 0.779315
C42   C     C_R   0.883869 0.401342 0.342224 0.778538
C43   C     C_R   0.364886 0.008997 0.839369 -0.171853
C44   C     C_R   0.864882 0.509000 0.839365 -0.171886
C45   C     C_R   0.459511 0.994431 0.918751 -0.032955
C46   C     C_R   0.959506 0.494429 0.918746 -0.032962
C47   C     C_R   0.494590 0.989973 0.844545 0.197331
C48   C     C_R   0.994586 0.489971 0.844543 0.197332
C49   C     C_R   0.521500 0.986543 0.069877 -0.039750
C50   C     C_R   0.021493 0.486539 0.069871 -0.039761
C51   C     C_R   0.611526 0.961075 0.138360 0.071244
C52   C     C_R   0.111513 0.461059 0.138347 0.071237
C53   C     C_R   0.640302 0.946581 0.063048 -0.275906
C54   C     C_R   0.140289 0.446564 0.063033 -0.275906
C55   C     C_R   0.591542 0.974444 0.928154 0.261374
C56   C     C_R   0.091535 0.474437 0.928148 0.261380
C57   C     C_R   0.499727 0.002901 0.157916 -0.036165
C58   C     C_R   0.999725 0.502903 0.157915 -0.036182
C59   C     C_R   0.654853 0.981406 0.365584 0.470163
C60   C     C_R   0.154850 0.481397 0.365576 0.470199
C61   C     C_R   0.653262 0.308895 0.112627 -0.196840
C62   C     C_R   0.658771 0.700369 0.125712 -0.194288
C63   C     C_R   0.153153 0.809079 0.112331 -0.196839
C64   C     C_R   0.158766 0.200361 0.125704 -0.194277
C65   C     C_R   0.309381 0.851835 0.241421 -0.044291
C66   C     C_R   0.310071 0.149402 0.242197 -0.045440
C67   C     C_R   0.809395 0.351816 0.241436 -0.044323
C68   C     C_R   0.810072 0.649404 0.242198 -0.045463
C69   C     C_R   0.747175 0.175857 0.737421 -0.189183
C70   C     C_R   0.735643 0.813493 0.718832 -0.184067
C71   C     C_R   0.247403 0.675641 0.737801 -0.189180
C72   C     C_R   0.235636 0.313487 0.718825 -0.184037
C73   C     C_R   0.315851 0.724668 0.830834 -0.152834
C74   C     C_R   0.300963 0.261393 0.806686 -0.149146
C75   C     C_R   0.815541 0.224972 0.830302 -0.152809
C76   C     C_R   0.800969 0.761398 0.806692 -0.149158
C77   C     C_R   0.313572 0.760231 0.926848 -0.183432
C78   C     C_R   0.301716 0.229159 0.908014 -0.186195
C79   C     C_R   0.813313 0.260480 0.926413 -0.183469
C80   C     C_R   0.801719 0.729162 0.908017 -0.186165
C81   C     C_R   0.739437 0.249613 0.927033 0.087332
C82   C     C_R   0.733274 0.745957 0.918554 0.077536
C83   C     C_R   0.239575 0.749504 0.927232 0.087344
C84   C     C_R   0.233271 0.245956 0.918553 0.077548
C85   C     C_R   0.663961 0.206388 0.820048 0.077806
C86   C     C_R   0.659483 0.791787 0.815885 0.070754
C87   C     C_R   0.164053 0.706351 0.820127 0.077755
C88   C     C_R   0.159480 0.291787 0.815885 0.070769
Cu1   Cu    Cu3+1 0.526340 0.000000 0.421010 0.953851
Cu2   Cu    Cu3+1 0.026340 0.500000 0.421010 0.953854
Cu3   Cu    Cu3+1 0.473640 0.000000 0.578990 0.936213
Cu4   Cu    Cu3+1 0.973640 0.500000 0.578990 0.936223
H1    H     H_    0.224203 0.874703 0.297156 0.149754
H2    H     H_    0.231691 0.136474 0.312438 0.145530
H3    H     H_    0.724365 0.374471 0.297519 0.149802
H4    H     H_    0.731695 0.636482 0.312446 0.145532
H5    H     H_    0.710914 0.928724 0.121221 0.166436
H6    H     H_    0.210897 0.428699 0.121201 0.166436
H7    H     H_    0.747086 0.939887 0.336680 0.141017
H8    H     H_    0.247066 0.439850 0.336656 0.141014
H9    H     H_    0.430585 0.017717 0.113659 0.133216
H10   H     H_    0.930585 0.517725 0.113661 0.133208
H11   H     H_    0.297209 0.019159 0.512411 0.121253
H12   H     H_    0.797210 0.519163 0.512410 0.121268
H13   H     H_    0.333483 0.012759 0.887163 0.136977
H14   H     H_    0.833479 0.512762 0.887158 0.136971
H15   H     H_    0.234437 0.027637 0.634210 0.144086
H16   H     H_    0.734435 0.527644 0.634204 0.144089
H17   H     H_    0.514721 0.240773 0.880248 0.139016
H18   H     H_    0.520281 0.771504 0.898848 0.137559
H19   H     H_    0.014629 0.741008 0.879859 0.138995
H20   H     H_    0.020271 0.271489 0.898834 0.137548
H21   H     H_    0.591305 0.306175 0.100718 0.134028
H22   H     H_    0.600077 0.707935 0.121218 0.132738
H23   H     H_    0.091126 0.806464 0.100247 0.134032
H24   H     H_    0.100069 0.207924 0.121207 0.132775
H25   H     H_    0.379600 0.817183 0.169851 0.147862
H26   H     H_    0.373663 0.175048 0.155550 0.149599
H27   H     H_    0.879477 0.317348 0.169530 0.147945
H28   H     H_    0.873663 0.675044 0.155545 0.149608
H29   H     H_    0.753521 0.146336 0.669470 0.164194
H30   H     H_    0.740067 0.839998 0.646367 0.141813
H31   H     H_    0.253781 0.646068 0.669934 0.164253
H32   H     H_    0.240057 0.339988 0.646353 0.141806
H33   H     H_    0.369210 0.797432 0.996186 0.129099
H34   H     H_    0.354881 0.189538 0.973205 0.126538
H35   H     H_    0.868882 0.297754 0.995629 0.129119
H36   H     H_    0.854886 0.689542 0.973207 0.126555
H37   H     H_    0.372503 0.733615 0.831226 0.132180
H38   H     H_    0.353126 0.247371 0.798950 0.132150
H39   H     H_    0.872093 0.234033 0.830499 0.132205
H40   H     H_    0.853135 0.747380 0.798962 0.132141
H41   H     H_    0.518060 0.184651 0.709416 0.178159
H42   H     H_    0.517034 0.820223 0.717550 0.176126
H43   H     H_    0.018092 0.684752 0.709243 0.178071
H44   H     H_    0.017031 0.320221 0.717547 0.176107
N1    N     N_R   0.566260 0.000000 0.302220 -0.192620
N2    N     N_R   0.066260 0.500000 0.302220 -0.192614
N3    N     N_R   0.434410 0.000000 0.697680 -0.197641
N4    N     N_R   0.934410 0.500000 0.697680 -0.197634
O1    O     O_R   0.608610 0.924520 0.551740 -0.567130
O2    O     O_R   0.608610 0.075480 0.551740 -0.546607
O3    O     O_R   0.108610 0.424520 0.551740 -0.567154
O4    O     O_R   0.108610 0.575480 0.551740 -0.546613
O5    O     O_R   0.564110 0.924510 0.685150 -0.551890
O6    O     O_R   0.564110 0.075490 0.685150 -0.566621
O7    O     O_R   0.064110 0.424510 0.685150 -0.551904
O8    O     O_R   0.064110 0.575490 0.685150 -0.566590
O9    O     O_R   0.435880 0.075470 0.314850 -0.589203
O10   O     O_R   0.435880 0.924530 0.314850 -0.584868
O11   O     O_R   0.935880 0.575470 0.314850 -0.589189
O12   O     O_R   0.935880 0.424530 0.314850 -0.584902
O13   O     O_R   0.391380 0.075460 0.448260 -0.601736
O14   O     O_R   0.391380 0.924540 0.448260 -0.596831
O15   O     O_R   0.891380 0.575460 0.448260 -0.601714
O16   O     O_R   0.891380 0.424540 0.448260 -0.596846
N5    N     N_2   0.646544 0.010994 0.905143 -0.350426
H45   H     H_    0.652276 0.064785 0.930287 0.256477
C89   C     C_3   0.735178 0.981521 0.959128 -0.669691
H46   H     H_    0.752926 0.002047 0.895373 0.223727
H47   H     H_    0.733148 0.922042 0.953692 0.231387
H48   H     H_    0.790160 0.998730 0.069881 0.198443
N6    N     N_2   0.146540 0.510993 0.905149 -0.350435
H49   H     H_    0.152261 0.564785 0.930284 0.256471
C90   C     C_3   0.235179 0.481528 0.959147 -0.669682
H50   H     H_    0.252939 0.502066 0.895416 0.223727
H51   H     H_    0.233151 0.422049 0.953690 0.231382
H52   H     H_    0.290152 0.498728 0.069909 0.198459
N7    N     N_2   0.724469 0.985331 0.513780 -0.378998
H53   H     H_    0.755526 0.936310 0.556854 0.225122
C91   C     C_3   0.793439 0.039891 0.561041 -0.733030
H54   H     H_    0.837812 0.024163 0.535355 0.213422
H55   H     H_    0.838140 0.046020 0.676839 0.228002
H56   H     H_    0.759997 0.092249 0.510112 0.232847
N8    N     N_2   0.224475 0.485319 0.513771 -0.379018
H57   H     H_    0.255497 0.436287 0.556835 0.225157
C92   C     C_3   0.293488 0.539837 0.561019 -0.733195
H58   H     H_    0.337788 0.524097 0.535204 0.213460
H59   H     H_    0.338261 0.545917 0.676837 0.227958
H60   H     H_    0.260086 0.592221 0.510199 0.232923

loop_
_geom_bond_atom_site_label_1
_geom_bond_atom_site_label_2
_ccdc_geom_bond_type
C26   H2    S    
C83   C87   A    
C91   H54   S    
C3    O7    A    
N5    H45   S    
C64   H24   S    
Cu4   O8    S    
N7    H53   S    
C14   C18   A    
C27   H3    S    
N6    H49   S    
C25   C63   A    
N8    C92   S    
C25   H1    S    
C91   H55   S    
C56   N6    S    
C90   H50   S    
C39   O13   A    
C2    C29   S    
C9    C61   A    
C71   H31   S    
C1    O1    A    
N6    C90   S    
C37   H15   S    
C35   H11   S    
C62   H22   S    
C6    C12   A    
C5    C83   A    
Cu1   O1    S    
C59   N1    A    
C19   H43   S    
Cu1   O2    S    
C6    C22   A    
C49   C57   A    
C7    C9    A    
C43   H13   S    
C45   C47   A    
C23   C67   A    
Cu3   O13   S    
C9    C13   A    
C22   C66   A    
C13   H17   S    
C27   C61   A    
C35   N3    A    
C15   C19   A    
C11   C15   A    
C3    O3    A    
C12   C16   A    
C44   C46   A    
C49   C51   A    
C50   C52   A    
C89   H47   S    
C44   H14   S    
C69   C75   A    
C58   H10   S    
C69   H29   S    
C30   C86   A    
C42   O12   A    
C29   C85   A    
Cu2   O3    S    
C48   C56   A    
C4    C31   S    
C63   H23   S    
C58   N2    A    
C31   C71   A    
C33   C59   A    
C72   H32   S    
Cu4   O7    S    
C34   C60   A    
N7    C91   S    
C40   O14   A    
C10   C62   A    
C17   C85   A    
C21   C65   A    
C30   C70   A    
C75   H39   S    
C46   C50   A    
C41   C68   S    
C73   H37   S    
C53   C55   A    
Cu2   Cu4   S    
C91   H56   S    
C54   C56   A    
C24   H28   S    
C6    C84   A    
C48   N4    A    
C57   N1    A    
C26   C66   A    
C15   H19   S    
C25   C65   A    
Cu3   O14   S    
Cu2   O12   S    
C10   C14   A    
C79   C81   A    
C78   H34   S    
C80   H36   S    
C53   H5    S    
C82   C86   A    
C32   C88   A    
C33   H7    S    
C50   C58   A    
Cu2   N2    S    
C42   O16   A    
C38   C44   A    
C36   N4    A    
C70   H30   S    
C34   H8    S    
C89   H46   S    
C45   C49   A    
C41   O15   A    
C16   C20   A    
C92   H60   S    
C89   H48   S    
C40   O10   A    
Cu4   O16   S    
C18   C86   A    
C20   H44   S    
C33   C51   A    
C43   C45   A    
Cu3   N3    S    
C72   C74   A    
Cu1   O10   S    
C7    C81   A    
C90   H52   S    
Cu1   N1    S    
C40   C65   S    
C74   H38   S    
C17   H41   S    
C42   C67   S    
C2    O2    A    
C39   C66   S    
C8    C82   A    
C37   C43   A    
C31   C87   A    
Cu1   Cu3   S    
C1    O5    A    
C47   N3    A    
Cu4   N4    S    
Cu3   O5    S    
C77   H33   S    
C16   H20   S    
C47   C55   A    
C35   C37   A    
C14   H18   S    
C12   C64   A    
C22   H26   S    
C73   C77   A    
C28   C68   A    
C8    C10   A    
C54   H6    S    
C76   C80   A    
Cu2   O11   S    
C4    O4    A    
N5    C89   S    
C28   C62   A    
C5    C11   A    
C41   O11   A    
C26   C64   A    
C2    O6    A    
C57   H9    S    
C39   O9    A    
C34   C52   A    
C13   C17   A    
C28   H4    S    
C36   C38   A    
C19   C87   A    
C79   H35   S    
N8    H57   S    
C70   C76   A    
C76   H40   S    
C36   H12   S    
C84   C88   A    
C7    C23   A    
C20   C88   A    
Cu1   O9    S    
C1    C30   S    
C8    C24   A    
C80   C82   A    
C92   H59   S    
C52   C54   A    
C18   H42   S    
Cu4   O15   S    
C38   H16   S    
C3    C32   S    
C81   C85   A    
C21   H25   S    
C27   C67   A    
C24   C68   A    
C61   H21   S    
C46   C48   A    
C78   C84   A    
C55   N5    S    
C5    C21   A    
C90   H51   S    
C92   H58   S    
C74   C78   A    
C71   C73   A    
C60   N8    S    
C77   C83   A    
C29   C69   A    
C23   H27   S    
C51   C53   A    
C59   N7    S    
C11   C63   A    
C75   C79   A    
Cu3   O6    S    
Cu2   O4    S    
C60   N2    A    
C32   C72   A    
C4    O8    A    
