data_str_m4_o22_o22_f0_acs.sym.29
_audit_creation_date              2012-12-11T15:06:57-0500
_audit_creation_method            fapswitch 2.2
_symmetry_space_group_name_H-M    P1
_symmetry_Int_Tables_number       1
_space_group_crystal_system       triclinic
_cell_length_a                    19.636224
_cell_length_b                    11.409429
_cell_length_c                    18.703176
_cell_angle_alpha                 89.84957
_cell_angle_beta                  90.310569
_cell_angle_gamma                 89.986992
_cell_volume                      4190.14796071

loop_
_atom_site_label
_atom_site_type_symbol
_atom_type_description
_atom_site_fract_x
_atom_site_fract_y
_atom_site_fract_z
_atom_type_partial_charge
C1    C     C_R   0.761334 0.523274 0.639008 0.537729
C2    C     C_3   0.253333 0.055922 0.562711 0.067518
C3    C     C_R   0.739370 0.034068 0.151503 0.533190
C4    C     C_R   0.774380 0.133481 0.859125 0.536755
C5    C     C_R   0.225619 0.133684 0.140888 0.533609
C6    C     C_R   0.274615 0.634500 0.859515 0.538595
C7    C     C_R   0.725325 0.634538 0.140527 0.535857
C8    C     C_R   0.968621 0.353675 0.853698 0.534628
C9    C     C_R   0.031458 0.353791 0.146181 0.533499
C10   C     C_R   0.467934 0.853647 0.854277 0.534903
C11   C     C_R   0.530633 0.853769 0.146811 0.531309
C12   C     C_3   0.691842 0.145822 0.462468 -0.242607
C13   C     C_3   0.247424 0.559894 0.435905 0.065779
C14   C     C_3   0.314819 0.126957 0.533275 -0.234017
C15   C     C_3   0.191842 0.645823 0.462467 -0.242621
C16   C     C_3   0.814819 0.626956 0.533275 -0.234030
C17   C     C_3   0.693847 0.150229 0.544418 -0.233003
C18   C     C_3   0.313025 0.129889 0.451214 -0.240174
C19   C     C_3   0.193849 0.650233 0.544417 -0.232975
C20   C     C_3   0.813025 0.629888 0.451214 -0.240210
C21   C     C_3   0.744864 0.945078 0.480812 -0.224510
C22   C     C_3   0.240096 0.940012 0.520008 -0.215520
C23   C     C_3   0.244864 0.445079 0.480811 -0.224287
C24   C     C_3   0.753334 0.555919 0.562710 0.067495
C25   C     C_3   0.740098 0.440010 0.520007 -0.215731
C26   C     C_3   0.760506 0.092656 0.573603 0.066994
C27   C     C_3   0.241965 0.088087 0.424598 0.065183
C28   C     C_3   0.260506 0.592656 0.573603 0.066831
C29   C     C_3   0.741965 0.588087 0.424598 0.065004
C30   C     C_3   0.753033 0.961914 0.561827 -0.259831
C31   C     C_3   0.237275 0.957615 0.438832 -0.256307
C32   C     C_3   0.253031 0.461915 0.561827 -0.259914
C33   C     C_R   0.239180 0.525368 0.360073 0.535148
C34   C     C_3   0.737275 0.457615 0.438832 -0.256168
C35   C     C_3   0.824552 0.130426 0.530265 -0.214519
C36   C     C_3   0.186242 0.150459 0.468438 -0.218964
C37   C     C_3   0.324553 0.630424 0.530265 -0.214488
C38   C     C_3   0.686242 0.650458 0.468438 -0.219092
C39   C     C_3   0.993876 0.205766 0.456969 -0.241066
C40   C     C_3   0.992793 0.205783 0.539647 -0.232982
C41   C     C_3   0.493875 0.705765 0.456968 -0.241064
C42   C     C_3   0.492792 0.705782 0.539646 -0.232962
C43   C     C_3   0.068005 0.384583 0.473948 -0.220207
C44   C     C_R   0.261333 0.023277 0.639010 0.537261
C45   C     C_3   0.936278 0.410135 0.525353 -0.211791
C46   C     C_3   0.568004 0.884583 0.473947 -0.220088
C47   C     C_3   0.436276 0.910134 0.525351 -0.211727
C48   C     C_3   0.945243 0.404201 0.444415 -0.255389
C49   C     C_3   0.057475 0.387637 0.555068 -0.260923
C50   C     C_3   0.445242 0.904200 0.444414 -0.255396
C51   C     C_3   0.557473 0.887637 0.555066 -0.260968
C52   C     C_3   0.008350 0.332017 0.429921 0.063233
C53   C     C_3   0.988294 0.333459 0.568491 0.065655
C54   C     C_3   0.508349 0.832017 0.429920 0.063414
C55   C     C_R   0.739180 0.025366 0.360074 0.536559
C56   C     C_3   0.488292 0.833459 0.568490 0.065584
C57   C     C_3   0.818637 0.032804 0.048021 -0.264346
C58   C     C_3   0.186979 0.012537 0.954992 -0.251669
C59   C     C_3   0.320297 0.536625 0.049756 -0.256949
C60   C     C_3   0.681624 0.531212 0.952195 -0.262872
C61   C     C_R   0.774339 0.122196 0.649096 0.538338
C62   C     C_R   0.227160 0.118738 0.349251 0.533573
C63   C     C_R   0.274338 0.622195 0.649096 0.538926
C64   C     C_R   0.727160 0.618739 0.349251 0.534312
C65   C     C_3   0.818929 0.029717 0.967548 -0.256472
C66   C     C_3   0.815753 0.117614 0.449393 -0.254115
C67   C     C_3   0.183221 0.024826 0.034589 -0.253834
C68   C     C_3   0.323729 0.546798 0.969813 -0.244061
C69   C     C_3   0.680951 0.530488 0.032727 -0.255311
C70   C     C_3   0.691580 0.009316 0.030080 -0.216020
C71   C     C_3   0.316877 0.029788 0.969948 -0.209427
C72   C     C_3   0.194714 0.509111 0.031270 -0.215108
C73   C     C_3   0.808243 0.509385 0.970371 -0.218413
C74   C     C_3   0.738617 0.202422 0.060734 -0.026332
C75   C     C_3   0.244224 0.200377 0.936227 -0.037038
C76   C     C_3   0.241416 0.705244 0.061850 -0.034224
C77   C     C_3   0.191237 0.132219 0.549668 -0.260198
C78   C     C_3   0.760786 0.701957 0.938004 -0.025850
C79   C     C_3   0.746697 0.071260 0.075369 0.078049
C80   C     C_3   0.253304 0.068661 0.925111 0.076801
C81   C     C_3   0.248783 0.573950 0.076358 0.079395
C82   C     C_3   0.753221 0.570532 0.924552 0.077910
C83   C     C_3   0.759778 0.105399 0.936273 0.038271
C84   C     C_3   0.240192 0.105495 0.063723 0.030365
C85   C     C_3   0.260414 0.608457 0.937118 0.037843
C86   C     C_3   0.739961 0.606645 0.063361 0.037695
C87   C     C_3   0.694013 0.038905 0.949128 -0.253969
C88   C     C_3   0.315753 0.617614 0.449393 -0.254150
C89   C     C_3   0.307573 0.043628 0.051583 -0.259763
C90   C     C_3   0.201220 0.525467 0.949310 -0.264890
C91   C     C_3   0.806163 0.541056 0.050884 -0.253271
C92   C     C_3   0.754003 0.219630 0.980054 -0.184820
C93   C     C_3   0.241529 0.219311 0.018527 -0.181426
C94   C     C_3   0.241321 0.722478 0.979061 -0.178603
C95   C     C_3   0.745364 0.720480 0.018474 -0.187243
C96   C     C_3   0.998575 0.481105 0.040729 -0.233582
C97   C     C_3   0.999483 0.481429 0.959434 -0.231305
C98   C     C_3   0.496572 0.980620 0.041794 -0.229952
C99   C     C_3   0.691237 0.632214 0.549667 -0.260151
C100  C     C_3   0.494283 0.980560 0.960814 -0.224214
C101  C     C_3   0.067537 0.294655 0.026624 -0.225384
C102  C     C_3   0.933636 0.290013 0.972761 -0.221136
C103  C     C_3   0.567302 0.794739 0.027834 -0.219122
C104  C     C_3   0.437797 0.774825 0.973452 -0.213458
C105  C     C_3   0.946131 0.284027 0.054183 -0.257323
C106  C     C_3   0.055064 0.287556 0.945323 -0.259865
C107  C     C_3   0.444973 0.784455 0.055307 -0.260765
C108  C     C_3   0.558527 0.799472 0.945433 -0.266319
C109  C     C_R   0.968299 0.342377 0.644678 0.535297
C110  C     C_3   0.747424 0.059893 0.435905 0.065462
C111  C     C_R   0.029703 0.341869 0.354051 0.532170
C112  C     C_R   0.468298 0.842377 0.644677 0.535387
C113  C     C_R   0.529702 0.841869 0.354051 0.531625
C114  C     C_3   0.010081 0.353825 0.069450 0.063683
C115  C     C_3   0.989781 0.353648 0.930354 0.064860
C116  C     C_3   0.509213 0.853979 0.070217 0.063653
C117  C     C_3   0.488998 0.853268 0.931144 0.066103
C118  C     C_R   0.760744 0.533337 0.848632 0.534726
C119  C     C_R   0.240189 0.535957 0.152396 0.532667
C120  C     C_R   0.261118 0.031779 0.849213 0.535458
Cr1   Cr    Cr6+3 0.885690 0.492860 0.745310 0.987860
Cr2   Cr    Cr6+3 0.111880 0.178590 0.246990 0.995108
Cr3   Cr    Cr6+3 0.388120 0.678590 0.753010 0.995374
Cr4   Cr    Cr6+3 0.611880 0.678590 0.246990 0.994343
Cr5   Cr    Cr6+3 0.114310 0.492860 0.254690 0.987164
Cr6   Cr    Cr6+3 0.385690 0.992860 0.745310 0.989228
Cr7   Cr    Cr6+3 0.614310 0.992860 0.254690 0.986570
Cr8   Cr    Cr6+3 0.729880 0.332270 0.748190 0.992507
Cr9   Cr    Cr6+3 0.270120 0.332270 0.251810 0.991066
Cr10  Cr    Cr6+3 0.229880 0.832270 0.748190 0.992939
Cr11  Cr    Cr6+3 0.770120 0.832270 0.251810 0.992340
Cr12  Cr    Cr6+3 0.888120 0.178590 0.753010 0.995789
H1    H     H_    0.640074 0.123567 0.444156 0.128945
H2    H     H_    0.188347 0.910682 0.534778 0.127472
H3    H     H_    0.541191 0.022782 0.940174 0.111986
H4    H     H_    0.611862 0.840206 0.044944 0.106080
H5    H     H_    0.385010 0.784779 0.955565 0.107305
H6    H     H_    0.109474 0.351517 0.035563 0.107565
H7    H     H_    0.889297 0.340758 0.961610 0.104799
H8    H     H_    0.599647 0.850556 0.919924 0.103428
H9    H     H_    0.399756 0.827321 0.078952 0.099040
H10   H     H_    0.097598 0.328475 0.915429 0.097642
H11   H     H_    0.901896 0.319667 0.083881 0.096511
H12   H     H_    0.954288 0.191724 0.071296 0.120740
H13   H     H_    0.283095 0.381608 0.462288 0.131100
H14   H     H_    0.050510 0.194597 0.928180 0.118224
H15   H     H_    0.450463 0.696165 0.079694 0.114839
H16   H     H_    0.560090 0.710580 0.922027 0.108293
H17   H     H_    0.927657 0.200803 0.952190 0.135326
H18   H     H_    0.077667 0.206693 0.047894 0.135021
H19   H     H_    0.453607 0.684455 0.960440 0.124655
H20   H     H_    0.570702 0.702567 0.044341 0.132558
H21   H     H_    0.649058 0.102907 0.565904 0.107918
H22   H     H_    0.352356 0.072095 0.429087 0.109717
H23   H     H_    0.149058 0.602922 0.565905 0.107983
H24   H     H_    0.688352 0.410674 0.534778 0.127458
H25   H     H_    0.852356 0.572094 0.429087 0.109837
H26   H     H_    0.694450 0.914362 0.472297 0.108914
H27   H     H_    0.276105 0.870389 0.534376 0.108404
H28   H     H_    0.194450 0.414363 0.472295 0.108967
H29   H     H_    0.776110 0.370390 0.534374 0.108398
H30   H     H_    0.708314 0.927157 0.591237 0.100662
H31   H     H_    0.279464 0.909907 0.412325 0.098544
H32   H     H_    0.208311 0.427161 0.591236 0.100747
H33   H     H_    0.779462 0.409907 0.412323 0.098975
H34   H     H_    0.856884 0.060974 0.427815 0.130619
H35   H     H_    0.798535 0.913710 0.581869 0.122561
H36   H     H_    0.144660 0.088404 0.569929 0.122660
H37   H     H_    0.356884 0.560974 0.427814 0.130538
H38   H     H_    0.644660 0.588397 0.569928 0.122615
H39   H     H_    0.818664 0.204341 0.422424 0.099004
H40   H     H_    0.196027 0.217316 0.577929 0.101220
H41   H     H_    0.318665 0.704341 0.422424 0.098641
H42   H     H_    0.696025 0.717311 0.577930 0.101312
H43   H     H_    0.841628 0.218902 0.544458 0.111652
H44   H     H_    0.196028 0.240695 0.456361 0.110499
H45   H     H_    0.341628 0.718901 0.544458 0.111640
H46   H     H_    0.188380 0.923184 0.417072 0.128453
H47   H     H_    0.696028 0.740695 0.456363 0.110451
H48   H     H_    0.659983 0.238355 0.132747 0.264100
H49   H     H_    0.631783 0.213259 0.046755 0.234456
H50   H     H_    0.295717 0.260511 0.846422 0.256504
H51   H     H_    0.345105 0.259435 0.921883 0.229075
H52   H     H_    0.185480 0.758180 0.150186 0.254437
H53   H     H_    0.135433 0.708607 0.081236 0.244136
H54   H     H_    0.838380 0.739951 0.865111 0.264265
H55   H     H_    0.867781 0.712537 0.950474 0.235337
H56   H     H_    0.298531 0.413708 0.581870 0.122447
H57   H     H_    0.688378 0.423185 0.417074 0.128678
H58   H     H_    0.030529 0.140578 0.437295 0.127050
H59   H     H_    0.953286 0.150088 0.561029 0.132207
H60   H     H_    0.530528 0.640578 0.437294 0.127018
H61   H     H_    0.363263 0.095519 0.553249 0.133502
H62   H     H_    0.453286 0.650086 0.561029 0.132182
H63   H     H_    0.944532 0.176654 0.435568 0.111865
H64   H     H_    0.040018 0.163836 0.559806 0.107933
H65   H     H_    0.444531 0.676653 0.435566 0.111732
H66   H     H_    0.540018 0.663837 0.559804 0.107907
H67   H     H_    0.608000 0.824580 0.463227 0.109000
H68   H     H_    0.383537 0.892292 0.540620 0.110918
H69   H     H_    0.108001 0.324580 0.463228 0.108968
H70   H     H_    0.883539 0.392294 0.540621 0.110912
H71   H     H_    0.598163 0.838435 0.583666 0.100391
H72   H     H_    0.140075 0.623567 0.444156 0.129023
H73   H     H_    0.399694 0.865153 0.418307 0.098384
H74   H     H_    0.098165 0.338434 0.583668 0.100455
H75   H     H_    0.899695 0.365153 0.418309 0.098605
H76   H     H_    0.952330 0.494091 0.422599 0.131354
H77   H     H_    0.059306 0.479410 0.574697 0.123205
H78   H     H_    0.452328 0.994090 0.422597 0.131261
H79   H     H_    0.559304 0.979410 0.574696 0.123132
H80   H     H_    0.948404 0.501892 0.539365 0.132193
H81   H     H_    0.080564 0.473452 0.455610 0.139097
H82   H     H_    0.448402 0.001890 0.539363 0.132150
H83   H     H_    0.863263 0.595519 0.553249 0.133496
H84   H     H_    0.580563 0.973452 0.455610 0.139093
H85   H     H_    0.835931 0.944998 0.065864 0.151086
H86   H     H_    0.181913 0.920179 0.941542 0.147829
H87   H     H_    0.333681 0.444690 0.063170 0.144621
H88   H     H_    0.665047 0.442846 0.935208 0.149811
H89   H     H_    0.701492 0.233498 0.440017 0.111138
H90   H     H_    0.312689 0.218136 0.553650 0.106508
H91   H     H_    0.201492 0.733498 0.440014 0.110882
H92   H     H_    0.812688 0.718135 0.553650 0.106616
H93   H     H_    0.857312 0.095023 0.068112 0.109030
H94   H     H_    0.864810 0.066952 0.545083 0.129188
H95   H     H_    0.141373 0.054220 0.930070 0.111168
H96   H     H_    0.359584 0.591173 0.075710 0.108385
H97   H     H_    0.642627 0.591528 0.931022 0.108331
H98   H     H_    0.870541 0.051021 0.949415 0.139969
H99   H     H_    0.130986 0.050876 0.048414 0.135340
H100  H     H_    0.370476 0.588026 0.954969 0.129442
H101  H     H_    0.629354 0.553592 0.050196 0.139194
H102  H     H_    0.810754 0.939974 0.949706 0.189380
H103  H     H_    0.190162 0.940143 0.059386 0.196227
H104  H     H_    0.329246 0.458810 0.946829 0.173238
H105  H     H_    0.135319 0.123472 0.450385 0.135757
H106  H     H_    0.688903 0.441376 0.052148 0.190793
H107  H     H_    0.704238 0.920134 0.037128 0.102230
H108  H     H_    0.334113 0.942858 0.955684 0.105049
H109  H     H_    0.204599 0.420643 0.045178 0.108852
H110  H     H_    0.795604 0.420032 0.964902 0.102490
H111  H     H_    0.693381 0.957921 0.916498 0.103689
H112  H     H_    0.308230 0.957032 0.078620 0.109047
H113  H     H_    0.209350 0.440462 0.922304 0.152523
H114  H     H_    0.809037 0.460793 0.084532 0.104201
H115  H     H_    0.776602 0.251656 0.093318 0.122813
H116  H     H_    0.364810 0.566949 0.545083 0.129156
H117  H     H_    0.194901 0.227131 0.911993 0.130209
H118  H     H_    0.286000 0.752066 0.084877 0.123067
H119  H     H_    0.722516 0.750011 0.904904 0.123339
H120  H     H_    0.805236 0.250144 0.979188 0.085006
H121  H     H_    0.192228 0.252630 0.028727 0.087298
H122  H     H_    0.274552 0.794561 0.964078 0.091563
H123  H     H_    0.694113 0.751056 0.018109 0.086708
H124  H     H_    0.717610 0.280669 0.954659 0.145526
H125  H     H_    0.282746 0.278009 0.037177 0.140367
H126  H     H_    0.188795 0.745177 0.962345 0.141541
H127  H     H_    0.635318 0.623473 0.450384 0.135739
H128  H     H_    0.781712 0.782195 0.043309 0.144322
H129  H     H_    0.640599 0.024044 0.051615 0.133262
H130  H     H_    0.358237 0.087965 0.955281 0.125019
H131  H     H_    0.143080 0.531392 0.048193 0.123224
H132  H     H_    0.858813 0.523079 0.948211 0.131880
H133  H     H_    0.687012 0.239360 0.563425 0.138753
H134  H     H_    0.326720 0.218621 0.432520 0.134928
H135  H     H_    0.187021 0.739365 0.563420 0.138737
H136  H     H_    0.826720 0.718620 0.432520 0.134934
H137  H     H_    0.649688 0.093810 0.933293 0.119506
H138  H     H_    0.783095 0.881607 0.462287 0.131029
H139  H     H_    0.349023 0.097987 0.074776 0.115951
H140  H     H_    0.154213 0.563835 0.926203 0.104764
H141  H     H_    0.849512 0.598873 0.065337 0.120307
H142  H     H_    0.036310 0.545915 0.059660 0.130378
H143  H     H_    0.962353 0.546641 0.940007 0.130662
H144  H     H_    0.534825 0.045640 0.059132 0.129781
H145  H     H_    0.454501 0.039048 0.941866 0.132004
H146  H     H_    0.949067 0.513716 0.060093 0.116073
H147  H     H_    0.048727 0.516105 0.940591 0.114738
H148  H     H_    0.448027 0.013789 0.063201 0.115547
N1    N     N_3   0.670705 0.247842 0.078506 -0.690478
N2    N     N_3   0.296179 0.273168 0.901710 -0.688582
N3    N     N_3   0.179789 0.753772 0.094667 -0.689454
N4    N     N_3   0.828420 0.747973 0.919584 -0.688983
O1    O     O_R   0.957210 0.449410 0.665480 -0.533662
O2    O     O_R   0.167480 0.095300 0.164000 -0.528378
O3    O     O_R   0.332520 0.595300 0.836000 -0.525032
O4    O     O_R   0.667480 0.595300 0.164000 -0.527351
O5    O     O_R   0.946380 0.253940 0.826940 -0.513491
O6    O     O_R   0.053620 0.253940 0.173060 -0.513634
O7    O     O_R   0.446380 0.753940 0.826940 -0.513286
O8    O     O_R   0.553620 0.753940 0.173060 -0.514374
O9    O     O_3   0.834560 0.334570 0.748840 -0.275059
O10   O     O_3   0.165440 0.334570 0.251160 -0.271539
O11   O     O_3   0.334560 0.834570 0.748840 -0.276634
O12   O     O_R   0.042790 0.449410 0.334520 -0.534241
O13   O     O_3   0.665440 0.834570 0.251160 -0.271900
O14   O     O_R   0.820730 0.541240 0.668250 -0.516294
O15   O     O_R   0.179270 0.541240 0.331750 -0.516242
O16   O     O_R   0.320730 0.041240 0.668250 -0.516541
O17   O     O_R   0.679270 0.041240 0.331750 -0.515524
O18   O     O_R   0.714240 0.455060 0.663710 -0.532965
O19   O     O_R   0.285760 0.455060 0.336290 -0.533864
O20   O     O_R   0.214240 0.955060 0.663710 -0.532848
O21   O     O_R   0.785760 0.955060 0.336290 -0.533355
O22   O     O_R   0.736780 0.204870 0.675910 -0.516118
O23   O     O_R   0.457210 0.949410 0.665480 -0.533540
O24   O     O_R   0.263220 0.204870 0.324090 -0.515180
O25   O     O_R   0.236780 0.704870 0.675910 -0.515837
O26   O     O_R   0.763220 0.704870 0.324090 -0.515035
O27   O     O_R   0.833070 0.087590 0.673490 -0.530630
O28   O     O_R   0.166930 0.087590 0.326510 -0.530864
O29   O     O_R   0.333070 0.587590 0.673490 -0.530419
O30   O     O_R   0.666930 0.587590 0.326510 -0.530531
O31   O     O_R   0.946890 0.246800 0.676300 -0.513677
O32   O     O_R   0.053110 0.246800 0.323700 -0.512060
O33   O     O_R   0.446890 0.746800 0.676300 -0.513628
O34   O     O_R   0.542790 0.949410 0.334520 -0.534682
O35   O     O_R   0.553110 0.746800 0.323700 -0.512461
O36   O     O_R   0.956650 0.457120 0.827980 -0.531514
O37   O     O_R   0.043350 0.457120 0.172020 -0.531646
O38   O     O_R   0.456650 0.957120 0.827980 -0.530976
O39   O     O_R   0.543350 0.957120 0.172020 -0.532452
O40   O     O_R   0.820220 0.548390 0.818890 -0.514990
O41   O     O_R   0.179780 0.548390 0.181110 -0.512170
O42   O     O_R   0.320220 0.048390 0.818890 -0.512146
O43   O     O_R   0.679780 0.048390 0.181110 -0.515267
O44   O     O_R   0.713680 0.462770 0.826210 -0.536814
O45   O     O_R   0.736260 0.212010 0.826560 -0.512950
O46   O     O_R   0.286320 0.462770 0.173790 -0.537044
O47   O     O_R   0.213680 0.962770 0.826210 -0.536568
O48   O     O_R   0.786320 0.962770 0.173790 -0.536802
O49   O     O_R   0.263740 0.212010 0.173440 -0.512165
O50   O     O_R   0.236260 0.712010 0.826560 -0.513117
O51   O     O_R   0.763740 0.712010 0.173440 -0.512983
O52   O     O_R   0.832520 0.095300 0.836000 -0.526658

loop_
_geom_bond_atom_site_label_1
_geom_bond_atom_site_label_2
_ccdc_geom_bond_type
H51   N2    S    
C3    O43   A    
C70   H129  S    
C19   H23   S    
C76   H118  S    
C21   C110  S    
C77   H36   S    
C4    O45   A    
C6    C85   S    
C65   H98   S    
C9    C114  S    
C94   H122  S    
C61   O27   A    
C22   H27   S    
Cr9   O46   S    
C5    O2    A    
C41   C42   S    
C74   C92   S    
C7    O4    A    
C76   C94   S    
Cr10  O47   S    
C43   H69   S    
C63   O25   A    
C97   C115  S    
Cr9   O49   S    
C73   H132  S    
C25   C34   S    
C29   C64   S    
C67   H99   S    
C113  O34   A    
C96   C114  S    
C21   H138  S    
Cr12  O52   S    
C45   H80   S    
Cr8   O22   S    
C27   C31   S    
C60   H97   S    
C1    O14   A    
C42   H66   S    
C18   H134  S    
C32   H56   S    
C35   C66   S    
C39   H63   S    
C16   H83   S    
C13   C33   S    
C118  O40   A    
C78   C82   S    
Cr1   O40   S    
H55   N4    S    
C48   H76   S    
Cr1   O14   S    
C66   C110  S    
C59   H96   S    
C97   H143  S    
C98   H144  S    
C103  H20   S    
C93   H125  S    
C11   O8    A    
C74   C79   S    
C16   H92   S    
C30   H30   S    
C75   C93   S    
C104  C117  S    
C53   C109  S    
C36   H105  S    
C120  O47   A    
C81   C119  S    
C72   H131  S    
C38   H47   S    
C70   C79   S    
C55   O17   A    
Cr4   O8    S    
H50   N2    S    
C85   C90   S    
Cr6   O38   S    
C106  C115  S    
C36   C77   S    
C35   H43   S    
C71   H108  S    
C6    O3    A    
Cr6   O23   S    
C99   H42   S    
C49   C53   S    
C11   O39   A    
C103  C116  S    
C102  H7    S    
C2    C14   S    
C86   C95   S    
C102  H17   S    
C33   O15   A    
C28   C63   S    
C26   C35   S    
C48   C52   S    
C49   H74   S    
Cr12  O5    S    
C100  C117  S    
C104  C107  S    
C108  H16   S    
C100  H145  S    
Cr3   O33   S    
Cr1   O9    S    
Cr2   O6    S    
Cr3   O11   S    
C12   C110  S    
Cr12  O9    S    
H49   N1    S    
C3    O48   A    
C40   H59   S    
C30   H35   S    
C112  O23   A    
C43   C52   S    
C7    C86   S    
C62   O28   A    
C90   H113  S    
C13   C23   S    
C69   H101  S    
C98   C116  S    
C73   H110  S    
C74   N1    S    
C25   H29   S    
C29   C38   S    
C44   O16   A    
Cr7   O39   S    
C107  H9    S    
C34   H33   S    
C18   H22   S    
C84   C93   S    
C57   H93   S    
C71   H130  S    
C91   H114  S    
C45   C53   S    
C96   C97   S    
C25   H24   S    
C68   C85   S    
C70   C87   S    
C47   C50   S    
C8    O5    A    
C92   H120  S    
C95   H128  S    
C31   H46   S    
C66   H39   S    
C41   H65   S    
C39   C40   S    
C5    C84   S    
C46   C51   S    
C63   O29   A    
C103  H4    S    
C2    C22   S    
C27   C62   S    
C72   C90   S    
C58   C67   S    
Cr5   O41   S    
C19   C28   S    
C55   O21   A    
C26   C30   S    
C1    O18   A    
C19   H135  S    
C101  C106  S    
Cr10  O20   S    
C108  C117  S    
C100  H3    S    
C37   H45   S    
C97   H147  S    
C10   C117  S    
C98   H148  S    
C58   H86   S    
C46   H67   S    
C94   H126  S    
C60   C69   S    
C32   H32   S    
Cr12  O27   S    
C107  C116  S    
C50   H78   S    
C1    C24   S    
C84   C89   S    
C58   H95   S    
C68   H100  S    
C47   C56   S    
C83   C87   S    
C78   H119  S    
C95   H123  S    
C21   H26   S    
C37   C88   S    
C20   H136  S    
C105  H12   S    
Cr5   O10   S    
C99   H38   S    
C15   C19   S    
C47   H82   S    
C75   N2    S    
C50   C54   S    
C119  O46   A    
C26   C61   S    
C86   C91   S    
C60   H88   S    
C9    O6    A    
C33   O19   A    
C93   H121  S    
C24   C99   S    
C101  H18   S    
C96   H142  S    
C104  H5    S    
C102  C105  S    
C14   C18   S    
C102  C115  S    
C42   C56   S    
C45   H70   S    
C12   C17   S    
Cr3   O29   S    
C106  H10   S    
Cr2   O10   S    
Cr3   O7    S    
C69   H106  S    
C72   C81   S    
C58   C80   S    
Cr11  O21   S    
C101  C114  S    
C51   H71   S    
C62   O24   A    
Cr8   O9    S    
C9    O37   A    
C17   H21   S    
Cr10  O11   S    
C44   O20   A    
Cr7   O43   S    
C105  H11   S    
Cr7   O13   S    
C107  H15   S    
C65   H102  S    
Cr8   O18   S    
C28   C32   S    
C78   C95   S    
C46   C54   S    
Cr2   O28   S    
C89   H112  S    
Cr1   O1    S    
Cr4   O30   S    
C11   C116  S    
H53   N3    S    
C78   N4    S    
C3    C79   S    
Cr3   O3    S    
C92   H124  S    
C14   H61   S    
C8    O36   A    
C36   H44   S    
C46   H84   S    
C20   H25   S    
C113  O35   A    
C73   C82   S    
Cr5   O12   S    
Cr12  O31   S    
Cr6   O11   S    
C45   C48   S    
Cr9   O19   S    
Cr2   O32   S    
Cr4   O35   S    
C64   O30   A    
C59   C81   S    
C57   C65   S    
C38   C99   S    
C101  H6    S    
C10   O7    A    
C27   C36   S    
C21   C30   S    
Cr5   O37   S    
C23   C32   S    
C2    C77   S    
Cr11  O48   S    
C4    C83   S    
C57   H85   S    
Cr9   O10   S    
H52   N3    S    
C29   C34   S    
C48   H75   S    
C10   O38   A    
C15   H91   S    
Cr7   O34   S    
C49   H77   S    
Cr11  O13   S    
C75   H117  S    
C120  O42   A    
C80   C120  S    
C35   H94   S    
C57   C79   S    
C76   N3    S    
C64   O26   A    
C38   H127  S    
C15   H72   S    
C111  O32   A    
C61   O22   A    
C83   C92   S    
C23   H13   S    
C67   H103  S    
C37   H116  S    
C22   H2    S    
C17   C26   S    
C28   C37   S    
C104  H19   S    
Cr5   O15   S    
Cr9   O24   S    
C65   C83   S    
Cr6   O16   S    
C5    O49   A    
C54   C113  S    
C7    O51   A    
C51   C56   S    
C42   H62   S    
C17   H133  S    
C68   H104  S    
C8    C115  S    
C60   C82   S    
Cr8   O44   S    
C103  C108  S    
C75   C80   S    
C16   C20   S    
C118  O44   A    
Cr1   O36   S    
C39   C52   S    
C67   C84   S    
C16   C24   S    
C109  O31   A    
C71   C80   S    
C20   C29   S    
C41   C54   S    
Cr11  O26   S    
C31   H31   S    
C22   C31   S    
C66   H34   S    
C105  C114  S    
C91   H141  S    
C24   C25   S    
C73   C91   S    
C2    C44   S    
C108  H8    S    
C39   H58   S    
C43   C49   S    
C52   C111  S    
C112  O33   A    
C119  O41   A    
C88   H41   S    
C77   H40   S    
C59   C68   S    
C85   C94   S    
C87   H111  S    
C71   C89   S    
C23   H28   S    
Cr6   O42   S    
H54   N4    S    
C4    O52   A    
C12   H1    S    
C13   C15   S    
C55   C110  S    
C47   H68   S    
C6    O50   A    
C70   H107  S    
C43   H81   S    
Cr4   O4    S    
C40   H64   S    
C111  O12   A    
C41   H60   S    
C89   H139  S    
C72   H109  S    
C14   H90   S    
C34   H57   S    
C90   H140  S    
C18   C27   S    
C88   H37   S    
C76   C81   S    
Cr7   O17   S    
Cr10  O50   S    
C98   C100  S    
C106  H14   S    
Cr8   O45   S    
C96   H146  S    
Cr2   O2    S    
C109  O1    A    
Cr11  O51   S    
C59   H87   S    
C87   H137  S    
C74   H115  S    
C13   C88   S    
C12   H89   S    
Cr4   O13   S    
C50   H73   S    
C51   H79   S    
C40   C53   S    
C82   C118  S    
H48   N1    S    
C56   C112  S    
C69   C86   S    
Cr10  O25   S    
