data_str_m12_o9_o11_f0_bcu.sym.39
_audit_creation_date              2012-12-11T17:39:34-0500
_audit_creation_method            fapswitch 2.2
_symmetry_space_group_name_H-M    P1
_symmetry_Int_Tables_number       1
_space_group_crystal_system       triclinic
_cell_length_a                    15.081775
_cell_length_b                    15.001557
_cell_length_c                    14.943929
_cell_angle_alpha                 109.017968
_cell_angle_beta                  109.908457
_cell_angle_gamma                 109.695537
_cell_volume                      2595.90510599

loop_
_atom_site_label
_atom_site_type_symbol
_atom_type_description
_atom_site_fract_x
_atom_site_fract_y
_atom_site_fract_z
_atom_type_partial_charge
C1    C     C_R   0.911639 0.906493 0.711636 -0.151526
C2    C     C_R   0.908919 0.684344 0.447190 -0.129130
C3    C     C_R   0.700498 0.789040 0.197650 -0.109544
C4    C     C_R   0.089557 0.292717 0.486447 -0.138709
C5    C     C_R   0.300971 0.000422 0.592195 -0.157774
C6    C     C_R   0.641081 0.692412 0.192596 0.138041
C7    C     C_R   0.361634 0.056689 0.557874 0.057756
C8    C     C_R   0.001586 0.674323 0.468189 0.050734
C9    C     C_R   0.000655 0.947708 0.176432 0.054659
C10   C     C_R   0.503633 0.691954 0.376504 -0.108099
C11   C     C_R   0.511438 0.794263 0.412160 -0.115479
C12   C     C_R   0.998642 0.293230 0.422097 0.070795
C13   C     C_R   0.553940 0.863476 0.524030 0.107073
C14   C     C_R   0.588923 0.829027 0.599626 -0.218434
C15   C     C_R   0.581069 0.726710 0.563564 -0.106510
C16   C     C_R   0.245731 0.220810 0.812688 -0.157142
C17   C     C_R   0.538358 0.658201 0.452088 -0.100920
C18   C     C_R   0.477851 0.980114 0.568097 -0.258419
C19   C     C_R   0.467801 0.071331 0.577741 0.067265
C20   C     C_R   0.551166 0.163471 0.591147 0.027775
C21   C     C_R   0.641822 0.158434 0.590449 -0.249411
C22   C     C_R   0.647190 0.063473 0.573430 0.075024
C23   C     C_R   0.270841 0.322814 0.823199 0.129373
C24   C     C_R   0.563917 0.972868 0.561571 0.023931
C25   C     C_R   0.564158 0.304922 0.533599 -0.162000
C26   C     C_R   0.548208 0.391731 0.534537 -0.112952
C27   C     C_R   0.509616 0.435279 0.599954 -0.093232
C28   C     C_R   0.751283 0.065171 0.473652 -0.136903
C29   C     C_R   0.489062 0.393524 0.666160 -0.094253
C30   C     C_R   0.509256 0.309905 0.669154 -0.145700
C31   C     C_R   0.543418 0.262016 0.599901 0.111682
C32   C     C_R   0.714111 0.083468 0.098396 -0.119317
C33   C     C_R   0.804650 0.189099 0.162968 -0.140826
C34   C     C_R   0.731688 0.053076 0.554230 0.034690
C35   C     C_R   0.804718 0.272002 0.241829 0.119046
C36   C     C_R   0.711117 0.249045 0.251442 -0.194640
C37   C     C_R   0.622367 0.142577 0.189194 -0.123758
C38   C     C_R   0.624013 0.059789 0.113160 -0.122632
C39   C     C_R   0.911031 0.474917 0.347270 -0.248456
C40   C     C_R   0.246470 0.312678 0.720880 -0.133014
C41   C     C_R   0.005253 0.573435 0.435217 0.064671
C42   C     C_R   0.100926 0.572330 0.492137 0.062360
C43   C     C_R   0.100417 0.475686 0.460193 -0.230003
C44   C     C_R   0.002108 0.377808 0.392699 0.048163
C45   C     C_R   0.702204 0.696421 0.287754 -0.159068
C46   C     C_R   0.907740 0.375651 0.326265 0.030394
C47   C     C_R   0.297056 0.716649 0.591683 0.295519
C48   C     C_R   0.393254 0.800956 0.690411 -0.156678
C49   C     C_R   0.395664 0.829630 0.790254 -0.173430
C50   C     C_R   0.301660 0.775512 0.792542 -0.117717
C51   C     C_R   0.204245 0.694398 0.694717 -0.192453
C52   C     C_R   0.768595 0.986607 0.577004 -0.090885
C53   C     C_R   0.201328 0.665133 0.594031 0.058415
C54   C     C_2   0.362974 0.521069 0.935218 -0.131395
C55   C     C_2   0.320723 0.422334 0.926461 -0.190398
C56   C     C_R   0.300644 0.088897 0.498162 -0.140179
C57   C     C_2   0.459912 0.616937 0.037063 -0.118753
C58   C     C_2   0.530081 0.604909 0.109578 -0.227543
C59   C     C_R   0.378380 0.062113 0.002917 -0.128626
C60   C     C_R   0.280715 0.993371 0.991427 -0.184137
C61   C     C_R   0.218540 0.036088 0.019461 0.114708
C62   C     C_R   0.259674 0.149251 0.068677 -0.152121
C63   C     C_R   0.359922 0.218350 0.084585 -0.152537
C64   C     C_R   0.908804 0.206429 0.402225 -0.142514
C65   C     C_R   0.418282 0.174569 0.049893 -0.093789
C66   C     C_R   0.104334 0.951464 0.081183 -0.235147
C67   C     C_R   0.091667 0.778413 0.531848 -0.124927
C68   C     C_R   0.003960 0.902811 0.074778 0.052336
C69   C     C_R   0.908785 0.832450 0.970476 0.028286
C70   C     C_R   0.912950 0.838612 0.880484 -0.239044
C71   C     C_R   0.010610 0.911736 0.893821 0.065788
C72   C     C_R   0.109222 0.962030 0.994456 0.023589
C73   C     C_R   0.813249 0.683452 0.001282 -0.139295
C74   C     C_R   0.718598 0.605188 0.986276 -0.089074
C75   C     C_R   0.617658 0.592323 0.923692 -0.085573
C76   C     C_R   0.092185 0.997082 0.798419 -0.146069
C77   C     C_R   0.610830 0.657718 0.876035 -0.130835
C78   C     C_R   0.909574 0.936100 0.187069 -0.133146
C79   C     C_R   0.705242 0.735603 0.889995 -0.178238
C80   C     C_R   0.807462 0.749436 0.953330 0.117380
C81   C     C_R   0.005140 0.939643 0.806575 0.064911
C82   C     C_3   0.294434 0.682693 0.483858 -1.055889
C83   C     C_R   0.092021 0.025437 0.279610 -0.122058
H1    H     H_    0.828583 0.847970 0.682314 0.100401
H2    H     H_    0.484915 0.819856 0.353000 0.112725
H3    H     H_    0.172291 0.337664 0.504775 0.088141
H4    H     H_    0.625170 0.882735 0.686516 0.110228
H5    H     H_    0.608852 0.700929 0.622150 0.102744
H6    H     H_    0.411897 0.908669 0.553623 0.147751
H7    H     H_    0.706541 0.226790 0.598988 0.132000
H8    H     H_    0.589801 0.269376 0.478875 0.107561
H9    H     H_    0.563554 0.423683 0.482729 0.100898
H10   H     H_    0.494794 0.500738 0.598707 0.100464
H11   H     H_    0.455853 0.424878 0.713974 0.101958
H12   H     H_    0.327267 0.142901 0.467893 0.111906
H13   H     H_    0.493481 0.279262 0.721689 0.115876
H14   H     H_    0.555792 0.977121 0.066407 0.094702
H15   H     H_    0.254086 0.200354 0.876751 0.120977
H16   H     H_    0.715299 0.019210 0.039604 0.105770
H17   H     H_    0.876510 0.205149 0.155256 0.112653
H18   H     H_    0.710363 0.311179 0.313134 0.114141
H19   H     H_    0.553388 0.123778 0.201942 0.129471
H20   H     H_    0.838467 0.474443 0.298885 0.124510
H21   H     H_    0.175827 0.479348 0.505753 0.123319
H22   H     H_    0.466583 0.844582 0.690819 0.125835
H23   H     H_    0.175478 0.803915 0.557006 0.118860
H24   H     H_    0.470826 0.893322 0.865878 0.116301
H25   H     H_    0.304737 0.795627 0.870232 0.108804
H26   H     H_    0.131753 0.652611 0.697348 0.129489
H27   H     H_    0.340270 0.529820 0.862801 0.120642
H28   H     H_    0.337475 0.414055 0.999027 0.127582
H29   H     H_    0.482880 0.695995 0.042242 0.122353
H30   H     H_    0.510369 0.526278 0.104366 0.128436
H31   H     H_    0.494418 0.227701 0.059448 0.115667
H32   H     H_    0.422598 0.028086 0.974543 0.123097
H33   H     H_    0.249781 0.906461 0.954607 0.114610
H34   H     H_    0.824908 0.886674 0.123780 0.116673
H35   H     H_    0.212999 0.183264 0.092162 0.116089
H36   H     H_    0.390997 0.305405 0.121195 0.103201
H37   H     H_    0.254287 0.375332 0.698519 0.092825
H38   H     H_    0.180352 0.993533 0.157460 0.126162
H39   H     H_    0.838952 0.788516 0.801173 0.120881
H40   H     H_    0.891063 0.692444 0.049997 0.114120
H41   H     H_    0.723448 0.554429 0.023105 0.108189
H42   H     H_    0.544579 0.530637 0.911242 0.118972
H43   H     H_    0.532258 0.647467 0.827643 0.109358
H44   H     H_    0.771477 0.966283 0.640134 0.112123
H45   H     H_    0.176523 0.057383 0.303066 0.094004
H46   H     H_    0.175114 0.017739 0.841117 0.132827
H47   H     H_    0.673724 0.641336 0.316511 0.093420
H48   H     H_    0.470863 0.638901 0.290278 0.116175
H49   H     H_    0.374075 0.730270 0.494713 0.273042
H50   H     H_    0.272326 0.595859 0.444179 0.262279
H51   H     H_    0.234294 0.694569 0.428532 0.254407
H52   H     H_    0.730675 0.110303 0.434762 0.103142
H53   H     H_    0.698808 0.786062 0.853033 0.104924
H54   H     H_    0.823937 0.175071 0.349295 0.128509
H55   H     H_    0.824710 0.619712 0.400876 0.090652
H56   H     H_    0.671348 0.818267 0.143102 0.089722
H57   H     H_    0.329629 0.975964 0.651751 0.110463
H58   H     H_    0.532547 0.579129 0.424319 0.090675
N1    N     N_R   0.941940 0.944580 0.650780 -0.040053
N2    N     N_R   0.204460 0.150250 0.707090 -0.041265
N3    N     N_R   0.794270 0.003240 0.446420 -0.042853
N4    N     N_R   0.204920 0.207570 0.650770 -0.042626
N5    N     N_R   0.793810 0.945920 0.502740 -0.039998
N6    N     N_R   0.943620 0.152590 0.446420 -0.040993
N7    N     N_R   0.055110 0.000900 0.707100 -0.041623
N8    N     N_R   0.795080 0.792430 0.349230 -0.038947
N9    N     N_R   0.206190 0.054080 0.497260 -0.039407
N10   N     N_R   0.056380 0.847410 0.553580 -0.042580
N11   N     N_R   0.944890 0.999100 0.292900 -0.041612
N12   N     N_R   0.058060 0.055420 0.349220 -0.041575
N13   N     N_R   0.943200 0.791100 0.497260 -0.038269
N14   N     N_R   0.795540 0.849750 0.292910 -0.046973
N15   N     N_R   0.205730 0.996760 0.553580 -0.038933
N16   N     N_R   0.056800 0.208900 0.502740 -0.038846
Ni1   Ni    Ni4+2 0.869690 0.869690 0.500000 0.220407
Ni2   Ni    Ni4+2 0.130310 0.130310 0.500000 0.210277
Ni3   Ni    Ni4+2 0.129250 0.998840 0.629170 0.215732
Ni4   Ni    Ni4+2 0.870750 0.001160 0.370830 0.213369

loop_
_geom_bond_atom_site_label_1
_geom_bond_atom_site_label_2
_ccdc_geom_bond_type
C25   C31   A    
C56   H12   S    
C74   H41   S    
C63   C65   A    
C82   H51   S    
C6    C45   A    
N3    Ni4   S    
C27   C29   A    
C28   H52   S    
C41   C42   A    
C6    C58   S    
C66   C68   A    
C35   C36   A    
C83   H45   S    
C3    C6    A    
C78   N11   A    
N2    Ni3   S    
C39   C41   A    
N14   Ni4   S    
C1    H1    S    
C79   H53   S    
C26   C27   A    
C37   C38   A    
C40   N4    A    
C18   C24   A    
C21   C22   A    
C36   C37   A    
C11   H2    S    
C14   H4    S    
N13   Ni1   S    
C42   C53   S    
C30   C31   A    
N4    Ni2   S    
C47   C82   S    
C57   H29   S    
C4    H3    S    
C10   C17   A    
C26   H9    S    
C23   C40   A    
C54   H27   S    
C17   H58   S    
C18   C19   A    
N7    Ni3   S    
N10   N13   A    
C43   H21   S    
C30   H13   S    
C1    N1    A    
C10   H48   S    
C66   C72   A    
C47   C48   A    
C68   C69   A    
C73   H40   S    
C58   H30   S    
C70   C71   A    
C28   N3    A    
C32   C38   A    
C4    C12   A    
C29   C30   A    
N8    Ni1   S    
N11   Ni4   S    
C47   C53   A    
C28   C34   A    
C59   C60   A    
N16   Ni2   S    
N9    N15   A    
C13   C14   A    
C50   H25   S    
C61   C62   A    
C7    C56   A    
N1    Ni1   S    
C38   H14   S    
C52   H44   S    
C44   C46   A    
C21   H7    S    
C77   C79   A    
C73   C74   A    
C22   C34   S    
C25   H8    S    
C74   C75   A    
C67   N10   A    
C2    H55   S    
N1    N7    A    
N15   Ni3   S    
C16   N2    A    
C8    C41   S    
N3    N5    A    
N9    Ni2   S    
C5    C7    A    
C25   C26   A    
C49   H24   S    
C4    N16   A    
C37   H19   S    
C13   C24   S    
C36   H18   S    
C75   H42   S    
N12   Ni2   S    
C43   C44   A    
C62   C63   A    
C56   N9    A    
C63   H36   S    
C76   H46   S    
C70   H39   S    
C48   H22   S    
C65   H31   S    
C78   H34   S    
C3    N14   A    
C50   C51   A    
C66   H38   S    
N11   N12   A    
C39   H20   S    
C75   C77   A    
C9    C83   A    
C39   C46   A    
N5    Ni1   S    
C61   C72   S    
C48   C49   A    
C40   H37   S    
C16   C23   A    
C7    C19   S    
C64   N6    A    
N6    Ni4   S    
C22   C24   A    
C27   H10   S    
C3    H56   S    
C42   C43   A    
C82   H49   S    
N6    N16   A    
C5    H57   S    
N2    N4    A    
C54   C55   D    
C52   N5    A    
C55   H28   S    
C18   H6    S    
C2    C8    A    
C76   C81   A    
C67   H23   S    
C23   C55   S    
C83   N12   A    
C5    N15   A    
C34   C52   A    
C32   H16   S    
C33   H17   S    
C32   C33   A    
C19   C20   A    
N8    N14   A    
C9    C68   S    
C71   C72   A    
C12   C44   S    
C2    N13   A    
N10   Ni3   S    
C11   C13   A    
C16   H15   S    
C57   C58   D    
C29   H11   S    
C82   H50   S    
C12   C64   A    
C33   C35   A    
C73   C80   A    
C45   N8    A    
C9    C78   A    
C69   C70   A    
C62   H35   S    
C60   H33   S    
C10   C11   A    
C79   C80   A    
C45   H47   S    
C20   C21   A    
C76   N7    A    
C8    C67   A    
C59   H32   S    
C49   C50   A    
C64   H54   S    
C14   C15   A    
C60   C61   A    
C69   C80   S    
C51   H26   S    
C51   C53   A    
C15   C17   A    
C35   C46   S    
C1    C81   A    
C54   C57   S    
C59   C65   A    
C77   H43   S    
C15   H5    S    
C71   C81   S    
C20   C31   S    
