data_str_m9_o4_o16_f0_sra.sym.37
_audit_creation_date              2012-12-11T17:00:19-0500
_audit_creation_method            fapswitch 2.2
_symmetry_space_group_name_H-M    P1
_symmetry_Int_Tables_number       1
_space_group_crystal_system       triclinic
_cell_length_a                    6.959201
_cell_length_b                    13.559822
_cell_length_c                    20.271225
_cell_angle_alpha                 102.995323
_cell_angle_beta                  89.259369
_cell_angle_gamma                 91.374184
_cell_volume                      1863.3205296

loop_
_atom_site_label
_atom_site_type_symbol
_atom_type_description
_atom_site_fract_x
_atom_site_fract_y
_atom_site_fract_z
_atom_type_partial_charge
O1    O     O_R   0.506770 0.599700 0.449550 -0.538616
O2    O     O_R   0.179980 0.595740 0.587960 -0.546471
O3    O     O_R   0.004580 0.400300 0.550450 -0.538625
C1    C     C_R   0.347993 0.617101 0.615272 0.692463
O4    O     O_R   0.177380 0.611700 0.452380 -0.541929
O5    O     O_R   0.001970 0.416370 0.413900 -0.541897
C2    C     C_R   0.349129 0.637910 0.435304 0.691330
O6    O     O_R   0.509390 0.583630 0.586100 -0.537914
O7    O     O_3   0.337530 0.435890 0.487530 -0.368957
V1    V     V_3+5 0.064660 0.511890 0.502310 1.399193
O8    O     O_R   0.671950 0.404260 0.412040 -0.540608
C3    C     C_R   0.840629 0.382807 0.384724 0.692931
O9    O     O_R   0.674540 0.388300 0.547620 -0.539787
C4    C     C_R   0.840736 0.361916 0.564702 0.722506
V2    V     V_3+5 0.564030 0.488110 0.497690 1.412923
O10   O     O_3   0.841030 0.564110 0.512470 -0.372816
C5    C     C_R   0.764100 0.112744 0.613794 0.435595
H1    H     H_    0.765434 0.162737 0.520515 0.121896
H2    H     H_    0.665102 0.000702 0.703248 0.152692
C6    C     C_R   0.838490 0.284723 0.604866 -0.101052
C7    C     C_R   0.939580 0.314575 0.928663 -0.164377
C8    C     C_R   0.964132 0.389384 0.892252 -0.123098
C9    C     C_R   0.928003 0.368101 0.822996 -0.159402
C10   C     C_R   0.862089 0.270719 0.788355 0.104792
C11   C     C_R   0.826986 0.196071 0.826939 0.077052
C12   C     C_R   0.835502 0.243977 0.716594 0.028302
C13   C     C_R   0.774852 0.143388 0.685265 0.040781
C14   C     C_R   0.724327 0.075217 0.725479 -0.209387
C15   C     C_R   0.752767 0.100377 0.794743 -0.218733
C16   C     C_R   0.867483 0.313490 0.674700 -0.226427
C17   C     C_R   0.785874 0.185075 0.574800 -0.247903
C18   C     C_R   0.871306 0.218025 0.896839 -0.085182
H3    H     H_    0.906811 0.391703 0.694831 0.103855
H4    H     H_    0.975847 0.331719 0.981924 0.101465
H5    H     H_    0.955728 0.429342 0.798143 0.103881
H6    H     H_    0.016326 0.463992 0.917593 0.114672
H7    H     H_    0.716861 0.043365 0.822750 0.132082
C19   C     C_R   0.710509 0.178913 0.228484 0.095292
C20   C     C_R   0.866438 0.182702 0.184623 -0.106866
C21   C     C_R   0.022458 0.247647 0.210194 -0.178497
H8    H     H_    0.145760 0.253360 0.178258 0.132210
C22   C     C_R   0.015362 0.311188 0.275551 -0.177600
H9    H     H_    0.133513 0.363832 0.291968 0.125856
C23   C     C_R   0.851741 0.311994 0.317331 -0.108271
C24   C     C_R   0.703234 0.242112 0.293126 0.098518
C25   C     C_3   0.494672 0.260417 0.287313 -0.403021
C26   C     C_3   0.502478 0.191804 0.217026 -0.407544
H10   H     H_    0.466884 0.340666 0.286922 0.166616
H11   H     H_    0.405878 0.228311 0.323718 0.176456
H12   H     H_    0.479378 0.232114 0.175807 0.170465
H13   H     H_    0.417076 0.120453 0.212887 0.172555
C27   C     C_R   0.505272 0.754946 0.703936 0.100453
C28   C     C_R   0.351206 0.687616 0.682841 -0.106746
C29   C     C_R   0.192239 0.692411 0.727289 -0.173303
H14   H     H_    0.070075 0.641724 0.713167 0.126990
C30   C     C_R   0.194936 0.757179 0.792296 -0.183889
H15   H     H_    0.075142 0.754716 0.826359 0.128662
C31   C     C_R   0.357135 0.818681 0.814995 -0.104606
C32   C     C_R   0.508725 0.818418 0.768561 0.097602
C33   C     C_3   0.717036 0.800900 0.776387 -0.414958
C34   C     C_3   0.713055 0.732726 0.705895 -0.403437
H16   H     H_    0.742174 0.759352 0.816807 0.172603
H17   H     H_    0.807270 0.870389 0.779367 0.168846
H18   H     H_    0.737007 0.651770 0.705312 0.166975
H19   H     H_    0.798486 0.763725 0.668159 0.167356
C35   C     C_R   0.540537 0.866975 0.380262 -0.161008
H20   H     H_    0.551885 0.811798 0.470976 0.129090
H21   H     H_    0.618144 0.983138 0.294011 0.127256
H22   H     H_    0.629181 0.933099 0.401394 0.123258
C36   C     C_R   0.373645 0.715211 0.395680 -0.042015
C37   C     C_R   0.248336 0.693396 0.074129 -0.161396
C38   C     C_R   0.199916 0.622641 0.111879 -0.119551
C39   C     C_R   0.239732 0.642506 0.180815 -0.159521
C40   C     C_R   0.332517 0.734168 0.213740 0.077772
C41   C     C_R   0.389841 0.804460 0.173950 0.069156
C42   C     C_R   0.372803 0.757731 0.284544 0.072033
C43   C     C_R   0.482005 0.847024 0.312611 0.141129
C44   C     C_R   0.536813 0.914417 0.272634 -0.208903
C45   C     C_R   0.489392 0.894252 0.204646 -0.209731
C46   C     C_R   0.312201 0.694921 0.328444 -0.220513
C47   C     C_R   0.493247 0.799282 0.420448 -0.169411
C48   C     C_R   0.343279 0.784087 0.104293 -0.082456
H23   H     H_    0.225212 0.627368 0.311346 0.098863
H24   H     H_    0.209378 0.677962 0.021138 0.101102
H25   H     H_    0.197947 0.583971 0.206611 0.104539
H26   H     H_    0.127914 0.552352 0.087738 0.114155
H27   H     H_    0.535806 0.948931 0.176023 0.131901
O11   O     O_R   0.203450 0.916320 0.913910 -0.539599
O12   O     O_R   0.535520 0.888300 0.047620 -0.542230
O13   O     O_R   0.710860 0.083650 0.086100 -0.540621
C49   C     C_R   0.364238 0.861898 0.064572 0.688392
O14   O     O_R   0.532860 0.904250 0.912040 -0.544038
O15   O     O_R   0.708190 0.099710 0.949550 -0.540244
C50   C     C_R   0.364695 0.883293 0.884578 0.692537
O16   O     O_R   0.206120 0.900260 0.050460 -0.536127
O17   O     O_3   0.375280 0.064080 0.012470 -0.370829
V3    V     V_3+5 0.648180 0.988110 0.997690 1.405053
O18   O     O_R   0.038220 0.111740 0.952370 -0.538745
C51   C     C_R   0.871568 0.138606 0.935662 0.689895
O19   O     O_R   0.040880 0.095790 0.087940 -0.543842
C52   C     C_R   0.872417 0.117370 0.115219 0.691764
V4    V     V_3+5 0.148800 0.011950 0.002300 1.413622
O20   O     O_3   0.871820 0.935920 0.987530 -0.370669
O21   O     O_3   0.728528 0.012933 0.580478 -0.586227
C53   C     C_3   0.891977 0.953627 0.584036 0.043904
H28   H     H_    0.848755 0.872771 0.565694 0.138202
H29   H     H_    0.941579 0.961092 0.636856 0.123309
C54   C     C_3   0.059558 0.977392 0.539550 -0.331390
H30   H     H_    0.021023 0.951895 0.485230 0.196372
H31   H     H_    0.091803 0.059983 0.550320 0.198288
C55   C     C_3   0.241624 0.925509 0.553515 -0.784213
H32   H     H_    0.278374 0.947436 0.608132 0.234396
H33   H     H_    0.362507 0.950422 0.524599 0.256984
H34   H     H_    0.222338 0.841939 0.538212 0.216361

loop_
_geom_bond_atom_site_label_1
_geom_bond_atom_site_label_2
_ccdc_geom_bond_type
O17   V4    S    
C1    C28   S    
C39   C40   A    
C55   H32   S    
C1    O6    A    
C2    C36   S    
C45   H27   S    
C6    C16   A    
C28   C29   A    
C30   H15   S    
C53   H29   S    
C25   H11   S    
C12   C13   A    
C40   C42   A    
C33   H17   S    
C14   C15   A    
C5    O21   S    
C10   C12   A    
C27   C34   S    
O5    C3    A    
C19   C20   A    
C35   H22   S    
V2    O10   S    
C54   H30   S    
C33   H16   S    
C36   C47   A    
C19   C24   A    
C29   H14   S    
O8    V2    S    
C54   H31   S    
C9    C10   A    
O1    V2    S    
O12   C49   A    
O7    V1    S    
O15   C51   A    
O13   V3    S    
O16   V4    S    
C43   C44   A    
C37   C48   A    
C11   C18   A    
C21   C22   A    
C32   C33   S    
O9    C4    A    
C11   C15   A    
C22   C23   A    
C46   H23   S    
O19   V4    S    
O21   C53   S    
C7    C18   A    
O14   V3    S    
C20   C52   S    
C26   H12   S    
C29   C30   A    
H21   C44   S    
C53   C54   S    
O11   C50   A    
C40   C41   A    
C36   C46   A    
C5    C13   A    
C4    C6    S    
C10   C11   A    
C20   C21   A    
O4    C2    A    
C44   C45   A    
C26   H13   S    
C7    H4    S    
C31   C32   A    
C24   C25   S    
C48   C49   S    
O12   V3    S    
C33   C34   S    
C34   H18   S    
O2    C1    A    
O13   C52   A    
C27   C32   A    
O11   V4    S    
O17   V3    S    
O14   C50   A    
C55   H33   S    
C42   C43   A    
H2    C14   S    
C39   H25   S    
C19   C26   S    
V3    O20   S    
O3    C4    A    
C21   H8    S    
H20   C47   S    
O6    V2    S    
C9    H5    S    
O9    V2    S    
C5    C17   A    
C22   H9    S    
O2    V1    S    
O15   V3    S    
C27   C28   A    
C37   H24   S    
C35   C43   A    
C25   C26   S    
C16   H3    S    
O1    C2    A    
C23   C24   A    
C42   C46   A    
C38   C39   A    
O5    V1    S    
C38   H26   S    
O8    C3    A    
C54   C55   S    
C41   C48   A    
C12   C16   A    
C8    H6    S    
C53   H28   S    
C18   C51   S    
O7    V2    S    
O4    V1    S    
C3    C23   S    
O3    V1    S    
O18   V4    S    
C35   C47   A    
O19   C52   A    
C30   C31   A    
C55   H34   S    
C31   C50   S    
V4    O20   S    
C49   O16   A    
C25   H10   S    
C34   H19   S    
C37   C38   A    
O18   C51   A    
C15   H7    S    
C13   C14   A    
C8    C9    A    
V1    O10   S    
H1    C17   S    
C7    C8    A    
C41   C45   A    
C6    C17   A    
