data_str_m9_o7_o18_f0_sra.sym.134
_audit_creation_date              2012-12-11T17:36:12-0500
_audit_creation_method            fapswitch 2.2
_symmetry_space_group_name_H-M    P1
_symmetry_Int_Tables_number       1
_space_group_crystal_system       triclinic
_cell_length_a                    25.860708
_cell_length_b                    6.906228
_cell_length_c                    21.69091
_cell_angle_alpha                 89.999446
_cell_angle_beta                  96.011514
_cell_angle_gamma                 89.999613
_cell_volume                      3852.69174183

loop_
_atom_site_label
_atom_site_type_symbol
_atom_type_description
_atom_site_fract_x
_atom_site_fract_y
_atom_site_fract_z
_atom_type_partial_charge
O1    O     O_R   0.208650 0.594520 0.175450 -0.534774
O2    O     O_R   0.791350 0.405480 0.824550 -0.534774
O3    O     O_R   0.291350 0.094520 0.324550 -0.534775
O4    O     O_R   0.708650 0.905480 0.675450 -0.534775
O5    O     O_R   0.192980 0.260780 0.300160 -0.540810
O6    O     O_R   0.807020 0.739220 0.699840 -0.540810
O7    O     O_R   0.307020 0.760780 0.199840 -0.540810
O8    O     O_R   0.692980 0.239220 0.800160 -0.540810
C1    C     C_R   0.178929 0.432668 0.318520 0.691840
C2    C     C_R   0.821071 0.567332 0.681479 0.691840
C3    C     C_R   0.321071 0.932668 0.181479 0.691844
C4    C     C_R   0.678929 0.067332 0.818521 0.691843
O9    O     O_R   0.202550 0.264660 0.174420 -0.537590
O10   O     O_R   0.797450 0.735340 0.825580 -0.537590
O11   O     O_R   0.297450 0.764660 0.325580 -0.537590
O12   O     O_R   0.702550 0.235340 0.674420 -0.537590
O13   O     O_R   0.300990 0.096480 0.197920 -0.538481
O14   O     O_R   0.699010 0.903520 0.802080 -0.538480
O15   O     O_R   0.199010 0.596480 0.302080 -0.538480
O16   O     O_R   0.800990 0.403520 0.697920 -0.538480
C5    C     C_R   0.191086 0.433347 0.151138 0.696911
C6    C     C_R   0.808914 0.566653 0.848862 0.696910
C7    C     C_R   0.308914 0.933344 0.348862 0.696909
C8    C     C_R   0.691086 0.066656 0.651138 0.696910
O17   O     O_3   0.282290 0.427760 0.257860 -0.364383
O18   O     O_3   0.717710 0.572240 0.742140 -0.364383
O19   O     O_3   0.217710 0.927760 0.242140 -0.364382
O20   O     O_3   0.782290 0.072240 0.757860 -0.364382
V1    V     V_3+5 0.244010 0.152080 0.248540 1.412491
V2    V     V_3+5 0.755990 0.847920 0.751460 1.412491
V3    V     V_3+5 0.255990 0.652080 0.251460 1.412491
V4    V     V_3+5 0.744010 0.347920 0.748540 1.412491
C9    C     C_R   0.657416 0.060891 0.591955 -0.043424
C10   C     C_R   0.342584 0.939109 0.408045 -0.043424
C11   C     C_R   0.842584 0.560873 0.908045 -0.043413
C12   C     C_R   0.157416 0.439127 0.091955 -0.043412
C13   C     C_R   0.646622 0.120418 0.481575 -0.160693
C14   C     C_R   0.353378 0.879582 0.518424 -0.160693
C15   C     C_R   0.853369 0.620242 0.018432 -0.160688
C16   C     C_R   0.146631 0.379758 0.981568 -0.160688
C17   C     C_R   0.678262 0.112332 0.537489 -0.167927
C18   C     C_R   0.321738 0.887668 0.462511 -0.167926
C19   C     C_R   0.821731 0.612203 0.962516 -0.167935
C20   C     C_R   0.178269 0.387797 0.037484 -0.167935
C21   C     C_R   0.604085 0.018135 0.590228 -0.214939
C22   C     C_R   0.395915 0.981865 0.409772 -0.214939
C23   C     C_R   0.895918 0.518180 0.909768 -0.214935
C24   C     C_R   0.104082 0.481820 0.090232 -0.214935
C25   C     C_R   0.570558 0.028560 0.533735 0.086774
C26   C     C_R   0.429442 0.971439 0.466265 0.086774
C27   C     C_R   0.929441 0.528550 0.966264 0.086776
C28   C     C_R   0.070559 0.471450 0.033736 0.086776
C29   C     C_R   0.593231 0.080402 0.479227 0.139512
C30   C     C_R   0.406769 0.919598 0.520773 0.139511
C31   C     C_R   0.906763 0.580281 0.020778 0.139512
C32   C     C_R   0.093237 0.419719 0.979221 0.139512
C33   C     C_R   0.515537 0.992014 0.529384 0.058040
C34   C     C_R   0.484463 0.007986 0.470616 0.058040
C35   C     C_R   0.984465 0.492047 0.970614 0.058041
C36   C     C_R   0.015535 0.507953 0.029386 0.058041
C37   C     C_R   0.509475 0.059366 0.418197 -0.187352
C38   C     C_R   0.490525 0.940634 0.581803 -0.187352
C39   C     C_R   0.990518 0.559225 0.081810 -0.187351
C40   C     C_R   0.009482 0.440775 0.918189 -0.187351
C41   C     C_R   0.562583 0.094306 0.422586 -0.201906
C42   C     C_R   0.437417 0.905694 0.577414 -0.201906
C43   C     C_R   0.937407 0.594123 0.077423 -0.201907
C44   C     C_R   0.062593 0.405877 0.922577 -0.201907
H1    H     H_    0.579880 0.133924 0.380933 0.122798
H2    H     H_    0.420120 0.866076 0.619067 0.122798
H3    H     H_    0.920106 0.633656 0.119080 0.122797
H4    H     H_    0.079894 0.366343 0.880920 0.122797
H5    H     H_    0.409912 0.018133 0.366169 0.094038
H6    H     H_    0.590088 0.981867 0.633831 0.094038
H7    H     H_    0.090081 0.518008 0.133838 0.094030
H8    H     H_    0.909919 0.481991 0.866161 0.094030
H9    H     H_    0.280831 0.852430 0.461621 0.103751
H10   H     H_    0.719169 0.147570 0.538379 0.103751
H11   H     H_    0.219179 0.352612 0.038371 0.103747
H12   H     H_    0.780821 0.647388 0.961629 0.103746
H13   H     H_    0.663892 0.160743 0.439993 0.112773
H14   H     H_    0.336108 0.839257 0.560007 0.112773
H15   H     H_    0.836094 0.660480 0.060020 0.112772
H16   H     H_    0.163906 0.339520 0.939980 0.112772
H17   H     H_    0.489056 0.074556 0.372614 0.123675
H18   H     H_    0.510944 0.925444 0.627386 0.123676
H19   H     H_    0.010933 0.574360 0.127397 0.123675
H20   H     H_    0.989067 0.425640 0.872603 0.123675
C45   C     C_R   0.437254 0.799287 0.093781 0.173262
C46   C     C_R   0.562746 0.200711 0.906219 0.173264
C47   C     C_R   0.062746 0.299290 0.406219 0.173264
C48   C     C_R   0.937254 0.700711 0.593781 0.173263
C49   C     C_R   0.396976 0.787265 0.132945 -0.208785
C50   C     C_R   0.603024 0.212734 0.867055 -0.208783
C51   C     C_R   0.103024 0.287267 0.367055 -0.208784
C52   C     C_R   0.896976 0.712734 0.632945 -0.208786
H21   H     H_    0.392558 0.656052 0.159275 0.124105
H22   H     H_    0.607441 0.343947 0.840725 0.124105
H23   H     H_    0.107441 0.156056 0.340725 0.124105
H24   H     H_    0.892558 0.843945 0.659275 0.124105
C53   C     C_R   0.363185 0.944172 0.139380 -0.078969
C54   C     C_R   0.636815 0.055828 0.860620 -0.078971
C55   C     C_R   0.136815 0.444172 0.360620 -0.078970
C56   C     C_R   0.863185 0.555828 0.639380 -0.078969
C57   C     C_R   0.369831 0.113458 0.104966 -0.173840
C58   C     C_R   0.630170 0.886542 0.895034 -0.173839
C59   C     C_R   0.130170 0.613456 0.395034 -0.173841
C60   C     C_R   0.869831 0.386544 0.604966 -0.173842
H25   H     H_    0.344334 0.236628 0.108234 0.126388
H26   H     H_    0.655666 0.763371 0.891766 0.126387
H27   H     H_    0.155666 0.736625 0.391765 0.126387
H28   H     H_    0.844334 0.263375 0.608235 0.126388
C61   C     C_R   0.408856 0.125455 0.065017 -0.192167
C62   C     C_R   0.591144 0.874544 0.934983 -0.192167
C63   C     C_R   0.091144 0.625455 0.434982 -0.192166
C64   C     C_R   0.908856 0.374546 0.565018 -0.192167
H29   H     H_    0.412334 0.256536 0.038321 0.118714
H30   H     H_    0.587666 0.743463 0.961679 0.118713
H31   H     H_    0.087666 0.756534 0.461679 0.118713
H32   H     H_    0.912334 0.243467 0.538322 0.118714
C65   C     C_R   0.443019 0.970677 0.059223 0.112862
C66   C     C_R   0.556981 0.029321 0.940777 0.112861
C67   C     C_R   0.056981 0.470678 0.440776 0.112861
C68   C     C_R   0.943020 0.529323 0.559224 0.112863
C69   C     C_1   0.483232 0.991079 0.017393 -0.056784
C70   C     C_1   0.516768 0.008918 0.982607 -0.056788
C71   C     C_1   0.016768 0.491081 0.482607 -0.056788
C72   C     C_1   0.983232 0.508920 0.517393 -0.056785
C73   C     C_3   0.473032 0.627632 0.089346 -0.380906
C74   C     C_3   0.526269 0.663428 0.124942 -0.745193
H33   H     H_    0.546111 0.787821 0.105191 0.229644
H34   H     H_    0.522042 0.692893 0.174517 0.226970
H35   H     H_    0.550939 0.532835 0.121993 0.215595
H36   H     H_    0.456229 0.496269 0.109075 0.181611
H37   H     H_    0.477410 0.595569 0.039969 0.177173
C75   C     C_3   0.526968 0.372366 0.910655 -0.380906
C76   C     C_3   0.473732 0.336571 0.875056 -0.745203
H38   H     H_    0.477959 0.307128 0.825481 0.226971
H39   H     H_    0.453891 0.212166 0.894801 0.229647
H40   H     H_    0.449060 0.467156 0.878011 0.215597
H41   H     H_    0.522589 0.404425 0.960031 0.177174
H42   H     H_    0.543771 0.503730 0.890926 0.181612
C77   C     C_3   0.026968 0.127637 0.410655 -0.380907
C78   C     C_3   0.973731 0.163438 0.375057 -0.745200
H43   H     H_    0.953891 0.287841 0.394803 0.229646
H44   H     H_    0.977958 0.192886 0.325482 0.226970
H45   H     H_    0.949059 0.032853 0.378011 0.215596
H46   H     H_    0.043771 0.996273 0.390926 0.181612
H47   H     H_    0.022589 0.095574 0.460031 0.177174
C79   C     C_3   0.973032 0.872364 0.589346 -0.380906
C80   C     C_3   0.026269 0.836562 0.624942 -0.745194
H48   H     H_    0.022043 0.807095 0.674517 0.226970
H49   H     H_    0.046111 0.712169 0.605191 0.229643
H50   H     H_    0.050939 0.967154 0.621993 0.215596
H51   H     H_    0.977410 0.904430 0.539969 0.177173
H52   H     H_    0.956229 0.003727 0.609076 0.181612

loop_
_geom_bond_atom_site_label_1
_geom_bond_atom_site_label_2
_ccdc_geom_bond_type
O17   V3    S    
C25   C29   A    
O1    C5    A    
O19   V1    S    
C9    C21   A    
C16   H16   S    
O3    C7    A    
C10   C18   A    
C48   C52   A    
O15   V3    S    
C45   C73   S    
C33   C38   A    
C5    C12   S    
O7    C3    A    
C6    C11   S    
C38   H18   S    
O5    C1    A    
C26   C30   A    
C58   C62   A    
C36   C39   A    
C40   C44   A    
C57   C61   A    
C23   H8    S    
C14   C18   A    
C48   C68   A    
C58   H26   S    
O4    C8    A    
C51   H23   S    
C44   H4    S    
C43   H3    S    
C50   H22   S    
C77   C78   S    
O1    V3    S    
O13   V1    S    
C31   C43   A    
O2    V4    S    
C80   H50   S    
O3    V1    S    
C75   H42   S    
C28   C36   A    
C65   C69   S    
C73   H37   S    
C1    O15   A    
C15   C31   A    
C2    O16   A    
C16   C32   A    
O2    C6    A    
C77   H47   S    
C80   H48   S    
C54   C58   A    
C10   C22   A    
C21   C25   A    
C11   C19   A    
O5    V1    S    
C1    C55   S    
C68   C72   S    
C13   C29   A    
C34   C37   A    
O11   C7    A    
C11   C23   A    
C35   C36   A    
O12   C8    A    
C47   C67   A    
C14   H14   S    
O17   V1    S    
C46   C66   A    
C24   H7    S    
C13   H13   S    
O10   V2    S    
C78   H45   S    
C51   C55   A    
C46   C50   A    
C47   C77   S    
C53   C57   A    
C77   H46   S    
C76   H40   S    
C39   C43   A    
O7    V3    S    
C38   C42   A    
O19   V3    S    
C26   C34   A    
O20   V4    S    
C63   C67   A    
C78   H44   S    
C49   C53   A    
C17   H10   S    
O18   V4    S    
C78   H43   S    
C15   C19   A    
C19   H12   S    
C32   C44   A    
C45   C49   A    
C64   H32   S    
C21   H6    S    
O8    V4    S    
C66   C70   S    
C74   H34   S    
C4    C54   S    
C75   H41   S    
C37   C41   A    
C76   H39   S    
C67   C71   S    
C14   C30   A    
C24   C28   A    
O8    C4    A    
C7    C10   S    
C35   C40   A    
O9    C5    A    
C3    C53   S    
C59   C63   A    
C62   H30   S    
C37   H17   S    
C61   H29   S    
O6    V2    S    
O18   V2    S    
C63   H31   S    
C79   H51   S    
C52   C56   A    
C48   C79   S    
C69   C70   T    
C12   C20   A    
C74   H35   S    
C27   C35   A    
C71   C72   T    
C49   H21   S    
C56   C60   A    
C29   C41   A    
C73   C74   S    
O16   V4    S    
O9    V1    S    
C57   H25   S    
C3    O13   A    
C64   C68   A    
C39   H19   S    
C59   H27   S    
C20   H11   S    
C75   C76   S    
O6    C2    A    
C25   C33   A    
C23   C27   A    
O11   V3    S    
C30   C42   A    
O12   V4    S    
C76   H38   S    
C22   C26   A    
C8    C9    S    
C9    C17   A    
O10   C6    A    
C2    C56   S    
C74   H33   S    
C15   H15   S    
C60   C64   A    
C33   C34   A    
C42   H2    S    
C45   C65   A    
C41   H1    S    
C52   H24   S    
O20   V2    S    
C46   C75   S    
C12   C24   A    
C27   C31   A    
C80   H49   S    
C13   C17   A    
C79   H52   S    
O14   V2    S    
C47   C51   A    
C73   H36   S    
C62   C66   A    
C60   H28   S    
C16   C20   A    
C61   C65   A    
C50   C54   A    
C18   H9    S    
C4    O14   A    
C79   C80   S    
C55   C59   A    
C40   H20   S    
C22   H5    S    
O4    V2    S    
C28   C32   A    
