data_str_m9_o2_o16_f0_sra.sym.52
_audit_creation_date              2012-12-11T16:25:32-0500
_audit_creation_method            fapswitch 2.2
_symmetry_space_group_name_H-M    P1
_symmetry_Int_Tables_number       1
_space_group_crystal_system       triclinic
_cell_length_a                    20.229025
_cell_length_b                    7.268234
_cell_length_c                    13.415007
_cell_angle_alpha                 89.999266
_cell_angle_beta                  103.301414
_cell_angle_gamma                 90.001364
_cell_volume                      1919.48575665

loop_
_atom_site_label
_atom_site_type_symbol
_atom_type_description
_atom_site_fract_x
_atom_site_fract_y
_atom_site_fract_z
_atom_type_partial_charge
O1    O     O_R   0.449520 0.506760 0.599710 -0.532961
O2    O     O_R   0.550480 0.006760 0.400290 -0.532967
O3    O     O_R   0.587930 0.180200 0.595790 -0.533660
O4    O     O_R   0.412070 0.680200 0.404210 -0.533655
C1    C     C_R   0.614460 0.344462 0.617302 0.694463
C2    C     C_R   0.385538 0.844460 0.382700 0.694463
O5    O     O_R   0.452350 0.177380 0.611700 -0.545057
O6    O     O_R   0.547650 0.677380 0.388300 -0.545058
O7    O     O_R   0.413930 0.001760 0.416320 -0.537329
O8    O     O_R   0.586070 0.501760 0.583680 -0.537314
C3    C     C_R   0.436360 0.345586 0.637878 0.685695
C4    C     C_R   0.563642 0.845590 0.362125 0.685707
O9    O     O_3   0.487550 0.337460 0.435880 -0.378289
O10   O     O_3   0.512450 0.837460 0.564120 -0.378281
V1    V     V_3+5 0.502310 0.064670 0.511900 1.436128
V2    V     V_3+5 0.497690 0.564670 0.488100 1.436143
C5    C     C_R   0.611236 0.910082 0.110156 -0.167125
C6    C     C_R   0.388772 0.409753 0.889875 -0.167134
H1    H     H_    0.518163 0.921463 0.160401 0.101968
H2    H     H_    0.481847 0.421166 0.839638 0.101941
H3    H     H_    0.693956 0.909895 0.983668 0.143167
H4    H     H_    0.306051 0.409372 0.016362 0.143149
H5    H     H_    0.585895 0.936382 0.031048 0.115400
H6    H     H_    0.414117 0.435899 0.968998 0.115389
C7    C     C_R   0.603529 0.855162 0.284259 -0.029608
C8    C     C_R   0.396471 0.355132 0.715742 -0.029579
C9    C     C_R   0.932399 0.846513 0.319163 -0.189532
C10   C     C_R   0.067601 0.346750 0.680827 -0.189505
C11   C     C_R   0.898386 0.855462 0.397566 -0.160416
C12   C     C_R   0.101616 0.355792 0.602431 -0.160428
C13   C     C_R   0.827694 0.871612 0.376490 -0.035799
C14   C     C_R   0.172310 0.371843 0.623516 -0.035802
C15   C     C_R   0.788535 0.863820 0.272695 0.015228
C16   C     C_R   0.211467 0.363852 0.727308 0.015219
C17   C     C_R   0.824978 0.866135 0.192846 0.056264
C18   C     C_R   0.175024 0.366052 0.807158 0.056261
C19   C     C_R   0.715500 0.862336 0.243613 0.058222
C20   C     C_R   0.284502 0.362286 0.756390 0.058219
C21   C     C_R   0.682107 0.889791 0.139066 0.137808
C22   C     C_R   0.317898 0.389542 0.860953 0.137800
C23   C     C_R   0.719296 0.894644 0.063749 -0.190774
C24   C     C_R   0.280710 0.394274 0.936272 -0.190768
C25   C     C_R   0.789327 0.879042 0.089777 -0.191021
C26   C     C_R   0.210676 0.378754 0.910234 -0.191025
C27   C     C_R   0.673800 0.828573 0.312989 -0.215505
C28   C     C_R   0.326197 0.328626 0.686997 -0.215507
C29   C     C_R   0.572463 0.899477 0.183199 -0.181114
C30   C     C_R   0.427544 0.399255 0.816826 -0.181105
C31   C     C_R   0.896867 0.859002 0.217345 -0.066084
C32   C     C_R   0.103133 0.359029 0.782654 -0.066082
H7    H     H_    0.693786 0.776100 0.388860 0.124388
H8    H     H_    0.306204 0.276277 0.611101 0.124379
H9    H     H_    0.987163 0.836901 0.338533 0.106027
H10   H     H_    0.012835 0.337236 0.661448 0.106002
H11   H     H_    0.928066 0.857068 0.475994 0.125968
H12   H     H_    0.071937 0.357556 0.524004 0.125960
H13   H     H_    0.815487 0.881763 0.027882 0.129231
H14   H     H_    0.184516 0.381380 0.972130 0.129229
H15   H     H_    0.101568 0.950968 0.474537 0.110870
H16   H     H_    0.898445 0.450482 0.525437 0.110839
C33   C     C_R   0.234064 0.839667 0.034401 -0.137987
C34   C     C_R   0.765931 0.339937 0.965607 -0.137994
C35   C     C_R   0.290883 0.830441 0.992343 -0.098859
C36   C     C_R   0.709109 0.330839 0.007667 -0.098869
C37   C     C_R   0.355633 0.821382 0.055866 -0.141091
C38   C     C_R   0.644359 0.321779 0.944145 -0.141096
C39   C     C_R   0.364117 0.824788 0.161953 -0.142433
C40   C     C_R   0.635877 0.325055 0.838056 -0.142412
C41   C     C_R   0.307561 0.839345 0.206844 0.069812
C42   C     C_R   0.692435 0.339483 0.793163 0.069811
C43   C     C_R   0.241139 0.844843 0.141812 0.058489
C44   C     C_R   0.758857 0.344979 0.858194 0.058479
C45   C     C_R   0.316428 0.852734 0.314557 -0.171723
C46   C     C_R   0.683570 0.352736 0.685445 -0.171717
C47   C     C_R   0.259053 0.877462 0.357064 0.082873
C48   C     C_R   0.740949 0.377320 0.642930 0.082847
C49   C     C_R   0.192634 0.881335 0.292075 0.080740
C50   C     C_R   0.807368 0.381192 0.707920 0.080741
C51   C     C_R   0.183522 0.860225 0.184658 -0.172902
C52   C     C_R   0.816477 0.360220 0.815344 -0.172892
C53   C     C_R   0.266471 0.899063 0.463986 -0.106016
C54   C     C_R   0.733535 0.398789 0.536000 -0.106028
C55   C     C_R   0.210031 0.925262 0.505506 -0.103672
C56   C     C_R   0.789979 0.424864 0.494473 -0.103656
C57   C     C_R   0.145231 0.929908 0.441964 -0.110646
C58   C     C_R   0.854779 0.429513 0.558016 -0.110641
C59   C     C_R   0.136421 0.908015 0.336475 -0.119135
C60   C     C_R   0.863584 0.407746 0.663512 -0.119088
H17   H     H_    0.184728 0.845029 0.981813 0.109380
H18   H     H_    0.815267 0.345299 0.018194 0.109371
H19   H     H_    0.284573 0.828126 0.909983 0.127470
H20   H     H_    0.715418 0.328622 0.090027 0.127459
H21   H     H_    0.399539 0.812025 0.022773 0.116034
H22   H     H_    0.600451 0.312518 0.977240 0.116012
H23   H     H_    0.415409 0.818407 0.208352 0.086610
H24   H     H_    0.584586 0.318671 0.791657 0.086578
H25   H     H_    0.085282 0.913944 0.289834 0.083014
H26   H     H_    0.914721 0.413679 0.710157 0.082967
O11   O     O_R   0.913760 0.203480 0.916370 -0.532452
O12   O     O_R   0.086240 0.703480 0.083630 -0.532447
O13   O     O_R   0.047590 0.535230 0.888250 -0.540739
O14   O     O_R   0.952410 0.035230 0.111750 -0.540746
C61   C     C_R   0.063765 0.368068 0.861941 0.673712
C62   C     C_R   0.936235 0.868063 0.138058 0.673709
O15   O     O_R   0.912020 0.532880 0.904260 -0.537742
O16   O     O_R   0.087980 0.032880 0.095740 -0.537755
O17   O     O_R   0.949590 0.708460 0.099750 -0.536596
O18   O     O_R   0.050410 0.208460 0.900250 -0.536599
C63   C     C_R   0.885775 0.365250 0.883349 0.683496
C64   C     C_R   0.114224 0.865252 0.116653 0.683486
O19   O     O_3   0.012370 0.375360 0.064120 -0.376235
O20   O     O_3   0.987630 0.875360 0.935880 -0.376229
V3    V     V_3+5 0.997700 0.648160 0.988110 1.427384
V4    V     V_3+5 0.002300 0.148160 0.011890 1.427355
H27   H     H_    0.315827 0.896402 0.516582 0.101853
H28   H     H_    0.684179 0.396127 0.483405 0.101833
H29   H     H_    0.216644 0.942358 0.587392 0.114498
H30   H     H_    0.783370 0.441865 0.412581 0.114492
C65   C     C_1   0.800439 0.918052 0.463799 0.276467
N1    N     N_1   0.779325 0.955205 0.534470 -0.350028
C66   C     C_1   0.199575 0.418382 0.536229 0.276461
N2    N     N_1   0.220695 0.455611 0.465574 -0.350049

loop_
_geom_bond_atom_site_label_1
_geom_bond_atom_site_label_2
_ccdc_geom_bond_type
C38   C40   A    
C35   C37   A    
O12   C64   A    
C9    C11   A    
O13   V3    S    
O1    C3    A    
O2    C4    A    
C31   C62   S    
C43   C51   A    
O3    V1    S    
C21   C23   A    
O5    C3    A    
C5    H5    S    
C46   C48   A    
O16   V4    S    
C6    H6    S    
O15   V3    S    
C20   C22   A    
C56   C58   A    
C58   C60   A    
C27   H7    S    
O11   C63   A    
C28   H8    S    
C2    O7    A    
C41   C43   A    
C5    C21   A    
O18   V4    S    
C1    C46   S    
C33   C35   A    
C6    C22   A    
O17   V3    S    
C34   C36   A    
C10   C32   A    
C26   H14   S    
C37   C39   A    
C52   C63   S    
C17   C31   A    
C13   C15   A    
C41   C45   A    
C61   O18   A    
C17   C25   A    
C7    C29   A    
C16   C18   A    
C8    C30   A    
C38   H22   S    
C33   C43   A    
C57   C59   A    
C32   C61   S    
O6    V2    S    
C39   H23   S    
C45   C47   A    
C24   C26   A    
O11   V4    S    
C11   C13   A    
O20   V3    S    
C53   C55   A    
C33   H17   S    
C49   C51   A    
O12   V3    S    
O4    C2    A    
C48   C54   A    
C10   H10   S    
C47   C53   A    
O5    V1    S    
C11   H11   S    
C3    C8    S    
C12   H12   S    
C15   C19   A    
C39   C41   A    
C36   C38   A    
O4    V2    S    
H15   C57   S    
C42   C46   A    
O14   V4    S    
O6    C4    A    
C53   H27   S    
C25   H13   S    
C34   C44   A    
O1    V2    S    
C40   H24   S    
O14   C62   A    
O2    V1    S    
C47   C49   A    
C13   C65   S    
C66   N2    T    
H2    C30   S    
H3    C23   S    
C40   C42   A    
C55   C57   A    
C54   C56   A    
C56   H30   S    
C18   C26   A    
C36   H20   S    
C19   C27   A    
C7    C27   A    
C18   C32   A    
C2    C45   S    
O16   C64   A    
C50   C60   A    
O15   C63   A    
H16   C58   S    
C51   C64   S    
C16   C20   A    
C14   C66   S    
C23   C25   A    
C5    C29   A    
C48   C50   A    
O3    C1    A    
C6    C30   A    
C65   N1    T    
C9    H9    S    
O13   C61   A    
C4    C7    S    
C55   H29   S    
C10   C12   A    
O7    V1    S    
C54   H28   S    
C1    O8    A    
C19   C21   A    
O8    V2    S    
C12   C14   A    
H4    C24   S    
C34   H18   S    
C22   C24   A    
C37   H21   S    
C15   C17   A    
H1    C29   S    
O19   V4    S    
C50   C52   A    
C20   C28   A    
C8    C28   A    
C49   C59   A    
C44   C52   A    
O9    V2    S    
C35   H19   S    
O10   V1    S    
C42   C44   A    
C62   O17   A    
C60   H26   S    
C9    C31   A    
C14   C16   A    
C59   H25   S    
