data_str_m9_o4_o18_f0_sra.sym.18
_audit_creation_date              2012-12-11T17:02:12-0500
_audit_creation_method            fapswitch 2.2
_symmetry_space_group_name_H-M    P1
_symmetry_Int_Tables_number       1
_space_group_crystal_system       triclinic
_cell_length_a                    21.625025
_cell_length_b                    7.060903
_cell_length_c                    14.83604
_cell_angle_alpha                 90.000712
_cell_angle_beta                  105.959603
_cell_angle_gamma                 89.999628
_cell_volume                      2178.03162743

loop_
_atom_site_label
_atom_site_type_symbol
_atom_type_description
_atom_site_fract_x
_atom_site_fract_y
_atom_site_fract_z
_atom_type_partial_charge
O1    O     O_R   0.585850 0.505770 0.002130 -0.537268
O2    O     O_R   0.414150 0.005770 0.997870 -0.537266
O3    O     O_R   0.467530 0.173560 0.861970 -0.537946
O4    O     O_R   0.532470 0.673560 0.138030 -0.537948
C1    C     C_R   0.455464 0.344210 0.825304 0.685452
C2    C     C_R   0.544538 0.844212 0.174695 0.685448
O5    O     O_R   0.588690 0.175900 0.993250 -0.544524
O6    O     O_R   0.411310 0.675900 0.006750 -0.544519
O7    O     O_R   0.536170 0.007950 0.130090 -0.538157
O8    O     O_R   0.463830 0.507950 0.869910 -0.538157
C3    C     C_R   0.615128 0.344621 0.997912 0.691584
C4    C     C_R   0.384872 0.844623 0.002089 0.691585
O9    O     O_3   0.482630 0.339970 0.044740 -0.372371
O10   O     O_3   0.517370 0.839970 0.955260 -0.372374
V1    V     V_3+5 0.503220 0.064200 0.991700 1.408825
V2    V     V_3+5 0.496780 0.564200 0.008300 1.408825
C5    C     C_R   0.292719 0.005190 0.044896 0.096517
C6    C     C_R   0.707284 0.505226 0.955137 0.096539
C7    C     C_R   0.316798 0.852571 0.004446 -0.105202
C8    C     C_R   0.683201 0.352571 0.995554 -0.105230
C9    C     C_R   0.273958 0.702783 0.968555 -0.178013
C10   C     C_R   0.726039 0.202766 0.031423 -0.178041
H1    H     H_    0.290328 0.580450 0.937782 0.130925
H2    H     H_    0.709667 0.080417 0.062179 0.130987
C11   C     C_R   0.208399 0.715220 0.966128 -0.184864
C12   C     C_R   0.791597 0.215204 0.033852 -0.184843
H3    H     H_    0.176393 0.601117 0.934426 0.136897
H4    H     H_    0.823601 0.101081 0.065534 0.136888
C13   C     C_R   0.183834 0.877588 0.999804 -0.102226
C14   C     C_R   0.816167 0.377593 0.000204 -0.102227
C15   C     C_R   0.228158 0.016993 0.042993 0.107043
C16   C     C_R   0.771847 0.517037 0.957048 0.107092
C17   C     C_3   0.226821 0.226144 0.029443 -0.414497
C18   C     C_3   0.773193 0.726166 0.970679 -0.414503
C19   C     C_3   0.297346 0.213253 0.031003 -0.403454
C20   C     C_3   0.702666 0.713268 0.969101 -0.403445
H5    H     H_    0.218932 0.302811 0.090739 0.202439
H6    H     H_    0.781093 0.802935 0.909419 0.202383
H7    H     H_    0.194863 0.269293 0.960391 0.174710
H8    H     H_    0.805144 0.769208 0.039755 0.174690
H9    H     H_    0.330056 0.283814 0.092947 0.174738
H10   H     H_    0.669963 0.783909 0.907176 0.174747
H11   H     H_    0.306218 0.247756 0.962511 0.168725
H12   H     H_    0.693789 0.747678 0.037600 0.168719
C21   C     C_R   0.926601 0.883037 0.723557 -0.107383
C22   C     C_R   0.073404 0.383051 0.276442 -0.107388
C23   C     C_R   0.572654 0.848790 0.276091 -0.031163
C24   C     C_R   0.427352 0.348782 0.723907 -0.031173
C25   C     C_R   0.940145 0.861354 0.567847 -0.143223
C26   C     C_R   0.059865 0.361379 0.432154 -0.143216
C27   C     C_R   0.966419 0.862810 0.664575 -0.265458
C28   C     C_R   0.033588 0.362840 0.335427 -0.265601
C29   C     C_R   0.859612 0.894915 0.685999 0.345793
C30   C     C_R   0.140394 0.394929 0.313995 0.345793
C31   C     C_R   0.831588 0.864228 0.588189 -0.072755
C32   C     C_R   0.168421 0.364249 0.411805 -0.072770
C33   C     C_R   0.873048 0.864192 0.528680 -0.015654
C34   C     C_R   0.126961 0.364207 0.471316 -0.015556
C35   C     C_R   0.764045 0.839862 0.547537 0.060392
C36   C     C_R   0.235965 0.339878 0.452455 0.060406
C37   C     C_R   0.737653 0.856317 0.448534 -0.015416
C38   C     C_R   0.262357 0.356309 0.551458 -0.015369
C39   C     C_R   0.780503 0.873558 0.392290 -0.256858
C40   C     C_R   0.219507 0.373500 0.607706 -0.257004
C41   C     C_R   0.847002 0.867861 0.430965 0.420643
C42   C     C_R   0.153009 0.367832 0.569029 0.420460
C43   C     C_R   0.722777 0.787133 0.602246 -0.138732
C44   C     C_R   0.277234 0.287156 0.397745 -0.138771
C45   C     C_R   0.656852 0.773747 0.563731 -0.243883
C46   C     C_R   0.343158 0.273748 0.436262 -0.243889
C47   C     C_R   0.629572 0.805750 0.468492 0.148469
C48   C     C_R   0.370438 0.305737 0.531504 0.148468
C49   C     C_R   0.669401 0.846881 0.409086 0.110438
C50   C     C_R   0.330609 0.346876 0.590908 0.110438
C51   C     C_R   0.562708 0.788681 0.431534 -0.168385
C52   C     C_R   0.437301 0.288648 0.568465 -0.168383
C53   C     C_R   0.534571 0.807412 0.335689 -0.177140
C54   C     C_R   0.465436 0.307378 0.664312 -0.177137
C55   C     C_R   0.639129 0.872041 0.312283 -0.215093
C56   C     C_R   0.360879 0.372053 0.687710 -0.215091
H13   H     H_    0.665670 0.905050 0.262551 0.092697
H14   H     H_    0.334337 0.405100 0.737437 0.092712
H15   H     H_    0.483202 0.786649 0.307705 0.105894
H16   H     H_    0.516804 0.286597 0.692300 0.105895
H17   H     H_    0.627053 0.734288 0.608759 0.124860
H18   H     H_    0.372957 0.234288 0.391234 0.124857
H19   H     H_    0.972665 0.855643 0.523923 0.155407
H20   H     H_    0.027347 0.355665 0.476081 0.155495
H21   H     H_    0.018104 0.854250 0.693473 0.130582
H22   H     H_    0.981902 0.354291 0.306534 0.130619
H23   H     H_    0.764230 0.883106 0.317074 0.139883
H24   H     H_    0.235781 0.382952 0.682926 0.139883
H25   H     H_    0.740690 0.745630 0.674703 0.177908
H26   H     H_    0.259321 0.245667 0.325285 0.177907
H27   H     H_    0.532325 0.755519 0.476606 0.119442
H28   H     H_    0.467685 0.255475 0.523396 0.119442
O11   O     O_R   0.036080 0.231270 0.130120 -0.538628
O12   O     O_R   0.963920 0.731270 0.869880 -0.538641
O13   O     O_R   0.911300 0.558970 0.006750 -0.539342
O14   O     O_R   0.088700 0.058970 0.993250 -0.539341
C57   C     C_R   0.884967 0.389964 0.002412 0.685894
C58   C     C_R   0.115033 0.889963 0.997592 0.685879
O15   O     O_R   0.032450 0.561140 0.138040 -0.546383
O16   O     O_R   0.967550 0.061140 0.861960 -0.546385
O17   O     O_R   0.085870 0.728910 0.002130 -0.538854
O18   O     O_R   0.914130 0.228910 0.997870 -0.538853
C59   C     C_R   0.045054 0.392494 0.175025 0.753867
C60   C     C_R   0.954948 0.892491 0.824975 0.753849
O19   O     O_3   0.017320 0.394650 0.955270 -0.376509
O20   O     O_3   0.982680 0.894650 0.044730 -0.376479
V3    V     V_3+5 0.996780 0.670490 0.008300 1.418106
V4    V     V_3+5 0.003220 0.170490 0.991700 1.418077
O21   O     O_3   0.822760 0.945077 0.745199 -0.579866
C61   C     C_3   0.808338 0.140725 0.734780 0.089196
H29   H     H_    0.797890 0.190573 0.660701 0.123119
H30   H     H_    0.849403 0.223795 0.778478 0.138243
C62   C     C_3   0.749035 0.181291 0.767831 -0.730353
H31   H     H_    0.756409 0.129648 0.840550 0.234849
H32   H     H_    0.739669 0.336097 0.765631 0.179263
H33   H     H_    0.706479 0.108741 0.721618 0.221734
O22   O     O_3   0.177243 0.445080 0.254791 -0.579880
C63   C     C_3   0.191669 0.640725 0.265210 0.089173
H34   H     H_    0.202113 0.690583 0.339287 0.123116
H35   H     H_    0.150609 0.723800 0.221505 0.138249
C64   C     C_3   0.250977 0.681266 0.232168 -0.730384
H36   H     H_    0.243598 0.629675 0.159439 0.234852
H37   H     H_    0.260362 0.836062 0.234401 0.179276
H38   H     H_    0.293524 0.608651 0.278365 0.221747
O23   O     O_3   0.886538 0.882089 0.372080 -0.560433
C65   C     C_3   0.898667 0.699715 0.340964 0.078740
H39   H     H_    0.878846 0.579425 0.373443 0.108957
H40   H     H_    0.951578 0.679644 0.359225 0.145303
C66   C     C_3   0.872215 0.687755 0.234813 -0.708229
H41   H     H_    0.893442 0.801410 0.200951 0.223814
H42   H     H_    0.884435 0.548277 0.209660 0.171614
H43   H     H_    0.819088 0.703446 0.214386 0.205396
O24   O     O_3   0.113473 0.381944 0.627918 -0.560410
C67   C     C_3   0.101454 0.199546 0.659117 0.078643
H44   H     H_    0.121577 0.079353 0.626984 0.109008
H45   H     H_    0.048565 0.178883 0.640537 0.145221
C68   C     C_3   0.127614 0.188164 0.765314 -0.708007
H46   H     H_    0.106076 0.301620 0.798864 0.223932
H47   H     H_    0.115528 0.048590 0.790517 0.171553
H48   H     H_    0.180718 0.204607 0.786037 0.205335

loop_
_geom_bond_atom_site_label_1
_geom_bond_atom_site_label_2
_ccdc_geom_bond_type
C14   C16   A    
C39   C41   A    
C31   C35   A    
C25   H19   S    
C28   H22   S    
O1    C3    A    
C23   C55   A    
C48   C52   A    
O2    C4    A    
C2    O7    A    
C61   H29   S    
C51   H27   S    
O18   V4    S    
O5    C3    A    
C17   H7    S    
C18   H8    S    
O15   V3    S    
C7    C9    A    
C52   C54   A    
O21   C61   S    
O19   V3    S    
C17   C19   S    
C21   C27   A    
C22   C28   A    
C25   C33   A    
C14   C57   S    
C58   O17   A    
C36   C38   A    
C24   C54   A    
C45   C47   A    
O20   V3    S    
C38   C40   A    
C35   C43   A    
C20   H10   S    
C34   C42   A    
C25   C27   A    
C66   H43   S    
C26   C28   A    
C15   C17   S    
C19   H11   S    
C6    C8    A    
C21   C60   S    
C26   H20   S    
O5    V1    S    
O17   V3    S    
C21   C29   A    
O6    V2    S    
C50   C56   A    
C66   H42   S    
C23   C53   A    
C29   O21   S    
O20   V4    S    
C29   C31   A    
C11   C13   A    
C1    C24   S    
C30   C32   A    
C3    C8    S    
C35   C37   A    
C46   C48   A    
C2    C23   S    
C26   C34   A    
C48   C50   A    
O19   V4    S    
C55   H13   S    
O11   V4    S    
C37   C49   A    
C17   H5    S    
C32   C36   A    
O16   V4    S    
C43   C45   A    
C68   H47   S    
C40   C42   A    
O4    V2    S    
C65   H40   S    
C31   C33   A    
C64   H38   S    
C41   O23   S    
O6    C4    A    
O13   V3    S    
C22   C59   S    
C22   C30   A    
O14   C58   A    
C49   C55   A    
O1    V2    S    
O2    V1    S    
C51   C53   A    
O22   C63   S    
C67   H45   S    
O4    C2    A    
O13   C57   A    
C30   O22   S    
C8    C10   A    
C12   C14   A    
C9    H1    S    
C64   H36   S    
C5    C15   A    
C10   H2    S    
C62   H33   S    
C65   C66   S    
C6    C16   A    
C40   H24   S    
C63   H35   S    
C46   H18   S    
O16   C60   A    
C45   H17   S    
C47   C49   A    
O23   C65   S    
C57   O18   A    
C9    C11   A    
O12   V3    S    
C18   H6    S    
O12   C60   A    
C37   C39   A    
C33   C41   A    
O3    C1    A    
C67   C68   S    
C61   H30   S    
O14   V4    S    
C68   H48   S    
C11   H3    S    
O24   C67   S    
C12   H4    S    
C24   C56   A    
C63   C64   S    
C62   H32   S    
C65   H39   S    
O7    V1    S    
C1    O8    A    
C13   C15   A    
O8    V2    S    
C62   H31   S    
C52   H28   S    
C47   C51   A    
C66   H41   S    
C42   O24   S    
C4    C7    S    
C43   H25   S    
C5    C7    A    
C56   H14   S    
C32   C34   A    
C13   C58   S    
C18   C20   S    
C19   H9    S    
C44   H26   S    
C61   C62   S    
C20   H12   S    
C67   H44   S    
O11   C59   A    
C54   H16   S    
C36   C44   A    
C44   C46   A    
C10   C12   A    
O9    V2    S    
C39   H23   S    
C64   H37   S    
C53   H15   S    
O10   V1    S    
C38   C50   A    
O3    V1    S    
O15   C59   A    
C5    C19   S    
C63   H34   S    
C68   H46   S    
C6    C20   S    
C27   H21   S    
C16   C18   S    
