data_str_m9_o18_o23_f0_sra.sym.31
_audit_creation_date              2012-12-11T15:30:34-0500
_audit_creation_method            fapswitch 2.2
_symmetry_space_group_name_H-M    P1
_symmetry_Int_Tables_number       1
_space_group_crystal_system       triclinic
_cell_length_a                    6.949903
_cell_length_b                    20.437283
_cell_length_c                    24.41017
_cell_angle_alpha                 89.797693
_cell_angle_beta                  90.277842
_cell_angle_gamma                 89.374237
_cell_volume                      3466.88078473

loop_
_atom_site_label
_atom_site_type_symbol
_atom_type_description
_atom_site_fract_x
_atom_site_fract_y
_atom_site_fract_z
_atom_type_partial_charge
O1    O     O_R   0.507310 0.423620 0.460450 -0.535241
O2    O     O_R   0.170760 0.556060 0.437190 -0.536166
O3    O     O_R   0.004040 0.576380 0.539550 -0.537135
C1    C     C_R   0.338940 0.576010 0.421124 0.722087
O4    O     O_R   0.177350 0.422870 0.454070 -0.537760
O5    O     O_R   0.010680 0.442240 0.556560 -0.534619
C2    C     C_R   0.346734 0.399031 0.443246 0.696417
O6    O     O_R   0.500670 0.557760 0.443440 -0.532635
O7    O     O_3   0.340380 0.506510 0.533610 -0.367701
V1    V     V_3+5 0.064130 0.498790 0.493770 1.430070
O8    O     O_R   0.681170 0.443940 0.562810 -0.537973
C3    C     C_R   0.850771 0.424187 0.578875 0.723219
O9    O     O_R   0.674570 0.577130 0.545930 -0.538504
C4    C     C_R   0.842338 0.601083 0.556656 0.693548
V2    V     V_3+5 0.564560 0.501210 0.506230 1.428880
O10   O     O_3   0.838170 0.493490 0.466390 -0.363839
C5    C     C_R   0.974487 0.837811 0.911306 -0.044579
C6    C     C_R   0.844684 0.661787 0.589049 -0.046540
C7    C     C_R   0.998829 0.719881 0.908493 -0.142286
C8    C     C_R   0.010072 0.778176 0.937582 -0.163282
C9    C     C_R   0.932377 0.838871 0.854890 -0.196072
C10   C     C_R   0.921862 0.779836 0.823955 0.084299
C11   C     C_R   0.953667 0.720139 0.852314 0.071375
C12   C     C_R   0.880155 0.777877 0.766320 0.023877
C13   C     C_R   0.874038 0.716185 0.737920 -0.031951
C14   C     C_R   0.880967 0.657486 0.769998 0.285572
C15   C     C_R   0.930044 0.660645 0.825559 -0.204716
C16   C     C_R   0.839348 0.835699 0.736425 -0.166498
C17   C     C_R   0.797320 0.834271 0.680910 -0.205623
C18   C     C_R   0.806301 0.775935 0.651816 0.151707
C19   C     C_R   0.854421 0.716403 0.678995 0.090909
C20   C     C_R   0.769346 0.777116 0.595228 -0.167347
C21   C     C_R   0.782892 0.720103 0.564493 -0.164588
C22   C     C_R   0.887545 0.660599 0.645421 -0.244277
H1    H     H_    0.936621 0.615900 0.849452 0.132162
H2    H     H_    0.947338 0.615870 0.661799 0.138290
H3    H     H_    0.747215 0.721599 0.521240 0.102022
H4    H     H_    0.762353 0.879907 0.660158 0.116580
H5    H     H_    0.023254 0.674188 0.930245 0.111309
H6    H     H_    0.043642 0.776711 0.980968 0.103234
H7    H     H_    0.909729 0.886453 0.836764 0.087056
H8    H     H_    0.833989 0.883356 0.754955 0.117969
H9    H     H_    0.727781 0.822285 0.574751 0.108830
C23   C     C_3   0.746625 0.251573 0.798483 -0.350627
C24   C     C_3   0.106648 0.254762 0.790250 -0.386613
C25   C     C_3   0.087714 0.304573 0.741560 0.132183
H10   H     H_    0.717047 0.351635 0.766343 0.137469
H11   H     H_    0.753174 0.278989 0.837745 0.141177
H12   H     H_    0.241111 0.225340 0.785329 0.119299
H13   H     H_    0.119638 0.280805 0.830044 0.162383
H14   H     H_    0.207852 0.294752 0.712470 0.100548
C26   C     C_1   0.862959 0.379337 0.624962 -0.190681
C27   C     C_3   0.930852 0.208603 0.792153 0.211361
C28   C     C_3   0.724923 0.300985 0.750145 -0.339335
C29   C     C_3   0.894870 0.293672 0.709491 0.197508
C30   C     C_3   0.898625 0.221641 0.687786 0.171740
C31   C     C_3   0.918565 0.171825 0.736728 -0.342809
C32   C     C_1   0.875919 0.341243 0.663155 -0.020139
C33   C     C_1   0.949046 0.161188 0.838463 -0.067404
C34   C     C_1   0.961611 0.122370 0.876176 -0.192524
H15   H     H_    0.800474 0.135970 0.738582 0.160091
H16   H     H_    0.052231 0.142112 0.731128 0.110709
H17   H     H_    0.617499 0.219995 0.800376 0.142802
H18   H     H_    0.586112 0.293466 0.728602 0.166830
H19   H     H_    0.032887 0.216141 0.663279 0.045088
C35   C     C_3   0.597505 0.702216 0.267014 0.524346
C36   C     C_3   0.245486 0.693001 0.243278 -0.290536
C37   C     C_3   0.272624 0.742439 0.195253 -0.335297
H20   H     H_    0.664914 0.724867 0.180945 0.180399
H21   H     H_    0.095449 0.696902 0.258786 0.152882
H22   H     H_    0.265917 0.642197 0.227956 0.189569
H23   H     H_    0.307345 0.715173 0.157114 0.153960
H24   H     H_    0.135089 0.769497 0.187753 0.144633
C38   C     C_1   0.475255 0.877902 0.124450 -0.195500
C39   C     C_3   0.389928 0.706592 0.290492 0.182535
C40   C     C_3   0.623491 0.751607 0.218809 -0.366720
C41   C     C_3   0.435560 0.791526 0.208307 0.218023
C42   C     C_3   0.382196 0.827485 0.262116 -0.345370
C43   C     C_3   0.355175 0.777935 0.310040 -0.454620
C44   C     C_1   0.459845 0.839180 0.162241 -0.068996
C45   C     C_1   0.364928 0.659359 0.336823 -0.027852
C46   C     C_1   0.349200 0.621193 0.374976 -0.178667
H25   H     H_    0.456964 0.789660 0.343853 0.142492
H26   H     H_    0.206979 0.783144 0.326667 0.167593
H27   H     H_    0.497223 0.862638 0.273063 0.145051
H28   H     H_    0.702975 0.713678 0.299978 0.035542
H29   H     H_    0.743259 0.785379 0.228678 0.093536
H30   H     H_    0.246970 0.856332 0.256053 0.154661
C47   C     C_R   0.465551 0.163306 0.087294 -0.082006
C48   C     C_R   0.354828 0.338437 0.410755 -0.044442
C49   C     C_R   0.425083 0.281063 0.088667 -0.211992
C50   C     C_R   0.455657 0.223335 0.059222 0.285324
C51   C     C_R   0.449259 0.162086 0.144726 -0.268537
C52   C     C_R   0.416984 0.220471 0.175367 0.090720
C53   C     C_R   0.404754 0.280053 0.145893 0.035094
C54   C     C_R   0.393012 0.221691 0.233790 0.037379
C55   C     C_R   0.363932 0.282927 0.261906 -0.031768
C56   C     C_R   0.331284 0.340452 0.229450 0.277599
C57   C     C_R   0.360625 0.338235 0.172852 -0.180167
C58   C     C_R   0.390347 0.163242 0.264809 -0.166168
C59   C     C_R   0.363636 0.163796 0.321027 -0.207965
C60   C     C_R   0.351671 0.222493 0.349538 0.151234
C61   C     C_R   0.361774 0.283042 0.321083 0.090298
C62   C     C_R   0.333020 0.220774 0.406795 -0.165555
C63   C     C_R   0.329791 0.278417 0.436946 -0.166544
C64   C     C_R   0.377661 0.340474 0.353554 -0.239203
H31   H     H_    0.335076 0.382071 0.148685 0.135182
H32   H     H_    0.411813 0.387067 0.335731 0.135249
H33   H     H_    0.311458 0.276129 0.480967 0.102765
H34   H     H_    0.357844 0.117453 0.342698 0.116833
H35   H     H_    0.414344 0.327011 0.066439 0.114418
H36   H     H_    0.459879 0.114610 0.163828 0.102072
H37   H     H_    0.403081 0.115486 0.246711 0.118485
H38   H     H_    0.320684 0.174559 0.428348 0.108771
O11   O     O_R   0.323590 0.942280 0.056590 -0.536402
O12   O     O_R   0.647030 0.077140 0.045940 -0.544329
O13   O     O_R   0.813570 0.057750 0.943430 -0.533981
C65   C     C_R   0.477556 0.101409 0.056306 0.749121
O14   O     O_R   0.653510 0.943950 0.062820 -0.538242
O15   O     O_R   0.820100 0.923600 0.960440 -0.535391
C66   C     C_R   0.485375 0.923745 0.078723 0.718969
O16   O     O_R   0.317060 0.076430 0.039590 -0.534046
O17   O     O_3   0.483830 0.993520 0.966410 -0.364591
V3    V     V_3+5 0.760140 0.001200 0.006230 1.419444
O18   O     O_R   0.149560 0.922820 0.954030 -0.538721
C67   C     C_R   0.981490 0.898837 0.943328 0.690257
O19   O     O_R   0.143080 0.056020 0.937150 -0.532864
C68   C     C_R   0.973578 0.076390 0.921509 0.725356
V4    V     V_3+5 0.259690 0.998730 0.993720 1.435887
O20   O     O_3   0.986120 0.006480 0.033580 -0.369823
N1    N     N_2   0.101356 0.371862 0.760928 -0.504806
H39   H     H_    0.011616 0.383651 0.793008 0.261397
C69   C     C_3   0.293802 0.396757 0.768038 -0.586083
H40   H     H_    0.286057 0.448746 0.780959 0.201798
H41   H     H_    0.373369 0.394439 0.728732 0.207518
H42   H     H_    0.371959 0.368139 0.800058 0.194373
N2    N     N_2   0.737790 0.209513 0.650138 -0.503685
H43   H     H_    0.776066 0.202208 0.609818 0.250333
C70   C     C_3   0.565686 0.175233 0.666538 -0.562079
H44   H     H_    0.446476 0.188139 0.637918 0.187861
H45   H     H_    0.519703 0.188857 0.708351 0.194589
H46   H     H_    0.591059 0.121567 0.664447 0.187444
F1    F     F_    0.637041 0.639180 0.249111 -0.697805
N3    N     N_2   0.467960 0.225597 0.001045 -0.533552
H47   H     H_    0.380291 0.260938 0.983368 0.249054
C71   C     C_3   0.662432 0.228353 0.980372 -0.553078
H48   H     H_    0.730436 0.275130 0.992507 0.186487
H49   H     H_    0.659575 0.225365 0.934963 0.193483
H50   H     H_    0.750428 0.186775 0.996329 0.212051
N4    N     N_2   0.233717 0.396928 0.250208 -0.535625
H51   H     H_    0.143074 0.391173 0.283118 0.261852
C72   C     C_3   0.329159 0.459367 0.245013 -0.494665
H52   H     H_    0.246566 0.497525 0.267454 0.198896
H53   H     H_    0.336557 0.474533 0.201416 0.206572
H54   H     H_    0.477121 0.456466 0.262315 0.201559
N5    N     N_2   0.803116 0.597298 0.750853 -0.530436
H55   H     H_    0.700580 0.599132 0.720230 0.257921
C73   C     C_3   0.926078 0.539570 0.753029 -0.550680
H56   H     H_    0.854219 0.498353 0.731920 0.203360
H57   H     H_    0.953261 0.524502 0.796086 0.200403
H58   H     H_    0.065523 0.548987 0.732578 0.197022

loop_
_geom_bond_atom_site_label_1
_geom_bond_atom_site_label_2
_ccdc_geom_bond_type
C13   C19   A    
C18   C20   A    
C29   C30   S    
C51   C52   A    
O11   C66   A    
C4    C6    S    
C14   N5    S    
C7    C8    A    
C1    O6    A    
C55   C56   A    
C27   C33   S    
O17   V3    S    
C24   C25   S    
N2    C70   S    
C14   C15   A    
C59   C60   A    
C28   H18   S    
C7    H5    S    
C10   C12   A    
C16   C17   A    
O13   V3    S    
V4    O20   S    
O5    C3    A    
C43   H26   S    
C8    H6    S    
C70   H46   S    
C53   C57   A    
C5    C67   S    
V2    O10   S    
C5    C8    A    
C30   C31   S    
H20   C40   S    
C65   O16   A    
C49   H35   S    
C73   H58   S    
O8    V2    S    
C23   C27   S    
O13   C68   A    
O14   V3    S    
C25   C29   S    
C69   H42   S    
O1    V2    S    
C11   C15   A    
O7    V1    S    
O16   V4    S    
C36   H22   S    
O18   C67   A    
C24   C27   S    
C33   C34   T    
C38   C44   T    
O9    C4    A    
O17   V4    S    
C73   H57   S    
C52   C53   A    
C62   C63   A    
C3    C26   S    
C45   C46   T    
C71   H49   S    
O14   C66   A    
C23   H17   S    
C36   C37   S    
C34   C68   S    
C12   C13   A    
C48   C64   A    
N3    C71   S    
C49   C50   A    
O4    C2    A    
C27   C31   S    
C42   C43   S    
C39   C45   S    
C35   F1    S    
C15   H1    S    
C37   H24   S    
C41   C42   S    
C2    C48   S    
C25   H14   S    
C47   C51   A    
C5    C9    A    
C73   H56   S    
C17   H4    S    
O2    C1    A    
O19   V4    S    
O5    V1    S    
C17   C18   A    
C23   C28   S    
C71   H50   S    
C30   H19   S    
C72   H54   S    
C24   H12   S    
C37   H23   S    
C35   C40   S    
C54   C55   A    
C19   C22   A    
V3    O20   S    
C13   C14   A    
C40   C41   S    
C47   C50   A    
C52   C54   A    
C6    C22   A    
C40   H29   S    
C55   C61   A    
O3    C4    A    
C26   C32   T    
H10   C28   S    
C9    H7    S    
C42   H27   S    
C72   H53   S    
O6    V2    S    
O9    V2    S    
O18   V4    S    
C69   H40   S    
N4    C72   S    
C36   C39   S    
C31   H16   S    
O19   C68   A    
O2    V1    S    
C25   N1    S    
C7    C11   A    
O11   V4    S    
C71   H48   S    
C56   N4    S    
C41   C44   S    
C42   H30   S    
C37   C41   S    
C63   H33   S    
C28   C29   S    
N5    H55   S    
O12   V3    S    
O1    C2    A    
C10   C11   A    
C58   H37   S    
C12   C16   A    
C48   C63   A    
N3    H47   S    
N1    C69   S    
C35   H28   S    
C70   H44   S    
C31   H15   S    
C57   H31   S    
N2    H43   S    
C60   C62   A    
C36   H21   S    
C20   C21   A    
N5    C73   S    
C59   H34   S    
O4    V1    S    
O3    V1    S    
V1    O10   S    
N1    H39   S    
C43   H25   S    
C30   N2    S    
C70   H45   S    
C18   C19   A    
C64   H32   S    
C24   H13   S    
C35   C39   S    
C54   C58   A    
C16   H8    S    
C58   C59   A    
C20   H9    S    
O12   C65   A    
C61   C64   A    
O15   C67   A    
O7    V2    S    
C60   C61   A    
C50   N3    S    
C6    C21   A    
C21   H3    S    
C47   C65   S    
C51   H36   S    
C49   C53   A    
O15   V3    S    
C38   C66   S    
C1    C46   S    
C72   H52   S    
C22   H2    S    
C56   C57   A    
C29   C32   S    
C69   H41   S    
N4    H51   S    
C62   H38   S    
C9    C10   A    
C39   C43   S    
C23   H11   S    
O8    C3    A    
