data_str_m2_o14_o17_f0_pcu.sym.66
_audit_creation_date              2012-10-26T20:40:18-0400
_audit_creation_method            fapswitch 2.2
_symmetry_space_group_name_H-M    P1
_symmetry_Int_Tables_number       1
_space_group_crystal_system       triclinic
_cell_length_a                    15.092777
_cell_length_b                    10.911537
_cell_length_c                    9.674436
_cell_angle_alpha                 91.064347
_cell_angle_beta                  90.772497
_cell_angle_gamma                 96.788111
_cell_volume                      1581.59960431

loop_
_atom_site_label
_atom_site_type_symbol
_atom_type_description
_atom_site_fract_x
_atom_site_fract_y
_atom_site_fract_z
_atom_type_partial_charge
C1    C     C_R   0.498409 0.263224 0.498864 0.524459
C2    C     C_R   0.175092 0.397869 0.443119 -0.041669
C3    C     C_R   0.231868 0.498484 0.501006 0.014794
C4    C     C_R   0.328984 0.498506 0.499649 0.540387
C5    C     C_R   0.194995 0.596763 0.566590 -0.034639
C6    C     C_R   0.637975 0.159958 0.646782 -0.109949
C7    C     C_R   0.704885 0.111029 0.721308 0.228319
C8    C     C_R   0.705934 0.984553 0.719627 -0.040895
C9    C     C_R   0.639885 0.906919 0.648302 -0.158313
C10   C     C_R   0.569928 0.952955 0.576675 -0.003009
C11   C     C_R   0.569603 0.082277 0.575174 -0.002046
C12   C     C_R   0.917582 0.612800 0.525100 0.038689
C13   C     C_R   0.503338 0.131483 0.497666 -0.003680
C14   C     C_R   0.440577 0.055058 0.419004 -0.128181
C15   C     C_R   0.439836 0.927088 0.418848 -0.029039
C16   C     C_R   0.501857 0.738198 0.500748 0.514181
C17   C     C_R   0.503551 0.874152 0.500629 0.019202
C18   C     C_R   0.625078 0.663398 0.150252 -0.115323
C19   C     C_R   0.696258 0.730114 0.083171 0.223250
C20   C     C_R   0.704078 0.713517 0.940837 0.264984
C21   C     C_R   0.633286 0.649363 0.866402 -0.071358
C22   C     C_R   0.563064 0.577410 0.929772 0.067799
C23   C     C_R   0.932675 0.275069 0.469990 0.268671
C24   C     C_R   0.561399 0.580081 0.077834 0.063756
C25   C     C_R   0.443531 0.418363 0.074533 0.380448
C26   C     C_R   0.441777 0.419000 0.924845 0.111559
C27   C     C_R   0.670847 0.500579 0.500397 0.521301
C28   C     C_R   0.824483 0.615706 0.513718 0.012731
C29   C     C_R   0.767872 0.503735 0.500430 0.024088
C30   C     C_R   0.803394 0.392421 0.482278 -0.136688
C31   C     C_R   0.895939 0.388032 0.486261 0.008782
C32   C     C_R   0.953251 0.499242 0.508206 0.001625
C33   C     C_3   0.787279 0.737771 0.505621 -0.393200
C34   C     C_R   0.025727 0.274634 0.466638 0.053093
C35   C     C_3   0.370364 0.849645 0.330430 -0.374283
C36   C     C_3   0.374750 0.324959 0.851521 -0.349113
C37   C     C_3   0.060823 0.150905 0.479491 -0.358123
C38   C     C_3   0.211839 0.312443 0.339303 -0.381410
C39   C     C_3   0.249270 0.679110 0.673045 -0.380028
C40   C     C_3   0.124127 0.845076 0.537397 -0.414763
C41   C     C_R   0.082846 0.387987 0.472938 0.000212
C42   C     C_R   0.046532 0.497885 0.508607 -0.001612
C43   C     C_R   0.103955 0.607224 0.541940 0.053109
C44   C     C_R   0.068231 0.721398 0.549134 0.006031
C45   C     C_R   0.976077 0.722094 0.545711 -0.095069
Cu1   Cu    Cu3+1 0.499990 0.499990 0.640660 0.900879
Cu2   Cu    Cu3+1 0.500010 0.500010 0.359340 0.984211
H1    H     H_    0.642566 0.258985 0.642516 0.140886
H2    H     H_    0.796548 0.786520 0.606886 0.170545
H3    H     H_    0.823486 0.795525 0.426565 0.156281
H4    H     H_    0.762491 0.272330 0.781758 0.329508
H5    H     H_    0.334599 0.775087 0.391689 0.135894
H6    H     H_    0.319714 0.905463 0.288059 0.109604
H7    H     H_    0.402836 0.808301 0.241597 0.169282
H8    H     H_    0.356084 0.270156 0.092703 0.290454
H9    H     H_    0.733096 0.831631 0.244826 0.318698
H10   H     H_    0.826619 0.793424 0.936972 0.380597
H11   H     H_    0.372860 0.327982 0.739468 0.204132
H12   H     H_    0.760445 0.947837 0.770594 0.199800
H13   H     H_    0.389831 0.230411 0.875612 0.098580
H14   H     H_    0.306359 0.337452 0.885681 0.091139
H15   H     H_    0.829598 0.162993 0.520553 0.336035
H16   H     H_    0.131576 0.159630 0.514241 0.106399
H17   H     H_    0.023359 0.095595 0.559715 0.166202
H18   H     H_    0.052089 0.099146 0.379427 0.151633
H19   H     H_    0.243990 0.368823 0.255824 0.195852
H20   H     H_    0.261155 0.258943 0.389446 0.134341
H21   H     H_    0.159269 0.248979 0.285675 0.127012
H22   H     H_    0.274901 0.621471 0.754273 0.166740
H23   H     H_    0.645975 0.811351 0.644038 0.118426
H24   H     H_    0.306242 0.734865 0.624435 0.137531
H25   H     H_    0.208606 0.740939 0.729742 0.131254
H26   H     H_    0.124963 0.897380 0.637027 0.128923
H27   H     H_    0.193116 0.836883 0.504267 0.136875
H28   H     H_    0.094998 0.899141 0.456011 0.129514
H29   H     H_    0.624337 0.675616 0.259359 0.173193
H30   H     H_    0.636220 0.655202 0.758838 0.191257
H31   H     H_    0.757312 0.310243 0.461900 0.119386
H32   H     H_    0.951225 0.810833 0.555522 0.127801
H33   H     H_    0.391111 0.096038 0.358486 0.129044
H34   H     H_    0.716180 0.727882 0.473711 0.105076
N1    N     N_R   0.500860 0.501210 0.147910 -0.207672
N2    N     N_R   0.500890 0.501290 0.852040 -0.249343
O1    O     O_R   0.499990 0.319640 0.618810 -0.528745
O2    O     O_3   0.389451 0.335079 0.151279 -0.691636
O3    O     O_3   0.758226 0.811685 0.154255 -0.696322
O4    O     O_3   0.779777 0.757312 0.870526 -0.743010
O5    O     O_3   0.880004 0.162845 0.456620 -0.698128
O6    O     O_R   0.500000 0.319660 0.381240 -0.437340
O7    O     O_R   0.370250 0.499960 0.618800 -0.526019
O8    O     O_R   0.370260 0.499980 0.381230 -0.460044
O9    O     O_R   0.500000 0.680340 0.618760 -0.515872
O10   O     O_R   0.500010 0.680360 0.381190 -0.531678
O11   O     O_R   0.629740 0.500020 0.618770 -0.528052
O12   O     O_R   0.629750 0.500040 0.381200 -0.509362
O13   O     O_3   0.772085 0.184542 0.791738 -0.688839

loop_
_geom_bond_atom_site_label_1
_geom_bond_atom_site_label_2
_ccdc_geom_bond_type
C26   N2    A    
C35   H6    S    
C34   C37   S    
C41   C42   A    
C27   O12   A    
C19   C20   A    
C19   O3    S    
C7    C8    A    
C1    O1    A    
C7    O13   S    
C16   O10   A    
C6    H1    S    
C12   C28   A    
C18   C24   A    
C28   C29   A    
C36   H11   S    
C8    H12   S    
C30   C31   A    
C27   C29   S    
C10   C17   A    
C33   H2    S    
C20   O4    S    
Cu2   O12   S    
C40   H26   S    
C18   C19   A    
Cu2   N1    S    
C24   N1    A    
C38   H19   S    
C8    C9    A    
C37   H18   S    
C1    O6    A    
C39   H25   S    
C14   H33   S    
C9    C10   A    
H4    O13   S    
C4    O8    A    
C5    C43   A    
C39   H24   S    
C21   C22   A    
C12   C32   A    
C35   H7    S    
Cu2   O6    S    
C34   C41   A    
C15   C35   S    
C37   H16   S    
C4    O7    A    
Cu2   O10   S    
C9    H23   S    
C6    C11   A    
C16   C17   S    
C3    C5    A    
C33   H3    S    
H15   O5    S    
H10   O4    S    
C23   C31   A    
H8    O2    S    
C43   C44   A    
C29   C30   A    
C2    C38   S    
H9    O3    S    
C31   C32   A    
Cu1   O11   S    
C23   C34   A    
C25   O2    S    
C39   H22   S    
C45   H32   S    
C38   H20   S    
Cu1   O1    S    
C26   C36   S    
C38   H21   S    
C28   C33   S    
C16   O9    A    
C23   O5    S    
C5    C39   S    
C25   N1    A    
C22   C24   A    
C1    C13   S    
C42   C43   A    
C36   H14   S    
C37   H17   S    
C44   C45   A    
C15   C17   A    
Cu1   Cu2   S    
C18   H29   S    
Cu2   O8    S    
C12   C45   A    
C36   H13   S    
C6    C7    A    
Cu1   O7    S    
C40   H28   S    
C22   N2    A    
C2    C3    A    
C25   C26   A    
C11   C13   A    
C40   H27   S    
C10   C11   A    
Cu1   N2    S    
C30   H31   S    
C40   C44   S    
Cu1   O9    S    
C20   C21   A    
C21   H30   S    
C35   H5    S    
C32   C42   A    
C14   C15   A    
C27   O11   A    
C2    C41   A    
C13   C14   A    
C33   H34   S    
C3    C4    S    
