data_str_m3_o16_o24_f0_pcu.sym.28
_audit_creation_date              2012-12-10T18:11:44-0500
_audit_creation_method            fapswitch 2.2
_symmetry_space_group_name_H-M    P1
_symmetry_Int_Tables_number       1
_space_group_crystal_system       triclinic
_cell_length_a                    10.556084
_cell_length_b                    12.745509
_cell_length_c                    13.22328
_cell_angle_alpha                 85.72265
_cell_angle_beta                  89.726653
_cell_angle_gamma                 102.513127
_cell_volume                      1731.59742597

loop_
_atom_site_label
_atom_site_type_symbol
_atom_type_description
_atom_site_fract_x
_atom_site_fract_y
_atom_site_fract_z
_atom_type_partial_charge
C1    C     C_R   0.459004 0.441856 0.687060 0.869159
C2    C     C_3   0.066100 0.598287 0.525916 -0.249989
C3    C     C_3   0.957912 0.516333 0.585647 0.629742
C4    C     C_3   0.877203 0.505188 0.490526 -0.312103
C5    C     C_R   0.548750 0.723617 0.056601 -0.200344
C6    C     C_R   0.532396 0.590428 0.198624 -0.095363
C7    C     C_R   0.345971 0.295660 0.820266 0.141576
C8    C     C_R   0.350323 0.264560 0.924956 0.230088
C9    C     C_R   0.399752 0.342218 0.992320 -0.242041
C10   C     C_R   0.421990 0.453443 0.963126 0.036996
C11   C     C_R   0.401826 0.484779 0.861477 -0.000854
C12   C     C_R   0.742085 0.502219 0.495194 0.981300
C13   C     C_R   0.463526 0.534522 0.031053 0.071520
C14   C     C_R   0.480000 0.644417 0.996318 0.042312
C15   C     C_R   0.423318 0.672222 0.904401 0.135765
C16   C     C_R   0.379278 0.589961 0.837511 0.163508
C17   C     C_R   0.486771 0.510020 0.133337 -0.248940
C18   C     C_R   0.580871 0.696955 0.156507 0.188820
C19   C     C_R   0.396505 0.407165 0.789008 -0.226795
C20   C     C_R   0.315650 0.072493 0.359061 0.088308
C21   C     C_R   0.672987 0.806570 0.611670 -0.219933
C22   C     C_R   0.716793 0.913506 0.633162 0.506156
C23   C     C_R   0.521576 0.558617 0.308628 0.879425
C24   C     C_R   0.651249 0.992156 0.596363 0.559129
C25   C     C_R   0.542502 0.965014 0.533800 -0.246524
C26   C     C_R   0.502026 0.853037 0.514036 -0.030598
C27   C     C_R   0.475280 0.042651 0.485139 0.010145
C28   C     C_R   0.370007 0.002956 0.422778 0.031136
C29   C     C_R   0.321870 0.893440 0.420494 -0.335409
C30   C     C_R   0.395210 0.822868 0.452111 0.641402
C31   C     C_R   0.506936 0.157019 0.491374 -0.006148
C32   C     C_R   0.331188 0.179019 0.384216 0.205385
C33   C     C_R   0.257649 0.500033 0.498816 0.957808
C34   C     C_3   0.934684 0.411425 0.461114 0.548332
C35   C     C_3   0.015294 0.421617 0.557353 -0.112351
C36   C     C_3   0.122615 0.502018 0.496551 -0.284402
C37   C     C_3   0.041505 0.492714 0.400818 0.633657
C38   C     C_3   0.982730 0.587701 0.429203 -0.354110
H1    H     H_    0.466854 0.428484 0.165283 0.167617
H2    H     H_    0.413606 0.312002 0.068375 0.136745
H3    H     H_    0.234934 0.861193 0.380121 0.193229
H4    H     H_    0.585146 0.195790 0.536296 0.237028
H5    H     H_    0.724178 0.746352 0.641051 0.222330
H6    H     H_    0.965315 0.654696 0.376293 0.186966
H7    H     H_    0.122244 0.674365 0.553719 0.187760
H8    H     H_    0.581011 0.806085 0.025337 0.163027
N1    N     N_R   0.432930 0.222190 0.444670 -0.146524
N2    N     N_R   0.566370 0.776980 0.554790 -0.147719
O1    O     O_R   0.467970 0.366730 0.627150 -0.635492
O2    O     O_R   0.510820 0.544830 0.662520 -0.599742
O3    O     O_R   0.664630 0.410960 0.482340 -0.580243
O4    O     O_R   0.707470 0.589060 0.517710 -0.610117
O5    O     O_R   0.489180 0.455170 0.337480 -0.628392
O6    O     O_R   0.532030 0.633270 0.372850 -0.535279
O7    O     O_R   0.292530 0.410940 0.482290 -0.660592
O8    O     O_R   0.335370 0.589040 0.517660 -0.566087
Zn1   Zn    Zn3+2 0.471390 0.381080 0.476380 0.959372
Zn2   Zn    Zn3+2 0.528610 0.618920 0.523620 0.996872
C39   C     C_3   0.028298 0.327472 0.630966 -0.414614
C40   C     C_3   0.901604 0.282725 0.691188 -0.610711
H9    H     H_    0.893864 0.333333 0.754749 0.251914
H10   H     H_    0.816477 0.281399 0.641961 0.309010
H11   H     H_    0.898452 0.199249 0.723106 0.273739
H12   H     H_    0.053234 0.263635 0.587090 0.230936
H13   H     H_    0.107715 0.355478 0.683792 0.199140
C41   C     C_3   0.293170 0.211933 0.743703 -0.412915
C42   C     C_3   0.154386 0.146918 0.764775 -0.851491
H14   H     H_    0.150316 0.072300 0.814091 0.277457
H15   H     H_    0.094817 0.197689 0.797868 0.266443
H16   H     H_    0.109812 0.119217 0.692771 0.269605
H17   H     H_    0.284423 0.251317 0.667765 0.235015
H18   H     H_    0.360123 0.156336 0.737216 0.217630
C43   C     C_3   0.304817 0.150356 0.970215 -0.402965
C44   C     C_3   0.168069 0.135228 0.016902 -0.840398
H19   H     H_    0.169106 0.189476 0.078703 0.250207
H20   H     H_    0.097876 0.155833 0.961504 0.269579
H21   H     H_    0.130984 0.050452 0.046563 0.249950
H22   H     H_    0.310151 0.089935 0.915490 0.209814
H23   H     H_    0.372485 0.134499 0.030285 0.198802
C45   C     C_3   0.281556 0.605603 0.756922 -0.406068
C46   C     C_3   0.146503 0.594495 0.804886 -0.791350
H24   H     H_    0.094696 0.508460 0.811462 0.281676
H25   H     H_    0.150356 0.623782 0.882016 0.249920
H26   H     H_    0.090548 0.642386 0.756763 0.292584
H27   H     H_    0.313113 0.684760 0.713065 0.214802
H28   H     H_    0.271082 0.544192 0.701280 0.197648
C47   C     C_3   0.214312 0.228998 0.364816 -0.370797
C48   C     C_3   0.230619 0.310119 0.272530 -0.687711
H29   H     H_    0.270027 0.392602 0.293592 0.315845
H30   H     H_    0.294640 0.288818 0.214766 0.198780
H31   H     H_    0.134785 0.309250 0.237921 0.273088
H32   H     H_    0.127624 0.164957 0.351013 0.178624
H33   H     H_    0.179646 0.257271 0.433870 0.231324
C49   C     C_3   0.243288 0.033713 0.264011 -0.418901
C50   C     C_3   0.327146 0.984103 0.194060 -0.853437
H34   H     H_    0.422947 0.039776 0.178691 0.257988
H35   H     H_    0.342890 0.905698 0.226468 0.276934
H36   H     H_    0.277877 0.967047 0.121583 0.248466
H37   H     H_    0.150502 0.975748 0.284412 0.201344
H38   H     H_    0.217238 0.101610 0.219013 0.226240
F1    F     F_    0.866370 0.316088 0.426374 -0.628972
F2    F     F_    0.695344 0.092896 0.624575 -0.685776
F3    F     F_    0.822149 0.940747 0.691834 -0.647215
F4    F     F_    0.372735 0.734688 0.400799 -0.640640
F5    F     F_    0.085197 0.482867 0.304246 -0.666424
F6    F     F_    0.905494 0.528654 0.678876 -0.680313
C51   C     C_3   0.678327 0.779328 0.209504 -0.404274
C52   C     C_3   0.624587 0.876766 0.233043 -0.803314
H39   H     H_    0.606618 0.923028 0.162066 0.240294
H40   H     H_    0.532874 0.850208 0.277099 0.297800
H41   H     H_    0.695278 0.930687 0.278435 0.250598
H42   H     H_    0.713679 0.743737 0.280040 0.212747
H43   H     H_    0.765660 0.807598 0.159243 0.201352
C53   C     C_3   0.394295 0.784632 0.886362 -0.447404
C54   C     C_3   0.495461 0.858926 0.816930 -0.833866
H44   H     H_    0.595089 0.857737 0.842791 0.282655
H45   H     H_    0.483436 0.832757 0.739163 0.244157
H46   H     H_    0.480835 0.942716 0.815811 0.252882
H47   H     H_    0.297543 0.782342 0.853735 0.227657
H48   H     H_    0.388872 0.822125 0.958968 0.208382

loop_
_geom_bond_atom_site_label_1
_geom_bond_atom_site_label_2
_ccdc_geom_bond_type
C33   O7    A    
C47   C48   S    
C31   H4    S    
C34   C37   S    
C43   C44   S    
C35   C36   S    
C46   H26   S    
C45   H27   S    
C46   H24   S    
C50   H36   S    
C7    C8    A    
C37   F5    S    
C11   C19   A    
C39   H12   S    
C37   C38   S    
C44   H20   S    
C40   H11   S    
C35   C39   S    
C36   C37   S    
C20   C32   A    
C15   C16   A    
C33   C36   S    
O1    Zn1   S    
C52   H39   S    
C40   H10   S    
C34   C35   S    
C17   H1    S    
C18   C51   S    
C51   H43   S    
C45   H28   S    
C13   C14   A    
C12   O4    A    
C21   H5    S    
C41   H18   S    
C50   H34   S    
C52   H40   S    
C8    C9    A    
C54   H45   S    
C44   H21   S    
C51   C52   S    
O3    Zn1   S    
C3    C35   S    
C4    C12   S    
C9    C10   A    
C53   H47   S    
C26   N2    A    
C21   N2    A    
C33   O8    A    
C41   C42   S    
C39   C40   S    
C2    H7    S    
C31   N1    A    
C21   C22   A    
C46   H25   S    
C23   O5    A    
C3    F6    S    
C6    C18   A    
C4    C34   S    
C1    C19   S    
C34   F1    S    
C44   H19   S    
C27   C31   A    
C42   H14   S    
O2    Zn2   S    
C24   C25   A    
C53   C54   S    
O5    Zn1   S    
C5    C18   A    
C20   C28   A    
C25   C26   A    
C32   C47   S    
C9    H2    S    
C22   F3    S    
C40   H9    S    
C16   C45   S    
C38   H6    S    
C29   C30   A    
N1    Zn1   S    
C11   C16   A    
C2    C38   S    
C41   H17   S    
C48   H31   S    
C49   H38   S    
C43   H22   S    
C54   H46   S    
O6    Zn2   S    
C43   H23   S    
C15   C53   S    
C51   H42   S    
C5    C14   A    
O4    Zn2   S    
C4    C38   S    
C26   C30   A    
C7    C19   A    
O7    Zn1   S    
C32   N1    A    
C22   C24   A    
C3    C4    S    
C12   O3    A    
C23   O6    A    
C1    O2    A    
C2    C36   S    
C6    C17   A    
C20   C49   S    
C28   C29   A    
C29   H3    S    
C48   H30   S    
C45   C46   S    
C10   C13   A    
C50   H35   S    
N2    Zn2   S    
C25   C27   A    
C5    H8    S    
C52   H41   S    
C13   C17   A    
C42   H16   S    
C2    C3    S    
C39   H13   S    
C7    C41   S    
C49   H37   S    
C6    C23   S    
C47   H33   S    
C8    C43   S    
O8    Zn2   S    
C24   F2    S    
C49   C50   S    
C10   C11   A    
C48   H29   S    
C30   F4    S    
C27   C28   A    
C14   C15   A    
C42   H15   S    
C47   H32   S    
C1    O1    A    
C53   H48   S    
C54   H44   S    
