data_str_m2_o5_o17_f0_pcu.sym.9
_audit_creation_date              2013-03-05T16:34:53-0500
_audit_creation_method            fapswitch 2.2
_symmetry_space_group_name_H-M    P1
_symmetry_Int_Tables_number       1
_space_group_crystal_system       triclinic
_cell_length_a                    15.10382
_cell_length_b                    9.073745
_cell_length_c                    7.79302
_cell_angle_alpha                 90.060413
_cell_angle_beta                  89.944683
_cell_angle_gamma                 89.872868
_cell_volume                      1068.01572788

loop_
_atom_site_label
_atom_site_type_symbol
_atom_site_description
_atom_site_fract_x
_atom_site_fract_y
_atom_site_fract_z
_atom_type_partial_charge
O1    O     O_R   0.500000 0.288390 0.642760 -0.578782
O2    O     O_R   0.500000 0.711610 0.357240 -0.578402
O3    O     O_R   0.500000 0.711610 0.642760 -0.579397
O4    O     O_R   0.500000 0.288390 0.357240 -0.579279
C1    C     C_R   0.500010 0.220083 0.499948 0.847953
C2    C     C_R   0.499981 0.779917 0.500052 0.847807
O5    O     O_R   0.370260 0.500000 0.642800 -0.591529
O6    O     O_R   0.629740 0.500000 0.357200 -0.591365
O7    O     O_R   0.629740 0.500000 0.642800 -0.574732
O8    O     O_R   0.370260 0.500000 0.357200 -0.574187
C3    C     C_R   0.328861 0.498852 0.500116 0.850242
C4    C     C_R   0.671139 0.501200 0.499912 0.850471
Cu1   Cu    Cu3+1 0.500000 0.500000 0.669080 1.004443
Cu2   Cu    Cu3+1 0.500000 0.500000 0.330920 1.004788
N1    N     N_1   0.500000 0.500000 0.076820 -0.049344
N2    N     N_1   0.500000 0.500000 0.923180 -0.049379
C5    C     C_R   0.812275 0.627872 0.445358 0.052984
C6    C     C_R   0.187493 0.373700 0.556305 0.052926
C7    C     C_R   0.811826 0.377263 0.558296 0.093421
C8    C     C_R   0.188391 0.624421 0.443760 0.092463
C9    C     C_R   0.767313 0.501940 0.500012 -0.097063
C10   C     C_R   0.232693 0.498954 0.500471 -0.097007
C11   C     C_R   0.905668 0.377706 0.568171 0.039901
C12   C     C_R   0.094427 0.625431 0.436658 0.039695
C13   C     C_R   0.905951 0.627363 0.438335 0.066800
C14   C     C_R   0.093963 0.375720 0.566312 0.066972
C15   C     C_R   0.952917 0.502088 0.502842 -0.081297
C16   C     C_R   0.047083 0.501127 0.501957 -0.081203
C17   C     C_R   0.953359 0.258839 0.641652 0.140557
C18   C     C_R   0.046688 0.745791 0.366544 0.140393
C19   C     C_R   0.954248 0.747074 0.367268 0.124605
C20   C     C_R   0.045768 0.257551 0.640890 0.124937
C21   C     C_1   0.499997 0.065419 0.499928 -0.171976
C22   C     C_1   0.499991 0.934581 0.500071 -0.172185
N3    N     N_3   0.908646 0.138730 0.724406 -0.617924
H1    H     H_    0.927546 0.135336 0.853431 0.249232
H2    H     H_    0.927420 0.039902 0.665354 0.238231
N4    N     N_3   0.091341 0.868027 0.287996 -0.618040
H3    H     H_    0.072588 0.965275 0.350515 0.239274
H4    H     H_    0.072422 0.874764 0.159162 0.248869
N5    N     N_3   0.912464 0.871675 0.287000 -0.607502
H5    H     H_    0.878950 0.935038 0.378393 0.251415
H6    H     H_    0.871253 0.836648 0.187369 0.252356
N6    N     N_3   0.087696 0.135437 0.725945 -0.607600
H7    H     H_    0.130013 0.173568 0.822239 0.251296
H8    H     H_    0.120139 0.068329 0.636767 0.252180
N7    N     N_3   0.761794 0.757360 0.403354 -0.626648
H9    H     H_    0.720491 0.734497 0.299190 0.237745
H10   H     H_    0.723035 0.787537 0.509047 0.213020
N8    N     N_3   0.237449 0.242968 0.595419 -0.626742
H11   H     H_    0.274993 0.212790 0.488094 0.213483
H12   H     H_    0.279929 0.264371 0.698211 0.236858
N9    N     N_3   0.758618 0.250980 0.600244 -0.591415
H13   H     H_    0.759666 0.232293 0.732483 0.261961
H14   H     H_    0.779671 0.159252 0.529772 0.242050
N10   N     N_3   0.242053 0.749567 0.399476 -0.590924
H15   H     H_    0.223144 0.841323 0.472134 0.243253
H16   H     H_    0.238938 0.769160 0.267533 0.261345

loop_
_geom_bond_atom_site_label_1
_geom_bond_atom_site_label_2
_geom_bond_distance
_ccdc_geom_bond_type
C13   C19   1.422234 A    
N8    H12   1.045131 S    
C14   C20   1.421723 A    
C11   C15   1.430498 A    
N10   H16   1.044763 S    
C13   C15   1.430512 A    
C12   C16   1.430575 A    
N5    H5    1.044601 S    
C17   N3    1.436538 S    
C3    C10   1.452504 S    
C14   C16   1.430393 A    
N7    H9    1.045152 S    
O3    Cu1   1.931235 S    
C8    N10   1.438687 S    
O6    C4    1.276456 A    
O3    C2    1.273748 A    
C5    C13   1.415867 A    
C7    N9    1.438782 S    
Cu2   N1    1.980206 S    
C21   C22   1.187198 T    
C20   N6    1.437831 S    
N7    H10   1.045935 S    
Cu1   Cu2   2.635288 S    
N6    H7    1.045329 S    
N4    H4    1.045959 S    
N5    H6    1.045258 S    
C18   N4    1.436549 S    
O2    C2    1.273309 A    
O1    C1    1.273309 A    
C11   C17   1.417288 A    
N3    H2    1.045988 S    
C8    C10   1.391906 A    
N8    H11   1.045939 S    
C17   C20   1.395759 A    
C1    C21   1.403381 S    
N9    H14   1.045459 S    
O4    Cu2   1.931236 S    
C18   C19   1.396233 A    
O2    Cu2   1.930805 S    
O7    C4    1.276617 A    
C12   C18   1.417638 A    
O1    Cu1   1.930805 S    
O8    C3    1.276798 A    
N1    N2    1.197320 T    
C2    C22   1.403379 S    
O5    Cu1   1.970441 S    
N4    H3    1.045926 S    
N10   H15   1.045461 S    
C6    N8    1.437561 S    
O8    Cu2   1.970048 S    
Cu1   N2    1.980206 S    
C15   C16   1.422276 A    
O7    Cu1   1.970046 S    
C7    C11   1.419552 A    
O5    C3    1.276258 A    
O6    Cu2   1.970439 S    
C19   N5    1.437680 S    
C7    C9    1.391554 A    
C6    C10   1.396787 A    
C4    C9    1.452623 S    
C8    C12   1.420361 A    
C5    C9    1.397210 A    
C5    N7    1.437466 S    
N9    H13   1.044706 S    
N6    H8    1.044508 S    
O4    C1    1.273749 A    
N3    H1    1.045962 S    
C6    C14   1.414812 A    
