data_str_m9_o16_o25_f0_sra.sym.214
_audit_creation_date              2013-03-05T15:49:06-0500
_audit_creation_method            fapswitch 2.2
_symmetry_space_group_name_H-M    P1
_symmetry_Int_Tables_number       1
_space_group_crystal_system       triclinic
_cell_length_a                    22.281468
_cell_length_b                    7.230811
_cell_length_c                    19.231046
_cell_angle_alpha                 90.132289
_cell_angle_beta                  99.089567
_cell_angle_gamma                 90.15299
_cell_volume                      3059.44297873

loop_
_atom_site_label
_atom_site_type_symbol
_atom_site_description
_atom_site_fract_x
_atom_site_fract_y
_atom_site_fract_z
_atom_type_partial_charge
O1    O     O_R   0.448470 0.506130 0.415700 -0.582850
O2    O     O_R   0.551530 0.006130 0.584300 -0.583399
O3    O     O_R   0.436320 0.174490 0.555800 -0.582148
O4    O     O_R   0.563680 0.674490 0.444200 -0.582062
C1    C     C_R   0.421162 0.344361 0.575205 0.944190
C2    C     C_R   0.578831 0.844429 0.424805 0.944137
O5    O     O_R   0.441350 0.176340 0.414480 -0.582226
O6    O     O_R   0.558650 0.676340 0.585520 -0.581111
O7    O     O_R   0.556600 0.007100 0.441970 -0.582553
O8    O     O_R   0.443400 0.507100 0.558030 -0.583433
C3    C     C_R   0.427177 0.344405 0.389009 0.903349
C4    C     C_R   0.572716 0.845003 0.611024 0.904236
O9    O     O_3   0.537810 0.339550 0.509190 -0.279783
O10   O     O_3   0.462190 0.839550 0.490810 -0.280618
V1    V     V_3+5 0.492990 0.064280 0.498300 1.170337
V2    V     V_3+5 0.507010 0.564280 0.501700 1.170155
C5    C     C_R   0.870246 0.923115 0.693842 0.355492
C6    C     C_R   0.134111 0.513899 0.303756 0.357335
H1    H     H_    0.957393 0.944123 0.760148 0.157356
H2    H     H_    0.047839 0.547919 0.237068 0.157925
H3    H     H_    0.783991 0.939899 0.578346 0.177741
H4    H     H_    0.221097 0.523160 0.418794 0.180201
C7    C     C_R   0.885088 0.937577 0.821537 -0.146826
C8    C     C_R   0.115205 0.446374 0.178537 -0.152309
C9    C     C_R   0.589061 0.816060 0.739613 -0.173221
C10   C     C_R   0.410459 0.313204 0.260309 -0.172762
C11   C     C_R   0.625854 0.794038 0.804228 -0.154318
C12   C     C_R   0.375399 0.327805 0.194282 -0.152893
C13   C     C_R   0.689215 0.809478 0.810993 0.019563
C14   C     C_R   0.313567 0.372928 0.186489 0.021025
C15   C     C_R   0.717030 0.862960 0.751948 0.093308
C16   C     C_R   0.284205 0.391846 0.247124 0.093945
C17   C     C_R   0.678461 0.874633 0.684746 0.083533
C18   C     C_R   0.322383 0.391327 0.314782 0.083760
C19   C     C_R   0.781511 0.895405 0.755669 0.079263
C20   C     C_R   0.219520 0.419721 0.243858 0.079307
C21   C     C_R   0.806358 0.909412 0.691853 -0.013169
C22   C     C_R   0.196616 0.470759 0.306516 -0.013834
C23   C     C_R   0.767013 0.917341 0.627305 -0.125328
C24   C     C_R   0.236489 0.480798 0.370658 -0.132474
C25   C     C_R   0.704543 0.904256 0.623991 -0.217486
C26   C     C_R   0.297357 0.435685 0.375079 -0.215957
C27   C     C_R   0.822120 0.921621 0.820011 -0.228751
C28   C     C_R   0.176261 0.395063 0.181432 -0.229834
C29   C     C_R   0.908622 0.935935 0.758688 -0.250100
C30   C     C_R   0.095071 0.509111 0.239306 -0.242436
C31   C     C_R   0.614404 0.851066 0.679198 -0.159803
C32   C     C_R   0.385481 0.350416 0.320817 -0.161001
H5    H     H_    0.806349 0.938983 0.869651 0.124584
H6    H     H_    0.187863 0.333466 0.134437 0.132836
H7    H     H_    0.540414 0.796854 0.736158 0.113663
H8    H     H_    0.458302 0.280390 0.264079 0.114633
H9    H     H_    0.605028 0.755831 0.849387 0.115726
H10   H     H_    0.397085 0.310084 0.148112 0.115213
H11   H     H_    0.676689 0.914224 0.572632 0.113472
H12   H     H_    0.325230 0.440933 0.426557 0.116368
C33   C     C_3   0.777535 0.842563 0.314324 -0.124278
C34   C     C_3   0.222263 0.346032 0.685271 -0.121360
C35   C     C_3   0.792441 0.022448 0.276606 -0.134737
C36   C     C_3   0.208539 0.525120 0.724382 -0.134700
H13   H     H_    0.827423 0.126099 0.297982 0.141469
H14   H     H_    0.174326 0.630913 0.703766 0.142176
H15   H     H_    0.799874 0.797414 0.367246 0.153165
H16   H     H_    0.199710 0.303673 0.631958 0.153554
H17   H     H_    0.701388 0.197413 0.260789 0.121204
H18   H     H_    0.300811 0.695817 0.741828 0.120770
C37   C     C_1   0.875189 0.940060 0.121171 -0.266331
C38   C     C_1   0.124849 0.440289 0.878860 -0.266604
C39   C     C_1   0.624943 0.854288 0.379261 -0.270235
C40   C     C_1   0.375067 0.354097 0.620774 -0.270230
C41   C     C_3   0.776903 0.732692 0.244841 -0.150569
C42   C     C_3   0.221976 0.233695 0.753833 -0.150364
C43   C     C_3   0.791200 0.912399 0.207744 0.209930
C44   C     C_3   0.208860 0.412603 0.792325 0.208692
C45   C     C_3   0.707998 0.771853 0.224221 -0.166731
C46   C     C_3   0.291129 0.269345 0.774932 -0.167194
C47   C     C_3   0.709231 0.881899 0.293078 0.207245
C48   C     C_3   0.290815 0.381856 0.706994 0.206414
C49   C     C_3   0.722897 0.951732 0.186513 -0.165707
C50   C     C_3   0.277411 0.448428 0.814036 -0.164839
C51   C     C_3   0.723533 0.061604 0.255988 -0.164990
C52   C     C_3   0.277695 0.560766 0.745480 -0.165226
C53   C     C_1   0.837219 0.928665 0.160002 -0.023651
C54   C     C_1   0.162834 0.428930 0.840050 -0.023121
C55   C     C_1   0.663084 0.865653 0.340652 -0.027492
C56   C     C_1   0.336945 0.365490 0.659404 -0.026588
H19   H     H_    0.700549 0.996905 0.133601 0.113830
H20   H     H_    0.299966 0.490812 0.867344 0.113539
H21   H     H_    0.673018 0.668195 0.202846 0.115122
H22   H     H_    0.325338 0.163544 0.795547 0.115262
H23   H     H_    0.799050 0.596885 0.240043 0.127713
H24   H     H_    0.198858 0.098644 0.757481 0.128887
O11   O     O_R   0.056650 0.288730 0.942060 -0.583493
O12   O     O_R   0.943350 0.788730 0.057940 -0.583290
O13   O     O_R   0.058660 0.616870 0.085540 -0.584088
O14   O     O_R   0.941340 0.116870 0.914460 -0.584568
C57   C     C_R   0.072765 0.449246 0.111142 0.933033
C58   C     C_R   0.927233 0.948230 0.888949 0.931958
O15   O     O_R   0.063700 0.618520 0.944220 -0.586156
O16   O     O_R   0.936300 0.118520 0.055780 -0.586293
O17   O     O_R   0.948460 0.787610 0.915680 -0.580179
O18   O     O_R   0.051540 0.287610 0.084320 -0.581782
C59   C     C_R   0.078918 0.450039 0.924651 0.958998
C60   C     C_R   0.921101 0.949967 0.075355 0.958303
O19   O     O_3   0.962230 0.453430 0.990860 -0.283623
O20   O     O_3   0.037770 0.953430 0.009140 -0.284376
V3    V     V_3+5 0.007010 0.728750 0.001700 1.174790
V4    V     V_3+5 0.992990 0.228750 0.998300 1.173523
N1    N     N_R   0.897226 0.919158 0.630714 0.232661
O21   O     O_R   0.882925 0.788044 0.584550 -0.379749
O22   O     O_R   0.943747 0.024473 0.625487 -0.356324
N2    N     N_R   0.109224 0.562424 0.365823 0.231042
O23   O     O_R   0.114157 0.448323 0.418635 -0.373828
O24   O     O_R   0.071553 0.700174 0.364021 -0.360316
N3    N     N_3   0.724136 0.750727 0.876095 -0.223535
H25   H     H_    0.713106 0.612896 0.884754 0.115167
H26   H     H_    0.711417 0.830667 0.916736 0.091792
N4    N     N_3   0.283654 0.417077 0.117097 -0.228350
H27   H     H_    0.286683 0.302463 0.084563 0.096635
H28   H     H_    0.306876 0.526985 0.097976 0.108051

loop_
_geom_bond_atom_site_label_1
_geom_bond_atom_site_label_2
_geom_bond_distance
_ccdc_geom_bond_type
O17   V3    1.985943 S    
C2    C39   1.453291 S    
O15   C59   1.334598 A    
C37   C53   1.216450 T    
C7    C29   1.391463 A    
C11   C13   1.401267 A    
C18   C26   1.400719 A    
C38   C59   1.453505 S    
C42   C46   1.550835 S    
O2    C4    1.331696 A    
O11   C59   1.330387 A    
C2    O7    1.338227 A    
N2    O24   1.301261 A    
C39   C55   1.216372 T    
C23   C25   1.386245 A    
O5    C3    1.331320 A    
C16   C20   1.447368 A    
C19   C21   1.427543 A    
C5    C29   1.398938 A    
N1    O22   1.301345 A    
O11   V4    1.963015 S    
C42   H24   1.110360 S    
C33   C35   1.551280 S    
O20   V3    1.758293 S    
C34   C36   1.551264 S    
N3    H25   1.045841 S    
O16   C60   1.334925 A    
C7    C27   1.403125 A    
C36   H14   1.110188 S    
N4    H27   1.045979 S    
C25   H11   1.082954 S    
C26   H12   1.082885 S    
C36   C52   1.550883 S    
C12   C14   1.401561 A    
N3    H26   1.045980 S    
O14   C58   1.331504 A    
C46   C50   1.551124 S    
C15   C17   1.437293 A    
O18   V4    1.982812 S    
C19   C27   1.424765 A    
C9    C31   1.393086 A    
C57   O18   1.331506 A    
C10   C32   1.392887 A    
C48   C56   1.485054 S    
O5    V1    2.000961 S    
C13   N3    1.431708 S    
O12   C60   1.330767 A    
O6    V2    1.995449 S    
C22   C24   1.403252 A    
C44   C50   1.539582 S    
C3    C32   1.483361 S    
C4    C31   1.482680 S    
C6    C30   1.397534 A    
C49   H19   1.110129 S    
N2    O23   1.301289 A    
C37   C60   1.453474 S    
C33   H15   1.110180 S    
C34   H16   1.110166 S    
C6    N2    1.436498 S    
O19   V4    1.762280 S    
O12   V3    1.963583 S    
O16   V4    1.972959 S    
C35   H13   1.110173 S    
C46   C48   1.539799 S    
C8    C57   1.479015 S    
C38   C54   1.216466 T    
C33   C47   1.539619 S    
C42   C44   1.540403 S    
C49   C51   1.550968 S    
C12   H10   1.083339 S    
C27   H5    1.075285 S    
C14   N4    1.431462 S    
H1    C29   1.084063 S    
C16   C18   1.437680 A    
O4    V2    1.972831 S    
C9    H7    1.083977 S    
C1    C40   1.453362 S    
C10   H8    1.083952 S    
H18   C52   1.110359 S    
C48   C52   1.540381 S    
H17   C51   1.110364 S    
H3    C23   1.081260 S    
C47   C51   1.540355 S    
O6    C4    1.331456 A    
H4    C24   1.080716 S    
O13   C57   1.328964 A    
C43   C49   1.539561 S    
O1    V2    1.981338 S    
C5    C21   1.421155 A    
C33   C41   1.551118 S    
O2    V1    1.984436 S    
C45   C47   1.539792 S    
O13   V3    2.000807 S    
C50   C52   1.551002 S    
C41   C45   1.550832 S    
C17   C31   1.424092 A    
C15   C19   1.445689 A    
C20   C28   1.426374 A    
O4    C2    1.342650 A    
C18   C32   1.424213 A    
C40   C56   1.216415 T    
O3    V1    1.973493 S    
C41   C43   1.540401 S    
C28   H6    1.074512 S    
C35   C43   1.539869 S    
C35   C51   1.550870 S    
C44   C54   1.485103 S    
C24   C26   1.385287 A    
O3    C1    1.342385 A    
C5    N1    1.437565 S    
C11   H9    1.083340 S    
O9    V2    1.762973 S    
C9    C11   1.386095 A    
C58   O17   1.328803 A    
O15   V3    1.973622 S    
C10   C12   1.386130 A    
C8    C30   1.391788 A    
C20   C22   1.428920 A    
O7    V1    1.959445 S    
C17   C25   1.401354 A    
C1    O8    1.337797 A    
C50   H20   1.110148 S    
O8    V2    1.958905 S    
N1    O21   1.301395 A    
C14   C16   1.430814 A    
C34   C42   1.551104 S    
C8    C28   1.403700 A    
C36   C44   1.539862 S    
C6    C22   1.420854 A    
N4    H28   1.045830 S    
C34   C48   1.539631 S    
C47   C55   1.484981 S    
C21   C23   1.403376 A    
C7    C58   1.477468 S    
C41   H23   1.110361 S    
C13   C15   1.430412 A    
C45   H21   1.110170 S    
O10   V1    1.758977 S    
O14   V4    1.995301 S    
O1    C3    1.331684 A    
C45   C49   1.551098 S    
C43   C53   1.485075 S    
H2    C30   1.084175 S    
C46   H22   1.110179 S    
