data_str_m9_o7_o18_f0_sra.sym.51
_audit_creation_date              2012-12-11T17:36:19-0500
_audit_creation_method            fapswitch 2.2
_symmetry_space_group_name_H-M    P1
_symmetry_Int_Tables_number       1
_space_group_crystal_system       triclinic
_cell_length_a                    25.868881
_cell_length_b                    6.897566
_cell_length_c                    21.659758
_cell_angle_alpha                 90.006117
_cell_angle_beta                  96.081064
_cell_angle_gamma                 90.004173
_cell_volume                      3843.05350935

loop_
_atom_site_label
_atom_site_type_symbol
_atom_type_description
_atom_site_fract_x
_atom_site_fract_y
_atom_site_fract_z
_atom_type_partial_charge
O1    O     O_R   0.208650 0.594520 0.175450 -0.551495
O2    O     O_R   0.791350 0.405480 0.824550 -0.551255
O3    O     O_R   0.291350 0.094520 0.324550 -0.551458
O4    O     O_R   0.708650 0.905480 0.675450 -0.551217
O5    O     O_R   0.192980 0.260780 0.300160 -0.505120
O6    O     O_R   0.807020 0.739220 0.699840 -0.506554
O7    O     O_R   0.307020 0.760780 0.199840 -0.505089
O8    O     O_R   0.692980 0.239220 0.800160 -0.506530
C1    C     C_R   0.177556 0.432676 0.316583 0.761990
C2    C     C_R   0.822429 0.567296 0.683413 0.758206
C3    C     C_R   0.322441 0.932673 0.183411 0.761750
C4    C     C_R   0.677569 0.067296 0.816584 0.758354
O9    O     O_R   0.202550 0.264660 0.174420 -0.526737
O10   O     O_R   0.797450 0.735340 0.825580 -0.526216
O11   O     O_R   0.297450 0.764660 0.325580 -0.526684
O12   O     O_R   0.702550 0.235340 0.674420 -0.526090
O13   O     O_R   0.300990 0.096480 0.197920 -0.538945
O14   O     O_R   0.699010 0.903520 0.802080 -0.539520
O15   O     O_R   0.199010 0.596480 0.302080 -0.538987
O16   O     O_R   0.800990 0.403520 0.697920 -0.539539
C5    C     C_R   0.191191 0.433218 0.150969 0.719265
C6    C     C_R   0.808797 0.566806 0.849043 0.719678
C7    C     C_R   0.308807 0.933247 0.349029 0.719022
C8    C     C_R   0.691208 0.066773 0.650957 0.718652
O17   O     O_3   0.282290 0.427760 0.257860 -0.349233
O18   O     O_3   0.717710 0.572240 0.742140 -0.349509
O19   O     O_3   0.217710 0.927760 0.242140 -0.349344
O20   O     O_3   0.782290 0.072240 0.757860 -0.349543
V1    V     V_3+5 0.244010 0.152080 0.248540 1.596890
V2    V     V_3+5 0.755990 0.847920 0.751460 1.602968
V3    V     V_3+5 0.255990 0.652080 0.251460 1.597044
V4    V     V_3+5 0.744010 0.347920 0.748540 1.603138
C9    C     C_R   0.657707 0.062164 0.591498 -0.045046
C10   C     C_R   0.342427 0.938037 0.408397 -0.044556
C11   C     C_R   0.842378 0.562365 0.908448 -0.044199
C12   C     C_R   0.157621 0.437880 0.091561 -0.044512
C13   C     C_R   0.646300 0.137269 0.482068 -0.126307
C14   C     C_R   0.354008 0.864475 0.517941 -0.118147
C15   C     C_R   0.854032 0.639057 0.017799 -0.116119
C16   C     C_R   0.146067 0.362989 0.982085 -0.118124
C17   C     C_R   0.677998 0.124424 0.537879 -0.204125
C18   C     C_R   0.322196 0.876882 0.462195 -0.213227
C19   C     C_R   0.822194 0.625206 0.962102 -0.213441
C20   C     C_R   0.177854 0.375890 0.037845 -0.213090
C21   C     C_R   0.604789 0.013708 0.589068 -0.139766
C22   C     C_R   0.395362 0.986233 0.410598 -0.145586
C23   C     C_R   0.895296 0.513793 0.910765 -0.141756
C24   C     C_R   0.104713 0.486580 0.089247 -0.146739
C25   C     C_R   0.570876 0.029916 0.532794 0.041322
C26   C     C_R   0.429381 0.970563 0.466807 0.036484
C27   C     C_R   0.929310 0.530823 0.966919 0.035330
C28   C     C_R   0.070768 0.470822 0.033000 0.035856
C29   C     C_R   0.592907 0.091886 0.478612 0.117842
C30   C     C_R   0.407407 0.908931 0.521051 0.135848
C31   C     C_R   0.907415 0.594360 0.021000 0.135140
C32   C     C_R   0.092699 0.407962 0.978868 0.134994
C33   C     C_R   0.516046 0.989712 0.528765 0.024299
C34   C     C_R   0.484248 0.011075 0.470814 0.019522
C35   C     C_R   0.984125 0.489947 0.970986 0.024839
C36   C     C_R   0.015982 0.512244 0.028891 0.026060
C37   C     C_R   0.508287 0.071269 0.418561 -0.179897
C38   C     C_R   0.491984 0.929717 0.581018 -0.198151
C39   C     C_R   0.992048 0.574790 0.080943 -0.200624
C40   C     C_R   0.008111 0.428398 0.918859 -0.199581
C41   C     C_R   0.561495 0.110923 0.421813 0.179490
C42   C     C_R   0.438908 0.890092 0.577624 0.161330
C43   C     C_R   0.938996 0.615067 0.077464 0.164589
C44   C     C_R   0.061174 0.388329 0.922324 0.160984
H1    H     H_    0.408574 0.030132 0.367253 0.134178
H2    H     H_    0.591464 0.969220 0.632294 0.135867
H3    H     H_    0.091387 0.530611 0.132528 0.134428
H4    H     H_    0.908561 0.468688 0.867561 0.136622
H5    H     H_    0.281568 0.837015 0.460905 0.106043
H6    H     H_    0.718595 0.164935 0.539365 0.104350
H7    H     H_    0.218456 0.335599 0.039225 0.105999
H8    H     H_    0.781591 0.665497 0.960714 0.106010
H9    H     H_    0.663925 0.186616 0.441720 0.154294
H10   H     H_    0.336521 0.816495 0.558557 0.162491
H11   H     H_    0.836586 0.688442 0.058284 0.163375
H12   H     H_    0.163543 0.314184 0.941553 0.162444
H13   H     H_    0.486659 0.088664 0.373749 0.137903
H14   H     H_    0.513251 0.911079 0.626047 0.149934
H15   H     H_    0.013439 0.595382 0.125818 0.143532
H16   H     H_    0.986780 0.408943 0.873896 0.150380
C45   C     C_R   0.447381 0.825819 0.106426 0.125546
C46   C     C_R   0.552489 0.173441 0.893251 0.111395
C47   C     C_R   0.052568 0.325934 0.393478 0.125544
C48   C     C_R   0.947495 0.673466 0.606714 0.111343
C49   C     C_R   0.409600 0.813988 0.149456 0.460087
C50   C     C_R   0.590204 0.184686 0.850137 0.413936
C51   C     C_R   0.090358 0.314125 0.350459 0.460750
C52   C     C_R   0.909786 0.684727 0.649836 0.413976
C53   C     C_R   0.366278 0.943545 0.143523 -0.224892
C54   C     C_R   0.633753 0.056326 0.856461 -0.206442
C55   C     C_R   0.133711 0.443559 0.356456 -0.224748
C56   C     C_R   0.866241 0.556322 0.643527 -0.206415
C57   C     C_R   0.364370 0.089082 0.097799 -0.173368
C58   C     C_R   0.635912 0.911975 0.902579 -0.169318
C59   C     C_R   0.135641 0.588988 0.402226 -0.173600
C60   C     C_R   0.864078 0.411921 0.597415 -0.169478
H17   H     H_    0.332311 0.190903 0.092598 0.145621
H18   H     H_    0.668143 0.810936 0.908040 0.141072
H19   H     H_    0.167723 0.690727 0.407469 0.145471
H20   H     H_    0.831849 0.310850 0.591964 0.140970
C61   C     C_R   0.402984 0.104929 0.057615 -0.132699
C62   C     C_R   0.597327 0.896401 0.942817 -0.129544
C63   C     C_R   0.097021 0.604816 0.442403 -0.132699
C64   C     C_R   0.902657 0.396335 0.557168 -0.129757
H21   H     H_    0.400208 0.219254 0.023107 0.132713
H22   H     H_    0.600287 0.782991 0.977633 0.131166
H23   H     H_    0.099817 0.719045 0.476952 0.132699
H24   H     H_    0.899695 0.282885 0.522357 0.131004
C65   C     C_R   0.444274 0.973547 0.060984 0.000493
C66   C     C_R   0.555833 0.026949 0.939104 0.015253
C67   C     C_R   0.055701 0.473531 0.438976 0.000517
C68   C     C_R   0.944148 0.526920 0.560867 0.015293
C69   C     C_1   0.483598 0.992610 0.017909 -0.025895
C70   C     C_1   0.516519 0.008114 0.982199 -0.026950
C71   C     C_1   0.016375 0.492569 0.482050 -0.025943
C72   C     C_1   0.983457 0.508072 0.517764 -0.027035
N1    N     N_3   0.583912 0.171833 0.366900 -0.663617
H25   H     H_    0.555027 0.205026 0.330961 0.244518
H26   H     H_    0.604717 0.054187 0.351755 0.235894
N2    N     N_3   0.417057 0.828833 0.632607 -0.676589
H27   H     H_    0.424464 0.936487 0.666389 0.243212
H28   H     H_    0.436259 0.702627 0.649028 0.259399
N3    N     N_3   0.917261 0.679088 0.132220 -0.676430
H29   H     H_    0.924622 0.572819 0.166454 0.252051
H30   H     H_    0.936583 0.805687 0.148071 0.243817
N4    N     N_3   0.082981 0.325662 0.867464 -0.676400
H31   H     H_    0.075634 0.432666 0.833465 0.243417
H32   H     H_    0.063700 0.199312 0.851302 0.259310
N5    N     N_3   0.488562 0.685942 0.108663 -0.564210
H33   H     H_    0.486432 0.614610 0.065864 0.220211
H34   H     H_    0.524089 0.759246 0.115508 0.244012
N6    N     N_3   0.511139 0.312700 0.890659 -0.584887
H35   H     H_    0.513194 0.385099 0.933270 0.229064
H36   H     H_    0.475703 0.238728 0.884028 0.233195
N7    N     N_3   0.011351 0.186169 0.391170 -0.564340
H37   H     H_    0.013450 0.114715 0.433942 0.220312
H38   H     H_    0.975843 0.259585 0.384340 0.243695
N8    N     N_3   0.988841 0.812762 0.609292 -0.584885
H39   H     H_    0.986779 0.885112 0.566676 0.229041
H40   H     H_    0.024279 0.738826 0.615919 0.233205
S1    S     S_3+6 0.418719 0.644121 0.211783 0.007935
O21   O     O_2   0.402291 0.732601 0.270042 -0.367767
O22   O     O_2   0.386119 0.467782 0.194921 -0.340065
O23   O     O_3   0.481295 0.576119 0.226145 -0.478057
H41   H     H_    0.481509 0.476001 0.258964 0.360476
S2    S     S_3+6 0.580635 0.352196 0.787196 0.024648
O24   O     O_2   0.611866 0.531853 0.803912 -0.310508
O25   O     O_2   0.598349 0.265627 0.729328 -0.369531
O26   O     O_3   0.517801 0.415510 0.771697 -0.466813
H42   H     H_    0.500149 0.296972 0.754353 0.335309
S3    S     S_3+6 0.081213 0.144450 0.288067 0.006505
O27   O     O_2   0.097725 0.232971 0.229861 -0.368513
O28   O     O_2   0.113727 0.967904 0.304901 -0.339595
O29   O     O_3   0.018611 0.076817 0.273616 -0.480340
H43   H     H_    0.018377 0.976707 0.240783 0.357782
S4    S     S_3+6 0.919357 0.852322 0.712767 0.024496
O30   O     O_2   0.888111 0.031915 0.696050 -0.310572
O31   O     O_2   0.901661 0.765791 0.770646 -0.369573
O32   O     O_3   0.982187 0.915749 0.728245 -0.466894
H44   H     H_    0.999851 0.797263 0.745596 0.335346

loop_
_geom_bond_atom_site_label_1
_geom_bond_atom_site_label_2
_ccdc_geom_bond_type
O17   V3    S    
C59   H19   S    
O1    C5    A    
C45   N5    S    
C47   C51   A    
O19   V1    S    
C9    C21   A    
O3    C7    A    
O32   H44   S    
C10   C18   A    
O1    V3    S    
C50   S2    S    
O15   V3    S    
S1    O21   D    
C25   C33   A    
C33   C38   A    
C5    C12   S    
O7    C3    A    
C6    C11   S    
C35   C40   A    
C26   C30   A    
C62   C66   A    
C36   C39   A    
C40   C44   A    
C61   C65   A    
C14   C18   A    
C62   H22   S    
O4    C8    A    
C55   C59   A    
S3    O28   D    
C54   C58   A    
C52   C56   A    
O13   V1    S    
O2    V4    S    
O3    V1    S    
C40   H16   S    
C22   H1    S    
C28   C36   A    
C17   H6    S    
C1    O15   A    
C60   H20   S    
C15   C31   A    
C48   C52   A    
C2    O16   A    
C16   C32   A    
S2    O26   S    
O2    C6    A    
C16   H12   S    
C10   C22   A    
C2    C56   S    
C11   C19   A    
C1    C55   S    
C16   C20   A    
C47   C67   A    
C13   C29   A    
C3    C53   S    
C34   C37   A    
O11   C7    A    
C38   H14   S    
C11   C23   A    
C35   C36   A    
O12   C8    A    
S3    O29   S    
C49   C53   A    
C4    C54   S    
O10   V2    S    
C48   N8    S    
S1    O22   D    
C50   C54   A    
O5    V1    S    
O17   V1    S    
N7    H37   S    
C39   C43   A    
C60   C64   A    
O7    V3    S    
C38   C42   A    
O19   V3    S    
C26   C34   A    
S4    O32   S    
O20   V4    S    
O23   H41   S    
N6    H36   S    
C46   C50   A    
C45   C49   A    
O18   V4    S    
C23   C27   A    
C14   H10   S    
C27   C31   A    
C32   C44   A    
C13   H9    S    
C68   C72   S    
C39   H15   S    
C15   H11   S    
C48   C68   A    
C20   H7    S    
N4    H32   S    
N3    H30   S    
O5    C1    A    
S2    O25   D    
C43   N3    S    
C49   S1    S    
C31   C43   A    
C14   C30   A    
C21   C25   A    
O8    C4    A    
C7    C10   S    
O9    C5    A    
C44   N4    S    
C63   C67   A    
N1    H25   S    
C66   C70   S    
C65   C69   S    
C46   N6    S    
O6    V2    S    
O18   V2    S    
C41   N1    S    
N5    H33   S    
N8    H40   S    
C12   C20   A    
C27   C35   A    
C51   S3    S    
C24   H3    S    
N3    H29   S    
C53   C57   A    
S1    O23   S    
C29   C41   A    
N2    H28   S    
O16   V4    S    
O9    V1    S    
C19   H8    S    
C61   H21   S    
C3    O13   A    
C18   H5    S    
C21   H2    S    
N8    H39   S    
C63   H23   S    
C47   N7    S    
N6    H35   S    
O6    C2    A    
C15   C19   A    
C71   C72   T    
O11   V3    S    
C30   C42   A    
O12   V4    S    
C59   C63   A    
C22   C26   A    
C67   C71   S    
C8    C9    S    
C58   C62   A    
C52   S4    S    
C46   C66   A    
C9    C17   A    
S4    O30   D    
O10   C6    A    
O20   V2    S    
N4    H31   S    
C57   C61   A    
C58   H18   S    
C69   C70   T    
N7    H38   S    
C64   C68   A    
C33   C34   A    
O29   H43   S    
O8    V4    S    
C25   C29   A    
C56   C60   A    
C45   C65   A    
C12   C24   A    
C42   N2    S    
C37   C41   A    
C13   C17   A    
C57   H17   S    
C23   H4    S    
N1    H26   S    
O14   V2    S    
C51   C55   A    
C64   H24   S    
C24   C28   A    
C4    O14   A    
S3    O27   D    
N5    H34   S    
S2    O24   D    
C37   H13   S    
O26   H42   S    
O4    V2    S    
C28   C32   A    
S4    O31   D    
N2    H27   S    
