data_str_m2_o10_o29_f0_pcu.sym.7
_audit_creation_date              2012-10-26T20:17:42-0400
_audit_creation_method            fapswitch 2.2
_symmetry_space_group_name_H-M    P1
_symmetry_Int_Tables_number       1
_space_group_crystal_system       triclinic
_cell_length_a                    27.773864
_cell_length_b                    8.641855
_cell_length_c                    7.511374
_cell_angle_alpha                 103.184879
_cell_angle_beta                  94.885973
_cell_angle_gamma                 93.097547
_cell_volume                      1743.93707054

loop_
_atom_site_label
_atom_site_type_symbol
_atom_type_description
_atom_site_fract_x
_atom_site_fract_y
_atom_site_fract_z
_atom_type_partial_charge
C1    C     C_R   0.498383 0.199788 0.453075 0.528909
C2    C     C_R   0.867961 0.352714 0.422047 0.031294
C3    C     C_R   0.354628 0.502104 0.503369 -0.019688
C4    C     C_R   0.645356 0.499729 0.494993 -0.029339
C5    C     C_R   0.969635 0.349311 0.406559 0.022119
C6    C     C_R   0.028754 0.631321 0.567131 0.023001
C7    C     C_R   0.977855 0.640087 0.540961 0.018826
C8    C     C_R   0.020566 0.349943 0.391016 0.015668
C9    C     C_R   0.948466 0.495700 0.471628 -0.023655
C10   C     C_R   0.049959 0.490944 0.481069 -0.030071
C11   C     C_R   0.939091 0.207159 0.367792 -0.118568
C12   C     C_R   0.501673 0.800218 0.546917 0.527797
C13   C     C_R   0.059187 0.755892 0.684311 -0.125094
C14   C     C_R   0.889349 0.208765 0.373851 -0.143899
C15   C     C_R   0.109204 0.753907 0.695499 -0.136740
C16   C     C_R   0.407584 0.500818 0.501286 0.527416
C17   C     C_R   0.592426 0.500041 0.498627 0.524640
C18   C     C_R   0.043633 0.215565 0.294142 0.237498
C19   C     C_R   0.955340 0.787457 0.581445 0.219625
C20   C     C_2   0.497339 0.031332 0.427147 -0.162976
C21   C     C_2   0.502811 0.968682 0.572814 -0.163104
C22   C     C_R   0.173824 0.364812 0.397492 0.378053
C23   C     C_R   0.101182 0.491640 0.489174 -0.045499
C24   C     C_R   0.825065 0.639615 0.520584 0.386684
C25   C     C_R   0.181245 0.623937 0.597725 0.431486
C26   C     C_R   0.817676 0.355885 0.427621 0.397741
C27   C     C_R   0.275182 0.509449 0.345772 -0.095626
C28   C     C_R   0.715651 0.475374 0.323186 -0.092393
C29   C     C_R   0.325285 0.510225 0.344515 -0.161909
C30   C     C_R   0.665713 0.476132 0.327065 -0.165356
C31   C     C_R   0.332893 0.494148 0.663357 -0.142363
C32   C     C_R   0.675907 0.521598 0.659199 -0.106986
C33   C     C_R   0.282399 0.487852 0.663416 0.189118
C34   C     C_R   0.897417 0.496738 0.471387 -0.044102
C35   C     C_R   0.726352 0.522405 0.657144 0.198191
C36   C     C_R   0.253469 0.496845 0.503489 0.271459
C37   C     C_R   0.746115 0.498406 0.486603 0.251017
C38   C     C_3   0.422033 0.280844 0.968818 0.045194
C39   C     C_3   0.395309 0.157962 0.807952 -0.394883
C40   C     C_3   0.578882 0.714554 0.034229 0.041749
C41   C     C_3   0.605530 0.838052 0.194663 -0.390115
C42   C     C_3   0.242887 0.313835 0.824148 -0.280311
C43   C     C_3   0.755269 0.687655 0.959321 -0.289359
C44   C     C_3   0.034112 0.938266 0.207254 -0.020083
C45   C     C_R   0.123081 0.360137 0.392142 -0.018403
C46   C     C_3   0.995026 0.802098 0.136634 -0.361205
C47   C     C_3   0.969348 0.052222 0.746596 -0.025089
C48   C     C_3   0.010997 0.180492 0.809835 -0.335418
C49   C     C_R   0.875669 0.641410 0.521105 -0.020854
C50   C     C_R   0.094268 0.227033 0.290961 -0.117199
C51   C     C_R   0.904472 0.784775 0.567423 -0.124825
C52   C     C_R   0.130686 0.624706 0.593979 0.030739
Cu1   Cu    Cu3+1 0.505380 0.517380 0.684380 1.036109
Cu2   Cu    Cu3+1 0.494620 0.482620 0.315620 1.034961
H1    H     H_    0.354907 0.489825 0.787476 0.112490
H2    H     H_    0.130933 0.854017 0.785062 0.160708
H3    H     H_    0.952738 0.091567 0.345891 0.207701
H4    H     H_    0.044982 0.853063 0.776106 0.170321
H5    H     H_    0.492022 0.958722 0.287252 0.164438
H6    H     H_    0.508151 0.041296 0.712702 0.164743
H7    H     H_    0.400881 0.388037 0.994947 0.122129
H8    H     H_    0.423604 0.228246 0.090270 0.167277
H9    H     H_    0.414356 0.046437 0.783240 0.156274
H10   H     H_    0.357871 0.130455 0.839065 0.106231
H11   H     H_    0.393542 0.204646 0.681717 0.162497
H12   H     H_    0.660578 0.535638 0.789113 0.116927
H13   H     H_    0.578375 0.764659 0.910871 0.164222
H14   H     H_    0.599422 0.605769 0.013147 0.121340
H15   H     H_    0.606306 0.793328 0.322153 0.166402
H16   H     H_    0.643359 0.862550 0.165441 0.109335
H17   H     H_    0.587083 0.950762 0.215957 0.155869
H18   H     H_    0.282264 0.527730 0.944018 0.238010
H19   H     H_    0.224022 0.315085 0.948835 0.172911
H20   H     H_    0.273431 0.235891 0.823827 0.144767
H21   H     H_    0.216545 0.263894 0.702294 0.192748
H22   H     H_    0.791134 0.503142 0.811500 0.269115
H23   H     H_    0.111457 0.131039 0.207273 0.153450
H24   H     H_    0.779699 0.686931 0.084139 0.161103
H25   H     H_    0.718150 0.704207 0.001039 0.139133
H26   H     H_    0.767720 0.789098 0.902427 0.199957
H27   H     H_    0.045090 0.943512 0.354889 0.190320
H28   H     H_    0.065413 0.908333 0.126521 0.122619
H29   H     H_    0.985492 0.785888 0.986821 0.137958
H30   H     H_    0.008640 0.689614 0.161576 0.118877
H31   H     H_    0.961935 0.826014 0.207999 0.169732
H32   H     H_    0.960187 0.005409 0.866800 0.175871
H33   H     H_    0.937767 0.109983 0.697517 0.136978
H34   H     H_    0.887093 0.895540 0.590160 0.154385
H35   H     H_    0.021206 0.228817 0.692939 0.151648
H36   H     H_    0.999899 0.279238 0.917546 0.132337
H37   H     H_    0.043251 0.130749 0.866647 0.170551
H38   H     H_    0.643098 0.456765 0.198245 0.132051
H39   H     H_    0.341020 0.518648 0.219761 0.117675
H40   H     H_    0.730849 0.456265 0.192579 0.146446
H41   H     H_    0.252850 0.519145 0.224428 0.131634
H42   H     H_    0.867800 0.095839 0.343339 0.165347
N1    N     N_R   0.201722 0.495022 0.500240 -0.380997
N2    N     N_R   0.797423 0.498004 0.477714 -0.402798
N3    N     N_2   0.486510 0.456430 0.038510 0.094804
N4    N     N_2   0.513490 0.543570 0.961490 0.095881
N5    N     N_2   0.260847 0.474267 0.824646 -0.497523
N6    N     N_2   0.756525 0.538613 0.825000 -0.520362
O1    O     O_R   0.503500 0.286120 0.619780 -0.453872
O2    O     O_2   0.803615 0.777931 0.563672 -0.502073
O3    O     O_2   0.789238 0.218281 0.384662 -0.485931
O4    O     O_2   0.209723 0.751504 0.696187 -0.486287
O5    O     O_3   0.468946 0.317099 0.925293 -0.462297
O6    O     O_3   0.531404 0.682369 0.074876 -0.461278
O7    O     O_3   0.016419 0.083651 0.181825 -0.604733
O8    O     O_3   0.982980 0.931143 0.602268 -0.602070
O9    O     O_R   0.496500 0.713880 0.380220 -0.455191
O10   O     O_R   0.494410 0.256780 0.308360 -0.512789
O11   O     O_R   0.505590 0.743220 0.691640 -0.510680
O12   O     O_R   0.434810 0.514700 0.655690 -0.489907
O13   O     O_R   0.565190 0.485300 0.344310 -0.488927
O14   O     O_R   0.425720 0.485350 0.344280 -0.544607
O15   O     O_R   0.574280 0.514650 0.655720 -0.546868
O16   O     O_2   0.195224 0.239298 0.303149 -0.520204

loop_
_geom_bond_atom_site_label_1
_geom_bond_atom_site_label_2
_ccdc_geom_bond_type
C42   N5    S    
C23   C45   A    
C27   C29   A    
C27   H41   S    
C18   O7    S    
C35   N6    S    
Cu1   Cu2   S    
C43   H24   S    
C39   H10   S    
C17   O13   A    
C42   H21   S    
C33   N5    S    
C45   C50   A    
C32   H12   S    
C35   C37   A    
C5    C11   A    
C44   H28   S    
C1    O10   A    
C38   C39   S    
C11   C14   A    
Cu1   O15   S    
H18   N5    S    
C43   H25   S    
C33   C36   A    
C28   H40   S    
C38   O5    S    
C3    C29   A    
N3    N4    D    
Cu1   O11   S    
C49   C51   A    
C40   H13   S    
Cu2   O14   S    
C31   C33   A    
C36   N1    S    
C1    O1    A    
C17   O15   A    
C41   H17   S    
C46   H31   S    
C44   O7    S    
C2    C34   A    
C22   N1    A    
C48   H36   S    
C39   H11   S    
C16   O14   A    
C26   O3    S    
C14   H42   S    
C37   N2    S    
C44   C46   S    
C25   O4    S    
Cu1   N4    S    
H22   N6    S    
N4    O6    S    
C42   H20   S    
C32   C35   A    
C21   H6    S    
C30   H38   S    
C44   H27   S    
C13   H4    S    
C43   H26   S    
C12   C21   S    
C48   H37   S    
C8    C18   A    
C24   O2    S    
C47   H33   S    
C47   H32   S    
C5    C9    A    
C47   C48   S    
Cu2   O13   S    
Cu2   O10   S    
C2    C26   A    
C15   C52   A    
C20   H5    S    
C3    C31   A    
C4    C32   A    
C26   N2    A    
C46   H30   S    
C4    C17   S    
C25   N1    A    
C40   C41   S    
C7    C19   A    
C48   H35   S    
C13   C15   A    
C9    C34   A    
C10   C23   A    
C24   N2    A    
Cu2   N3    S    
C50   H23   S    
C39   H9    S    
Cu1   O12   S    
C18   C50   A    
C41   H15   S    
C12   O11   A    
C19   O8    S    
C24   C49   A    
C7    C9    A    
C22   O16   S    
C34   C49   A    
C1    C20   S    
C16   O12   A    
C51   H34   S    
C6    C10   A    
C5    C8    A    
C6    C7    A    
C27   C36   A    
C47   O8    S    
N3    O5    S    
C40   O6    S    
C15   H2    S    
C38   H7    S    
C28   C30   A    
C25   C52   A    
C6    C13   A    
C29   H39   S    
C23   C52   A    
C28   C37   A    
Cu1   O1    S    
C42   H19   S    
Cu2   O9    S    
C2    C14   A    
C43   N6    S    
C46   H29   S    
C19   C51   A    
C22   C45   A    
C20   C21   D    
C8    C10   A    
C40   H14   S    
C31   H1    S    
C11   H3    S    
C12   O9    A    
C4    C30   A    
C3    C16   S    
C41   H16   S    
C38   H8    S    
