data_str_m2_o16_o16_f0_pcu.sym.21
_audit_creation_date              2012-10-26T20:02:30-0400
_audit_creation_method            fapswitch 2.2
_symmetry_space_group_name_H-M    P1
_symmetry_Int_Tables_number       1
_space_group_crystal_system       triclinic
_cell_length_a                    19.050442
_cell_length_b                    18.569471
_cell_length_c                    12.351147
_cell_angle_alpha                 90.041948
_cell_angle_beta                  129.113374
_cell_angle_gamma                 90.010365
_cell_volume                      3390.1342969

loop_
_atom_site_label
_atom_site_type_symbol
_atom_type_description
_atom_site_fract_x
_atom_site_fract_y
_atom_site_fract_z
_atom_type_partial_charge
C1    C     C_R   0.610211 0.896880 0.650606 0.541111
C2    C     C_R   0.662206 0.730921 0.031188 0.079335
C3    C     C_2   0.078180 0.180253 0.115147 0.295356
C4    C     C_R   0.161229 0.768654 0.031723 0.030334
C5    C     C_R   0.162208 0.230923 0.031191 0.079332
C6    C     C_R   0.590024 0.222719 0.928708 -0.014434
C7    C     C_R   0.590995 0.776550 0.928086 0.033166
C8    C     C_R   0.090024 0.722719 0.928708 -0.014434
C9    C     C_R   0.090996 0.276551 0.928086 0.033163
C10   C     C_R   0.586268 0.200238 0.817933 -0.141297
C11   C     C_R   0.587884 0.799393 0.818184 -0.156419
C12   C     C_R   0.086268 0.700238 0.817934 -0.141297
C13   C     C_R   0.609618 0.103527 0.649895 0.542847
C14   C     C_R   0.087884 0.299392 0.818184 -0.156417
C15   C     C_R   0.310423 0.819332 0.141246 -0.137169
C16   C     C_R   0.312581 0.182099 0.144211 -0.132525
C17   C     C_R   0.810424 0.319332 0.141246 -0.137169
C18   C     C_R   0.812580 0.682099 0.144211 -0.132525
C19   C     C_R   0.238901 0.840676 0.243802 -0.100433
C20   C     C_R   0.238725 0.158802 0.242550 -0.157924
C21   C     C_R   0.738902 0.340675 0.243803 -0.100434
C22   C     C_R   0.738723 0.658799 0.242545 -0.157928
C23   C     C_R   0.667336 0.166819 0.728489 0.002788
C24   C     C_R   0.110211 0.396880 0.650606 0.541110
C25   C     C_R   0.669924 0.835013 0.731606 0.008400
C26   C     C_R   0.167335 0.666819 0.728489 0.002787
C27   C     C_R   0.169925 0.335013 0.731606 0.008399
C28   C     C_R   0.685465 0.999722 0.288869 -0.115853
C29   C     C_R   0.185465 0.499722 0.288869 -0.115854
C30   C     C_R   0.343364 0.999859 0.630332 0.125157
C31   C     C_R   0.843364 0.499859 0.630332 0.125158
C32   C     C_R   0.311123 0.999591 0.704909 -0.167043
C33   C     C_R   0.811123 0.499592 0.704909 -0.167042
C34   C     C_R   0.385155 0.099572 0.343683 0.557392
C35   C     C_R   0.109618 0.603527 0.649895 0.542848
C36   C     C_R   0.384894 0.900569 0.343316 0.551549
C37   C     C_R   0.885154 0.599571 0.343683 0.557392
C38   C     C_R   0.884894 0.400568 0.343316 0.551548
C39   C     C_R   0.370656 0.999487 0.849351 -0.150590
C40   C     C_R   0.870656 0.499488 0.849352 -0.150589
C41   C     C_R   0.464569 0.999666 0.923335 0.009947
C42   C     C_R   0.964569 0.499667 0.923335 0.009950
C43   C     C_R   0.495480 0.999870 0.843255 0.136385
C44   C     C_R   0.995480 0.499871 0.843255 0.136387
C45   C     C_R   0.528424 0.999671 0.073586 0.048703
C46   C     C_R   0.234905 0.780973 0.030376 0.004529
C47   C     C_R   0.028424 0.499671 0.073586 0.048707
C48   C     C_R   0.622483 0.999652 0.141801 0.075160
C49   C     C_R   0.122483 0.499653 0.141801 0.075162
C50   C     C_R   0.651856 0.999690 0.062079 -0.029602
C51   C     C_R   0.151856 0.499690 0.062079 -0.029600
C52   C     C_R   0.589349 0.999896 0.916840 -0.094534
C53   C     C_R   0.089349 0.499897 0.916840 -0.094533
C54   C     C_R   0.502879 0.999852 0.160024 0.081553
C55   C     C_R   0.002879 0.499852 0.160024 0.081553
C56   C     C_R   0.655827 0.999905 0.366767 0.053853
C57   C     C_R   0.237344 0.220384 0.032820 -0.006347
C58   C     C_R   0.155827 0.499905 0.366767 0.053852
C59   C     C_R   0.661188 0.304218 0.134205 0.037850
C60   C     C_R   0.661154 0.694279 0.131708 0.039004
C61   C     C_R   0.161187 0.804219 0.134205 0.037850
C62   C     C_R   0.161157 0.194284 0.131714 0.039002
C63   C     C_R   0.312085 0.850077 0.245368 -0.032629
C64   C     C_R   0.312875 0.150354 0.246315 -0.013200
C65   C     C_R   0.812085 0.350077 0.245368 -0.032629
C66   C     C_R   0.812875 0.650353 0.246314 -0.013200
C67   C     C_R   0.734891 0.184341 0.719128 -0.105764
C68   C     C_R   0.734905 0.280973 0.030376 0.004529
C69   C     C_R   0.739816 0.820237 0.726302 -0.124462
C70   C     C_R   0.234889 0.684342 0.719125 -0.105763
C71   C     C_R   0.239816 0.320237 0.726303 -0.124463
C72   C     C_R   0.297895 0.737298 0.803783 -0.085835
C73   C     C_R   0.305134 0.269490 0.814382 -0.129251
C74   C     C_R   0.797898 0.237296 0.803787 -0.085837
C75   C     C_R   0.805132 0.769489 0.814381 -0.129251
C76   C     C_R   0.298529 0.770351 0.905407 -0.096448
C77   C     C_R   0.304997 0.235413 0.914391 -0.095211
C78   C     C_R   0.798531 0.270349 0.905410 -0.096449
C79   C     C_R   0.737343 0.720383 0.032818 -0.006348
C80   C     C_R   0.804995 0.735412 0.914390 -0.095211
C81   C     C_R   0.732751 0.252807 0.920920 0.031762
C82   C     C_R   0.736557 0.749933 0.925516 0.033770
C83   C     C_R   0.232750 0.752807 0.920919 0.031761
C84   C     C_R   0.236558 0.249934 0.925517 0.033771
C85   C     C_R   0.661073 0.206595 0.820923 0.019376
C86   C     C_R   0.663717 0.794669 0.823452 0.015512
C87   C     C_R   0.161072 0.706595 0.820923 0.019376
C88   C     C_R   0.163718 0.294669 0.823452 0.015512
C89   C     C_1   0.746948 0.999614 0.126468 0.188205
C90   C     C_R   0.661230 0.268654 0.031723 0.030334
C91   C     C_1   0.246948 0.499614 0.126468 0.188205
C92   C     C_1   0.277088 0.999817 0.480727 0.249832
C93   C     C_1   0.777088 0.499816 0.480727 0.249832
C94   C     C_2   0.525993 0.186100 0.940958 0.175300
C95   C     C_2   0.526315 0.812447 0.939743 0.255594
C96   C     C_2   0.025993 0.686101 0.940959 0.175300
C97   C     C_2   0.026314 0.312447 0.939740 0.255587
C98   C     C_2   0.577742 0.315137 0.118241 0.299492
C99   C     C_2   0.578175 0.680245 0.115135 0.295355
C100  C     C_2   0.077741 0.815138 0.118240 0.299494
Cu1   Cu    Cu3+1 0.526340 0.000000 0.421010 0.962967
Cu2   Cu    Cu3+1 0.026340 0.500000 0.421010 0.962966
Cu3   Cu    Cu3+1 0.473640 0.000000 0.578990 0.926085
Cu4   Cu    Cu3+1 0.973640 0.500000 0.578990 0.926085
H1    H     H_    0.239610 0.866460 0.322931 0.189032
H2    H     H_    0.840767 0.499203 0.899770 0.105151
H3    H     H_    0.238976 0.999420 0.650655 0.124940
H4    H     H_    0.738976 0.499420 0.650655 0.124940
H5    H     H_    0.617580 0.000092 0.865062 0.192161
H6    H     H_    0.117580 0.500092 0.865062 0.192161
H7    H     H_    0.370193 0.825432 0.150494 0.138672
H8    H     H_    0.373077 0.176532 0.155412 0.144416
H9    H     H_    0.870194 0.325433 0.150493 0.138671
H10   H     H_    0.873077 0.676534 0.155414 0.144417
H11   H     H_    0.740001 0.156396 0.647331 0.145320
H12   H     H_    0.238133 0.132454 0.319989 0.137515
H13   H     H_    0.745251 0.848995 0.655590 0.132743
H14   H     H_    0.239998 0.656398 0.647328 0.145321
H15   H     H_    0.245252 0.348995 0.655590 0.132742
H16   H     H_    0.349863 0.810841 0.967129 0.129001
H17   H     H_    0.358299 0.196793 0.978687 0.134674
H18   H     H_    0.849866 0.310838 0.967133 0.129002
H19   H     H_    0.858297 0.696791 0.978684 0.134674
H20   H     H_    0.348299 0.751171 0.793084 0.147148
H21   H     H_    0.357852 0.258207 0.807580 0.102943
H22   H     H_    0.848304 0.251167 0.793090 0.147148
H23   H     H_    0.739610 0.366459 0.322932 0.189033
H24   H     H_    0.857850 0.758205 0.807578 0.102944
H25   H     H_    0.523801 0.175811 0.730869 0.142086
H26   H     H_    0.525214 0.823070 0.730313 0.141191
H27   H     H_    0.023801 0.675811 0.730869 0.142086
H28   H     H_    0.025214 0.323068 0.730311 0.141190
H29   H     H_    0.704507 0.999958 0.479548 0.122245
H30   H     H_    0.204507 0.499958 0.479548 0.122246
H31   H     H_    0.460458 0.168455 0.847645 0.095418
H32   H     H_    0.461805 0.831550 0.846472 0.088538
H33   H     H_    0.960458 0.668455 0.847645 0.095418
H34   H     H_    0.738130 0.632450 0.319983 0.137516
H35   H     H_    0.961803 0.331548 0.846467 0.088540
H36   H     H_    0.511772 0.312994 0.015860 0.106620
H37   H     H_    0.582552 0.674821 0.206754 0.113713
H38   H     H_    0.011771 0.812994 0.015860 0.106621
H39   H     H_    0.082557 0.174843 0.206769 0.113711
H40   H     H_    0.757679 0.999689 0.344615 0.114581
H41   H     H_    0.257679 0.499689 0.344615 0.114581
H42   H     H_    0.433177 0.999930 0.117206 0.110298
H43   H     H_    0.933177 0.499931 0.117206 0.110298
H44   H     H_    0.340766 0.999202 0.899770 0.105151
N1    N     N_R   0.566260 0.000000 0.302220 -0.232769
N2    N     N_R   0.066260 0.500000 0.302220 -0.232769
N3    N     N_R   0.434410 0.000000 0.697680 -0.261991
N4    N     N_R   0.934410 0.500000 0.697680 -0.261991
N5    N     N_1   0.822905 0.999548 0.177658 -0.268180
N6    N     N_1   0.322905 0.499548 0.177658 -0.268182
N7    N     N_1   0.222373 0.999748 0.360467 -0.312727
N8    N     N_1   0.722373 0.499746 0.360467 -0.312735
O1    O     O_R   0.608610 0.924520 0.551740 -0.501683
O2    O     O_R   0.435880 0.924530 0.314850 -0.506571
O3    O     O_R   0.935880 0.575470 0.314850 -0.504508
O4    O     O_R   0.935880 0.424530 0.314850 -0.506571
O5    O     O_R   0.391380 0.075460 0.448260 -0.502825
O6    O     O_R   0.391380 0.924540 0.448260 -0.502460
O7    O     O_R   0.891380 0.575460 0.448260 -0.502825
O8    O     O_R   0.891380 0.424540 0.448260 -0.502460
O9    O     O_2   0.548428 0.169604 0.054603 -0.506907
O10   O     O_2   0.547171 0.826688 0.053274 -0.525889
O11   O     O_2   0.048427 0.669605 0.054603 -0.506908
O12   O     O_R   0.608610 0.075480 0.551740 -0.496903
O13   O     O_2   0.047171 0.326693 0.053270 -0.525897
O14   O     O_2   0.581793 0.328139 0.219031 -0.483395
O15   O     O_2   0.505548 0.669770 0.000077 -0.508289
O16   O     O_2   0.081793 0.828140 0.219030 -0.483395
O17   O     O_2   0.005553 0.169770 0.000091 -0.508286
O18   O     O_R   0.108610 0.424520 0.551740 -0.501683
O19   O     O_R   0.108610 0.575480 0.551740 -0.496903
O20   O     O_R   0.564110 0.924510 0.685150 -0.534625
O21   O     O_R   0.564110 0.075490 0.685150 -0.534015
O22   O     O_R   0.064110 0.424510 0.685150 -0.534624
O23   O     O_R   0.064110 0.575490 0.685150 -0.534016
O24   O     O_R   0.435880 0.075470 0.314850 -0.504508

loop_
_geom_bond_atom_site_label_1
_geom_bond_atom_site_label_2
_ccdc_geom_bond_type
C53   H6    S    
C36   O6    A    
C11   H26   S    
C10   C85   A    
C12   H27   S    
C100  O16   D    
C25   C69   A    
C34   O24   A    
C2    C7    A    
C8    C96   S    
C24   C27   S    
C72   C76   A    
C60   C99   S    
C24   O18   A    
C18   H10   S    
Cu4   O7    S    
C56   H29   S    
C28   C56   A    
C17   H9    S    
C5    C57   A    
C39   C41   A    
C14   H28   S    
C58   H30   S    
C7    C11   A    
C44   N4    A    
C68   C81   A    
C40   H2    S    
C70   H14   S    
C21   C59   A    
C22   C60   A    
C2    C60   A    
C43   C52   A    
C45   C48   A    
Cu4   O23   S    
C99   O15   D    
C11   C86   A    
C23   C85   A    
C43   N3    A    
C97   O13   D    
C13   C23   S    
C75   H24   S    
C32   C39   A    
C23   C67   A    
C4    C8    A    
C67   H11   S    
C22   C66   A    
C2    C79   A    
C51   C91   S    
C55   H43   S    
C44   C53   A    
C3    O17   D    
Cu4   O22   S    
C19   C63   A    
C26   C87   A    
C6    C94   S    
C32   H3    S    
C39   H44   S    
C50   C52   A    
C31   C33   A    
C28   H40   S    
C21   H23   S    
C36   C63   S    
C75   C80   A    
Cu3   N3    S    
C54   H42   S    
C34   O5    A    
C40   C42   A    
Cu1   O1    S    
Cu1   Cu3   S    
C72   H20   S    
C1    C25   S    
C41   C43   A    
C33   H4    S    
C42   C44   A    
C95   H32   S    
C94   O9    D    
C42   C47   A    
C54   N1    A    
C35   O23   A    
Cu3   O5    S    
C33   C40   A    
C15   H7    S    
C3    H39   S    
C91   N6    T    
C30   C92   S    
Cu2   O4    S    
C96   H33   S    
C20   H12   S    
C18   C79   A    
C13   O12   A    
C4    C46   A    
C77   C84   A    
C49   C51   A    
Cu2   O19   S    
C31   C93   S    
Cu2   O3    S    
Cu3   O6    S    
C4    C61   A    
C98   H36   S    
C51   C53   A    
C59   C90   A    
C20   C64   A    
Cu1   O12   S    
C13   O21   A    
C9    C14   A    
C5    C9    A    
C50   C89   S    
C89   N5    T    
C38   C65   S    
C8    C12   A    
C37   C66   S    
C34   C64   S    
C94   H31   S    
C57   C84   A    
C67   C74   A    
C76   H16   S    
C41   C45   A    
C29   C49   A    
Cu2   Cu4   S    
C48   C50   A    
Cu2   N2    S    
C19   H1    S    
C80   C82   A    
C45   C54   A    
C1    O20   A    
C71   H15   S    
C24   O22   A    
C26   C70   A    
C61   C100  S    
C18   C66   A    
Cu1   O2    S    
C95   O10   D    
C76   C83   A    
C27   C71   A    
C29   C58   A    
C16   H8    S    
C55   N2    A    
C47   C55   A    
C3    C62   S    
C68   C90   A    
C28   C48   A    
C17   C68   A    
C9    C97   S    
C12   C87   A    
C21   C65   A    
C99   H37   S    
C93   N8    T    
Cu4   N4    S    
C84   C88   A    
C83   C87   A    
Cu4   O8    S    
C79   C82   A    
C70   C72   A    
Cu2   O18   S    
C36   O2    A    
C47   C49   A    
C7    C95   S    
C22   H34   S    
C17   C65   A    
C37   O7    A    
C35   O19   A    
C96   O11   D    
C1    O1    A    
C10   H25   S    
C14   C88   A    
Cu1   O24   S    
C82   C86   A    
C30   C32   A    
C31   N4    A    
C69   H13   S    
C78   C81   A    
C37   O3    A    
C30   N3    A    
C74   H22   S    
C52   H5    S    
C19   C61   A    
C73   H21   S    
Cu1   N1    S    
C25   C86   A    
C5    C62   A    
C69   C75   A    
C92   N7    T    
C16   C57   A    
C20   C62   A    
C27   C88   A    
C78   H18   S    
C77   H17   S    
C6    C10   A    
C38   O4    A    
C46   C83   A    
C98   O14   D    
C26   C35   S    
C6    C90   A    
C38   O8    A    
C73   C77   A    
C74   C78   A    
Cu3   O20   S    
C71   C73   A    
C59   C98   S    
C15   C63   A    
C100  H38   S    
C16   C64   A    
C15   C46   A    
Cu3   O21   S    
C56   N1    A    
C97   H35   S    
C81   C85   A    
C58   N2    A    
C29   H41   S    
C80   H19   S    
