data_str_m12_o9_o22_f0_bcu.sym.34
_audit_creation_date              2012-12-11T17:45:26-0500
_audit_creation_method            fapswitch 2.2
_symmetry_space_group_name_H-M    P1
_symmetry_Int_Tables_number       1
_space_group_crystal_system       triclinic
_cell_length_a                    14.948177
_cell_length_b                    14.933871
_cell_length_c                    15.157571
_cell_angle_alpha                 111.087333
_cell_angle_beta                  108.440977
_cell_angle_gamma                 108.428268
_cell_volume                      2617.93764827

loop_
_atom_site_label
_atom_site_type_symbol
_atom_type_description
_atom_site_fract_x
_atom_site_fract_y
_atom_site_fract_z
_atom_type_partial_charge
C1    C     C_R   0.917297 0.200450 0.003773 -0.125001
C2    C     C_R   0.686676 0.244661 0.776994 -0.142499
C3    C     C_R   0.790634 0.592309 0.096372 -0.112349
C4    C     C_R   0.302589 0.797409 0.213365 -0.060246
C5    C     C_R   0.001615 0.405930 0.700022 -0.164399
C6    C     C_R   0.699645 0.501627 0.067360 -0.000895
C7    C     C_R   0.052951 0.494742 0.693179 0.068193
C8    C     C_R   0.680142 0.219162 0.676754 0.080707
C9    C     C_R   0.944444 0.773245 0.951753 0.050405
C10   C     C_R   0.605191 0.258793 0.208879 -0.135581
C11   C     C_R   0.709354 0.345205 0.288103 -0.127453
C12   C     C_R   0.309427 0.849265 0.312250 0.091832
C13   C     C_R   0.795615 0.323591 0.317390 0.131470
C14   C     C_R   0.776341 0.214813 0.266211 -0.195545
C15   C     C_R   0.672874 0.129473 0.184794 -0.118196
C16   C     C_R   0.223402 0.407719 0.973074 -0.148869
C17   C     C_R   0.587256 0.151415 0.156397 -0.093263
C18   C     C_R   0.937120 0.407660 0.502275 -0.243118
C19   C     C_R   0.037996 0.488458 0.592878 0.064352
C20   C     C_R   0.110513 0.572333 0.589857 -0.006668
C21   C     C_R   0.076875 0.577528 0.496947 -0.183527
C22   C     C_R   0.974143 0.499027 0.407467 0.110520
C23   C     C_R   0.324606 0.500003 0.047535 0.017315
C24   C     C_R   0.903818 0.411820 0.409116 0.010650
C25   C     C_R   0.263072 0.764891 0.722492 -0.156892
C26   C     C_R   0.369236 0.838512 0.806227 -0.114623
C27   C     C_R   0.436024 0.799158 0.846220 -0.089986
C28   C     C_R   0.002147 0.590509 0.302710 0.428396
C29   C     C_R   0.396492 0.686140 0.802747 -0.115039
C30   C     C_R   0.290129 0.612426 0.720294 -0.135921
C31   C     C_R   0.222587 0.651167 0.679341 0.112626
C32   C     C_R   0.131248 0.021445 0.307307 -0.107875
C33   C     C_R   0.229973 0.022302 0.333513 -0.150066
C34   C     C_R   0.954992 0.498649 0.308795 -0.039404
C35   C     C_R   0.293514 0.042088 0.436355 0.139004
C36   C     C_R   0.257798 0.063258 0.513192 -0.156007
C37   C     C_R   0.159157 0.062853 0.486776 -0.071898
C38   C     C_R   0.095871 0.041739 0.383869 -0.065460
C39   C     C_R   0.490214 0.129912 0.551943 -0.240862
C40   C     C_R   0.312915 0.591770 0.063481 -0.098847
C41   C     C_R   0.588072 0.129815 0.576576 0.018020
C42   C     C_R   0.594501 0.037897 0.513429 -0.134165
C43   C     C_R   0.500474 0.944007 0.430001 0.426181
C44   C     C_R   0.402732 0.946026 0.403351 -0.087164
C45   C     C_R   0.700708 0.409708 0.004070 -0.143120
C46   C     C_R   0.396343 0.038814 0.463277 -0.013696
C47   C     C_R   0.747035 0.051448 0.474249 -0.149232
C48   C     C_R   0.843029 0.047155 0.494143 -0.122836
C49   C     C_R   0.887169 0.022505 0.572344 -0.084234
C50   C     C_R   0.835399 0.002409 0.630865 -0.132342
C51   C     C_R   0.740993 0.009150 0.613333 -0.056346
C52   C     C_R   0.920174 0.407372 0.213073 -0.206047
C53   C     C_R   0.696709 0.034367 0.535323 0.201241
C54   C     C_3   0.531987 0.486349 0.960654 -0.393382
C55   C     C_3   0.429135 0.487182 0.955523 -0.405848
C56   C     C_R   0.087382 0.588546 0.787287 -0.126115
C57   C     C_3   0.539062 0.407099 0.083215 -0.403892
C58   C     C_3   0.630474 0.610549 0.165181 -0.417442
C59   C     C_3   0.602877 0.501665 0.070275 0.389658
C60   C     C_3   0.426395 0.500773 0.060752 0.362448
C61   C     C_3   0.432821 0.404959 0.074623 -0.418723
C62   C     C_3   0.526322 0.609951 0.160105 -0.345568
C63   C     C_R   0.165744 0.014251 0.756960 -0.107758
C64   C     C_R   0.214712 0.792710 0.308410 -0.086294
C65   C     C_R   0.067860 0.978135 0.758076 -0.184455
C66   C     C_R   0.065974 0.017035 0.856519 0.102349
C67   C     C_R   0.782228 0.257589 0.689562 -0.123235
C68   C     C_R   0.163899 0.088739 0.953866 -0.123774
C69   C     C_R   0.261751 0.120939 0.952592 -0.148331
C70   C     C_R   0.262743 0.085306 0.854258 -0.116548
C71   C     C_R   0.936003 0.858973 0.841743 -0.200958
C72   C     C_R   0.897026 0.829306 0.905347 0.054552
C73   C     C_R   0.840104 0.879708 0.942944 0.023082
C74   C     C_R   0.840386 0.966446 0.928518 -0.221232
C75   C     C_R   0.918297 0.021447 0.907373 0.045337
C76   C     C_R   0.005406 0.198874 0.909219 -0.138294
C77   C     C_R   0.966273 0.964777 0.860473 -0.003301
C78   C     C_R   0.930867 0.747060 0.027287 -0.135160
C79   C     C_R   0.695667 0.779121 0.974402 -0.167821
C80   C     C_R   0.647845 0.780526 0.040471 -0.162525
C81   C     C_R   0.701858 0.866353 0.147509 -0.106657
C82   C     C_R   0.804004 0.951779 0.189121 -0.111141
C83   C     C_R   0.851733 0.951896 0.123585 -0.173104
C84   C     C_R   0.798109 0.865391 0.015679 0.116631
C85   C     C_R   0.951646 0.137737 0.943865 0.050153
C86   C     C_R   0.023746 0.748771 0.936868 -0.127915
Cl1   Cl    Cl    0.505654 0.820749 0.366150 -0.736380
Cl2   Cl    Cl    0.017389 0.719632 0.381299 -0.756699
H1    H     H_    0.862826 0.175327 0.033358 0.089885
H2    H     H_    0.537717 0.274356 0.188936 0.105995
H3    H     H_    0.722178 0.428004 0.328859 0.116575
H4    H     H_    0.357949 0.828255 0.186475 0.101606
H5    H     H_    0.841749 0.196560 0.289181 0.112472
H6    H     H_    0.658677 0.046162 0.144631 0.123523
H7    H     H_    0.880287 0.343844 0.505306 0.132840
H8    H     H_    0.134227 0.639479 0.492513 0.155845
H9    H     H_    0.212143 0.796414 0.692148 0.135923
H10   H     H_    0.399809 0.926012 0.839818 0.107359
H11   H     H_    0.518428 0.856176 0.910440 0.113693
H12   H     H_    0.136656 0.672663 0.811689 0.105665
H13   H     H_    0.448071 0.655007 0.831894 0.100887
H14   H     H_    0.260855 0.525110 0.687296 0.108110
H15   H     H_    0.019664 0.041375 0.363788 0.093675
H16   H     H_    0.204051 0.322628 0.936177 0.108582
H17   H     H_    0.082467 0.004862 0.227531 0.110821
H18   H     H_    0.256459 0.006627 0.273460 0.111848
H19   H     H_    0.305495 0.078369 0.592804 0.105916
H20   H     H_    0.131576 0.078452 0.545917 0.097205
H21   H     H_    0.487455 0.201253 0.601972 0.135296
H22   H     H_    0.712818 0.069768 0.412820 0.114131
H23   H     H_    0.804668 0.250676 0.627543 0.105625
H24   H     H_    0.883265 0.062834 0.449126 0.098373
H25   H     H_    0.961128 0.018567 0.587054 0.110420
H26   H     H_    0.867870 0.981369 0.689762 0.118358
H27   H     H_    0.702061 0.994111 0.659726 0.113396
H28   H     H_    0.510116 0.406750 0.892660 0.154773
H29   H     H_    0.576780 0.551997 0.948566 0.158886
H30   H     H_    0.423481 0.554309 0.942635 0.147734
H31   H     H_    0.358605 0.408823 0.883883 0.159637
H32   H     H_    0.519394 0.325762 0.020430 0.147660
H33   H     H_    0.364882 0.326102 0.003092 0.166567
H34   H     H_    0.877068 0.753898 0.058963 0.122690
H35   H     H_    0.681434 0.621450 0.243973 0.184098
H36   H     H_    0.676627 0.681977 0.161259 0.171560
H37   H     H_    0.527509 0.682464 0.155005 0.165050
H38   H     H_    0.374321 0.676417 0.108532 0.121003
H39   H     H_    0.525162 0.619660 0.235975 0.211163
H40   H     H_    0.589093 0.421033 0.163587 0.162527
H41   H     H_    0.427142 0.410168 0.147589 0.163225
H42   H     H_    0.338715 0.111239 0.853583 0.096975
H43   H     H_    0.166589 0.984498 0.680854 0.133397
H44   H     H_    0.994062 0.917262 0.682624 0.131872
H45   H     H_    0.057890 0.760845 0.886746 0.099361
H46   H     H_    0.164587 0.115221 0.030781 0.112328
H47   H     H_    0.336972 0.172817 0.028065 0.110083
H48   H     H_    0.967878 0.813902 0.800046 0.128732
H49   H     H_    0.793044 0.001251 0.952930 0.125545
H50   H     H_    0.878421 0.321883 0.187978 0.136685
H51   H     H_    0.651304 0.713959 0.890493 0.115516
H52   H     H_    0.567834 0.716660 0.008697 0.112899
H53   H     H_    0.663851 0.867513 0.197692 0.128430
H54   H     H_    0.844445 0.019956 0.270819 0.093166
H55   H     H_    0.928249 0.022131 0.155152 0.107808
H56   H     H_    0.621022 0.222093 0.794572 0.098699
H57   H     H_    0.191548 0.818431 0.369568 0.174369
H58   H     H_    0.026676 0.169955 0.846862 0.109276
H59   H     H_    0.645888 0.324916 0.972849 0.090255
H60   H     H_    0.820151 0.677291 0.153240 0.131010
H61   H     H_    0.973966 0.320694 0.645071 0.099939
H62   H     H_    0.506777 0.085064 0.094584 0.100762
N1    N     N_R   0.947080 0.293830 0.002870 -0.037978
N2    N     N_R   0.153670 0.443180 0.946090 -0.038829
N3    N     N_R   0.002360 0.556820 0.208890 -0.075880
N4    N     N_R   0.210070 0.556820 0.002870 -0.045233
N5    N     N_R   0.945960 0.443180 0.152110 -0.058838
N6    N     N_R   0.151710 0.706170 0.208890 -0.046718
N7    N     N_R   0.004320 0.293830 0.946090 -0.038916
N8    N     N_R   0.789930 0.443180 0.997130 -0.036349
N9    N     N_R   0.054040 0.556820 0.847890 -0.042694
N10   N     N_R   0.848290 0.293830 0.791110 -0.044029
N11   N     N_R   0.995680 0.706170 0.053910 -0.040826
N12   N     N_R   0.052920 0.706170 0.997130 -0.049771
N13   N     N_R   0.791050 0.293830 0.847890 -0.043202
N14   N     N_R   0.846330 0.556820 0.053910 -0.040294
N15   N     N_R   0.997640 0.443180 0.791110 -0.037419
N16   N     N_R   0.208950 0.706170 0.152110 -0.050681
Ni1   Ni    Ni4+2 0.869690 0.369690 0.000000 0.211626
Ni2   Ni    Ni4+2 0.130310 0.630310 0.000000 0.208690
Ni3   Ni    Ni4+2 0.000970 0.369690 0.869780 0.213673
Ni4   Ni    Ni4+2 0.999030 0.630310 0.130220 0.263068

loop_
_geom_bond_atom_site_label_1
_geom_bond_atom_site_label_2
_ccdc_geom_bond_type
C25   C31   A    
C66   C68   A    
C63   C65   A    
C58   C62   S    
C6    C45   A    
C64   H57   S    
C27   C29   A    
C2    H56   S    
C41   C42   A    
C49   H25   S    
C17   H62   S    
C9    C72   S    
C82   H54   S    
C3    C6    A    
N4    Ni2   S    
C15   H6    S    
N11   N12   A    
C39   C41   A    
C55   H31   S    
C8    C67   A    
C52   N5    A    
C9    C78   A    
C27   H11   S    
C58   H35   S    
C37   C38   A    
C83   C84   A    
C18   C24   A    
N1    N7    A    
C61   H33   S    
C36   C37   A    
C56   N9    A    
C32   C38   A    
C42   C53   S    
C79   C84   A    
C12   C64   A    
C57   C59   S    
C10   C17   A    
C23   C40   A    
C70   H42   S    
C5    H61   S    
N9    Ni2   S    
C60   C62   S    
C18   C19   A    
C73   C74   A    
C13   C14   A    
N7    Ni3   S    
N14   Ni4   S    
C16   H16   S    
C35   C36   A    
N5    Ni1   S    
C68   C69   A    
C54   H28   S    
N3    Ni4   S    
C28   Cl2   S    
C52   H50   S    
N10   Ni3   S    
C67   N10   A    
C86   N12   A    
C63   H43   S    
C4    C12   A    
C29   C30   A    
C14   H5    S    
N8    N14   A    
C47   C53   A    
C81   H53   S    
C76   H58   S    
C3    H60   S    
C69   H47   S    
C55   C60   S    
C36   H19   S    
N16   Ni2   S    
C18   H7    S    
C40   N4    A    
C7    C56   A    
C57   H40   S    
C44   C46   A    
N8    Ni1   S    
C81   C82   A    
C54   C59   S    
N15   Ni3   S    
C23   C60   S    
C22   C34   S    
C74   H49   S    
C76   N7    A    
C74   C75   A    
C33   H18   S    
N10   N13   A    
C8    C41   S    
C37   H20   S    
C79   H51   S    
C71   H48   S    
C5    C7    A    
C72   C73   A    
C25   C26   A    
C80   H52   S    
C82   C83   A    
C51   H27   S    
N9    N15   A    
C13   C24   S    
C60   C61   S    
C50   H26   S    
N13   Ni1   S    
C43   C44   A    
C38   H15   S    
C9    C86   A    
C86   H45   S    
C47   C48   A    
C63   C70   A    
N6    N16   A    
C30   C31   A    
C40   H38   S    
C30   H14   S    
C50   C51   A    
C26   C27   A    
C29   H13   S    
C16   N2    A    
C75   C77   A    
C3    N14   A    
C26   H10   S    
C57   H32   S    
N12   Ni2   S    
N11   Ni4   S    
C25   H9    S    
C48   C49   A    
C48   H24   S    
N2    N4    A    
C65   C66   A    
C16   C23   A    
C7    C19   S    
C32   H17   S    
C39   C46   A    
C28   N3    A    
C22   C24   A    
C1    C85   A    
N3    N5    A    
C42   C43   A    
C56   H12   S    
C71   C77   A    
C65   H44   S    
C75   C85   S    
C67   H23   S    
C15   C17   A    
C66   C77   S    
C54   C55   S    
C1    H1    S    
C73   C84   S    
C45   H59   S    
C34   C52   A    
C6    C59   S    
C2    C8    A    
C45   N8    A    
C80   C81   A    
C2    N13   A    
C62   H37   S    
C57   C61   S    
C21   H8    S    
C61   H41   S    
C47   H22   S    
C64   N6    A    
C58   H36   S    
C43   Cl1   S    
C32   C33   A    
C19   C20   A    
C68   H46   S    
C58   C59   S    
C71   C72   A    
C12   C44   S    
C83   H55   S    
N2    Ni3   S    
C11   C13   A    
C62   H39   S    
N1    Ni1   S    
N6    Ni4   S    
C33   C35   A    
C4    N16   A    
C1    N1    A    
C5    N15   A    
C69   C70   A    
C78   H34   S    
C10   C11   A    
C28   C34   A    
C79   C80   A    
C11   H3    S    
C39   H21   S    
C20   C21   A    
C10   H2    S    
C78   N11   A    
C49   C50   A    
C54   H29   S    
C14   C15   A    
C51   C53   A    
C21   C22   A    
C35   C46   S    
C76   C85   A    
C55   H30   S    
C4    H4    S    
C20   C31   S    
