data_str_m9_o16_o24_f0_sra.sym.44
_audit_creation_date              2012-12-11T15:13:45-0500
_audit_creation_method            fapswitch 2.2
_symmetry_space_group_name_H-M    P1
_symmetry_Int_Tables_number       1
_space_group_crystal_system       triclinic
_cell_length_a                    6.950406
_cell_length_b                    13.466648
_cell_length_c                    20.134711
_cell_angle_alpha                 104.123384
_cell_angle_beta                  89.692294
_cell_angle_gamma                 90.689299
_cell_volume                      1827.47798079

loop_
_atom_site_label
_atom_site_type_symbol
_atom_type_description
_atom_site_fract_x
_atom_site_fract_y
_atom_site_fract_z
_atom_type_partial_charge
O1    O     O_R   0.506780 0.600060 0.449950 -0.538956
O2    O     O_R   0.179840 0.597110 0.589410 -0.539848
O3    O     O_R   0.004570 0.399940 0.550050 -0.537602
C1    C     C_R   0.347949 0.619592 0.616683 0.684647
O4    O     O_R   0.177380 0.612160 0.452890 -0.540568
O5    O     O_R   0.002100 0.415100 0.412560 -0.541147
C2    C     C_R   0.347112 0.639040 0.436372 0.695238
O6    O     O_R   0.509250 0.584900 0.587440 -0.539834
O7    O     O_3   0.337570 0.435330 0.486930 -0.369754
V1    V     V_3+5 0.064650 0.512000 0.502430 1.413047
O8    O     O_R   0.672090 0.402890 0.410590 -0.543015
C3    C     C_R   0.840778 0.381137 0.383050 0.676261
O9    O     O_R   0.674540 0.387840 0.547110 -0.541133
C4    C     C_R   0.842284 0.361004 0.563687 0.696917
V2    V     V_3+5 0.564040 0.488000 0.497570 1.412123
O10   O     O_3   0.840990 0.564670 0.513070 -0.368735
C5    C     C_R   0.822113 0.106369 0.608205 -0.161434
H1    H     H_    0.814165 0.156030 0.514811 0.100510
H2    H     H_    0.814061 0.980394 0.690680 0.121063
H3    H     H_    0.807154 0.026349 0.581606 0.111079
C6    C     C_R   0.846757 0.283236 0.603065 -0.031761
C7    C     C_R   0.883069 0.319542 0.932459 -0.162970
C8    C     C_R   0.888092 0.396379 0.897351 -0.122352
C9    C     C_R   0.877763 0.372071 0.826103 -0.164268
C10   C     C_R   0.861629 0.268937 0.787786 0.079155
C11   C     C_R   0.854392 0.190496 0.824279 0.067984
C12   C     C_R   0.852792 0.241022 0.714635 0.072213
C13   C     C_R   0.834501 0.135811 0.679938 0.144498
C14   C     C_R   0.827673 0.060621 0.716897 -0.214909
C15   C     C_R   0.837989 0.087257 0.787840 -0.203183
C16   C     C_R   0.860502 0.313756 0.674441 -0.218866
C17   C     C_R   0.826717 0.179787 0.570060 -0.175369
C18   C     C_R   0.865713 0.216998 0.896735 -0.076475
H4    H     H_    0.874235 0.394807 0.696745 0.092637
H5    H     H_    0.893431 0.340047 0.987834 0.102084
H6    H     H_    0.883017 0.436007 0.802811 0.103136
H7    H     H_    0.901254 0.475631 0.925586 0.119789
H8    H     H_    0.832439 0.025824 0.813910 0.122118
C19   C     C_3   0.676966 0.220771 0.228958 -0.116743
C20   C     C_3   0.774359 0.199808 0.293158 -0.140863
H9    H     H_    0.706909 0.159077 0.329209 0.096209
H10   H     H_    0.528644 0.196573 0.211419 0.107281
C21   C     C_3   0.849942 0.311008 0.312373 -0.006266
C22   C     C_3   0.752636 0.332786 0.248964 -0.138234
C23   C     C_3   0.938636 0.299803 0.206924 -0.145172
C24   C     C_3   0.035989 0.278808 0.271123 -0.118473
C25   C     C_3   0.960327 0.166796 0.251098 -0.137777
C26   C     C_3   0.863005 0.188622 0.187702 -0.006091
H11   H     H_    0.666748 0.401607 0.248511 0.101504
H12   H     H_    0.006417 0.340657 0.170980 0.100208
H13   H     H_    0.184353 0.302849 0.288681 0.108979
H14   H     H_    0.046246 0.097959 0.251510 0.110558
C27   C     C_3   0.486021 0.784503 0.710598 -0.175188
C28   C     C_3   0.313686 0.847172 0.747492 -0.148148
H15   H     H_    0.277105 0.926526 0.745707 0.116497
H16   H     H_    0.590075 0.812333 0.677109 0.115870
C29   C     C_3   0.358710 0.811336 0.812666 -0.035387
C30   C     C_3   0.531942 0.749756 0.776793 -0.115407
C31   C     C_3   0.398323 0.654925 0.752698 -0.182766
C32   C     C_3   0.225256 0.717361 0.789562 -0.143487
C33   C     C_3   0.182410 0.752288 0.723742 0.219175
C34   C     C_3   0.353120 0.690205 0.687179 -0.014320
H17   H     H_    0.675831 0.748244 0.800119 0.118574
H18   H     H_    0.434409 0.575549 0.754513 0.111200
H19   H     H_    0.116642 0.690245 0.821948 0.101030
C35   C     C_R   0.412303 0.891599 0.391193 -0.163088
H20   H     H_    0.409621 0.842125 0.484731 0.101629
H21   H     H_    0.441102 0.016670 0.308392 0.116152
H22   H     H_    0.439526 0.970791 0.417582 0.111415
C36   C     C_R   0.359595 0.716426 0.396777 -0.031898
C37   C     C_R   0.317845 0.681585 0.067463 -0.170412
C38   C     C_R   0.297727 0.604543 0.102511 0.223075
C39   C     C_R   0.312441 0.628985 0.173967 -0.177925
C40   C     C_R   0.347163 0.730965 0.211997 0.038469
C41   C     C_R   0.368021 0.808707 0.175391 0.066301
C42   C     C_R   0.361173 0.758455 0.285090 0.084795
C43   C     C_R   0.396084 0.862600 0.319542 0.146832
C44   C     C_R   0.415235 0.937173 0.282421 -0.217086
C45   C     C_R   0.401550 0.910890 0.211576 -0.189514
C46   C     C_R   0.342393 0.686357 0.325492 -0.218373
C47   C     C_R   0.395026 0.818777 0.429536 -0.177218
C48   C     C_R   0.353192 0.782839 0.103093 -0.117870
H23   H     H_    0.316361 0.606068 0.303504 0.090848
H24   H     H_    0.305162 0.662947 0.012127 0.100324
H25   H     H_    0.295248 0.566256 0.198033 0.112852
H26   H     H_    0.417588 0.971832 0.185385 0.116910
O11   O     O_R   0.203580 0.914920 0.912610 -0.540121
O12   O     O_R   0.535710 0.887810 0.047120 -0.539890
O13   O     O_R   0.710730 0.084950 0.087430 -0.542153
C49   C     C_R   0.366013 0.860976 0.063729 0.698779
O14   O     O_R   0.533010 0.902850 0.910600 -0.545728
O15   O     O_R   0.708010 0.100090 0.949930 -0.537702
C50   C     C_R   0.364807 0.880998 0.883217 0.686710
O16   O     O_R   0.206300 0.899780 0.050100 -0.538403
O17   O     O_3   0.375170 0.064580 0.013100 -0.369612
V3    V     V_3+5 0.648200 0.988020 0.997570 1.413218
O18   O     O_R   0.038030 0.112330 0.952840 -0.539556
C51   C     C_R   0.870277 0.138790 0.936070 0.689062
O19   O     O_R   0.040730 0.097300 0.089360 -0.542830
C52   C     C_R   0.872080 0.118753 0.116976 0.679471
V4    V     V_3+5 0.148780 0.012220 0.002360 1.416311
O20   O     O_3   0.871930 0.935430 0.986900 -0.370428
C53   C     C_3   0.982946 0.758910 0.695095 -0.798662
H27   H     H_    0.901656 0.818575 0.731806 0.194124
H28   H     H_    0.993870 0.780799 0.645515 0.205085
H29   H     H_    0.907113 0.683998 0.687547 0.217644
C54   C     C_3   0.259062 0.495629 0.064236 -0.806529
H30   H     H_    0.250338 0.487801 0.008109 0.211420
H31   H     H_    0.376447 0.445983 0.074204 0.208607
H32   H     H_    0.120469 0.468780 0.081758 0.199882

loop_
_geom_bond_atom_site_label_1
_geom_bond_atom_site_label_2
_ccdc_geom_bond_type
C22   H11   S    
C20   C25   S    
O12   V3    S    
V4    O20   S    
V3    O20   S    
C39   C40   A    
O17   V3    S    
C1    O6    A    
C2    C36   S    
O18   C51   A    
O15   C51   A    
C27   C28   S    
C7    H5    S    
C6    C16   A    
C31   H18   S    
C9    H6    S    
C40   C42   A    
C4    C6    S    
C13   C14   A    
C33   C53   S    
C3    C21   S    
O5    C3    A    
C27   H16   S    
C35   H22   S    
V2    O10   S    
C1    C34   S    
O15   V3    S    
C5    H3    S    
C15   H8    S    
C18   C51   S    
C24   C25   S    
C35   C43   A    
C36   C47   A    
O14   V3    S    
O11   V4    S    
O8    V2    S    
C20   C21   S    
C25   C26   S    
O16   V4    S    
C8    C9    A    
O1    V2    S    
O7    V1    S    
C43   C44   A    
C37   C48   A    
C31   C32   S    
C29   C50   S    
O9    C4    A    
C54   H31   S    
C46   H23   S    
C49   O16   A    
C19   H10   S    
H21   C44   S    
C26   C52   S    
C6    C17   A    
C40   C41   A    
O13   C52   A    
C12   C16   A    
C9    C10   A    
C19   C20   S    
O4    C2    A    
C44   C45   A    
C29   C32   S    
C10   C11   A    
C23   C24   S    
C36   C46   A    
C24   H13   S    
C32   C33   S    
O2    C1    A    
C21   C22   S    
C14   C15   A    
O14   C50   A    
C27   C34   S    
C11   C18   A    
O19   C52   A    
C38   C54   S    
C54   H30   S    
C16   H4    S    
C53   H28   S    
C42   C43   A    
C39   H25   S    
C25   H14   S    
O3    C4    A    
C20   H9    S    
O19   V4    S    
O12   C49   A    
C32   H19   S    
C11   C15   A    
O6    V2    S    
O9    V2    S    
C54   H32   S    
H1    C17   S    
O2    V1    S    
C53   H27   S    
C22   C23   S    
C37   H24   S    
C23   C26   S    
C30   H17   S    
C7    C18   A    
C28   H15   S    
C31   C34   S    
O1    C2    A    
C5    C13   A    
C42   C46   A    
C38   C39   A    
O5    V1    S    
C27   C30   S    
C41   C48   A    
H20   C47   S    
C19   C22   S    
C28   C33   S    
C10   C12   A    
C48   C49   S    
O13   V3    S    
C30   C31   S    
O4    V1    S    
O3    V1    S    
C8    H7    S    
C35   C47   A    
C29   C30   S    
C23   H12   S    
O11   C50   A    
C53   H29   S    
O7    V2    S    
C33   C34   S    
C21   C24   S    
C37   C38   A    
C12   C13   A    
C5    C17   A    
C7    C8    A    
V1    O10   S    
C41   C45   A    
C45   H26   S    
O18   V4    S    
O17   V4    S    
O8    C3    A    
C19   C26   S    
C28   C29   S    
H2    C14   S    
