data_str_m2_o40_o40_f0_fof.sym.77
_audit_creation_date              2012-10-26T17:12:32-0400
_audit_creation_method            fapswitch 2.2
_symmetry_space_group_name_H-M    P1
_symmetry_Int_Tables_number       1
_space_group_crystal_system       triclinic
_cell_length_a                    16.875256
_cell_length_b                    16.797349
_cell_length_c                    16.708118
_cell_angle_alpha                 68.38149
_cell_angle_beta                  67.745621
_cell_angle_gamma                 67.709486
_cell_volume                      3913.53502312

loop_
_atom_site_label
_atom_site_type_symbol
_atom_type_description
_atom_site_fract_x
_atom_site_fract_y
_atom_site_fract_z
_atom_type_partial_charge
C1    C     C_R   0.023910 0.829138 0.566015 0.792932
C2    C     C_R   0.984843 0.168879 0.430960 0.862945
C3    C     C_R   0.830684 0.568994 0.016907 0.823336
C4    C     C_R   0.169004 0.430936 0.983781 0.842831
C5    C     C_R   0.563677 0.029869 0.828395 0.826926
C6    C     C_R   0.436544 0.968804 0.172176 0.804072
C7    C     C_R   0.435507 0.171452 0.971184 0.802878
C8    C     C_R   0.564237 0.828410 0.029556 0.796321
C9    C     C_R   0.973979 0.434870 0.171817 0.795580
C10   C     C_R   0.025354 0.565387 0.828708 0.840736
C11   C     C_R   0.172371 0.969422 0.435889 0.805532
C12   C     C_R   0.830486 0.017141 0.569183 0.820802
C13   C     C_R   0.457998 0.061813 0.701749 -0.229568
C14   C     C_R   0.549071 0.930894 0.293749 -0.246924
C15   C     C_R   0.077439 0.705829 0.450768 -0.253631
C16   C     C_R   0.064404 0.256003 0.496503 -0.245635
C17   C     C_R   0.734605 0.501285 0.949200 -0.240664
C18   C     C_R   0.265172 0.501216 0.048756 -0.240316
C19   C     C_R   0.291947 0.934538 0.549322 -0.244733
C20   C     C_R   0.740777 0.929246 0.515513 -0.233524
C21   C     C_R   0.538950 0.307491 0.914109 -0.234405
C22   C     C_R   0.460269 0.693431 0.085099 -0.232047
C23   C     C_R   0.958161 0.537018 0.296128 -0.239222
C24   C     C_R   0.099115 0.453383 0.696598 -0.251354
C25   C     C_R   0.554569 0.981293 0.560323 -0.092564
C26   C     C_R   0.463594 0.953061 0.466081 -0.090786
C27   C     C_R   0.060960 0.533937 0.531821 -0.094354
C28   C     C_R   0.036673 0.439873 0.437767 -0.087615
C29   C     C_R   0.548289 0.551082 0.004049 -0.088362
C30   C     C_R   0.451482 0.450735 0.993829 -0.088773
C31   C     C_R   0.603742 0.945035 0.485806 0.064784
C32   C     C_R   0.418790 0.967911 0.552119 0.068852
C33   C     C_R   0.078473 0.440267 0.564850 0.060189
C34   C     C_R   0.024695 0.533230 0.404423 0.067479
C35   C     C_R   0.454104 0.573241 0.039975 0.059510
C36   C     C_R   0.545625 0.428727 0.957467 0.059230
C37   C     C_R   0.556534 0.944365 0.430779 0.064094
C38   C     C_R   0.460810 0.996735 0.591692 0.068235
C39   C     C_R   0.405018 0.526515 0.029268 0.061057
C40   C     C_R   0.594855 0.475808 0.967735 0.061802
C41   C     C_R   0.065591 0.391814 0.517364 0.058144
C42   C     C_R   0.049920 0.576493 0.445282 0.070016
C43   C     C_R   0.412633 0.045542 0.657111 0.194668
C44   C     C_R   0.597093 0.938808 0.341162 0.183265
C45   C     C_R   0.072073 0.657987 0.400989 0.193817
C46   C     C_R   0.072213 0.299247 0.548900 0.188523
C47   C     C_R   0.689211 0.447312 0.949092 0.191274
C48   C     C_R   0.310808 0.555654 0.047174 0.196499
C49   C     C_R   0.336985 0.946568 0.597157 0.186850
C50   C     C_R   0.697011 0.907294 0.473438 0.196357
C51   C     C_R   0.584843 0.365822 0.904971 0.197484
C52   C     C_R   0.414456 0.635863 0.092755 0.202354
C53   C     C_R   0.976762 0.581804 0.339458 0.183393
C54   C     C_R   0.114749 0.401611 0.639584 0.206903
C55   C     C_R   0.551447 0.034524 0.680094 0.000706
C56   C     C_R   0.456238 0.942172 0.326140 0.011276
C57   C     C_R   0.055842 0.676456 0.545102 0.010276
C58   C     C_R   0.024906 0.303122 0.425790 -0.011342
C59   C     C_R   0.690505 0.572134 0.989666 -0.003915
C60   C     C_R   0.309042 0.429233 0.009928 -0.012349
C61   C     C_R   0.324354 0.946289 0.455726 0.009057
C62   C     C_R   0.693250 0.983490 0.575205 0.008371
C63   C     C_R   0.447941 0.322601 0.957686 0.019702
C64   C     C_R   0.551325 0.677921 0.042622 0.017401
C65   C     C_R   0.982694 0.443732 0.317458 0.016576
C66   C     C_R   0.062579 0.546254 0.672621 -0.011094
C67   C     C_R   0.598495 0.042886 0.729825 -0.111729
C68   C     C_R   0.404558 0.945964 0.273018 -0.160321
C69   C     C_R   0.035027 0.731952 0.601653 -0.149507
C70   C     C_R   0.990235 0.262161 0.389748 -0.115030
C71   C     C_R   0.735671 0.610058 0.017442 -0.135241
C72   C     C_R   0.263431 0.389832 0.984627 -0.112616
C73   C     C_R   0.272824 0.947931 0.403515 -0.153686
C74   C     C_R   0.735743 0.016720 0.610685 -0.156178
C75   C     C_R   0.398739 0.269432 0.959453 -0.160255
C76   C     C_R   0.599972 0.729791 0.043759 -0.166944
C77   C     C_R   0.968905 0.397807 0.269272 -0.158966
C78   C     C_R   0.036959 0.601488 0.730658 -0.111848
C79   C     C_R   0.685944 0.048528 0.687905 0.072221
C80   C     C_R   0.317628 0.935026 0.316574 0.101713
C81   C     C_R   0.015081 0.694652 0.695407 0.066367
C82   C     C_R   0.960624 0.310988 0.312574 0.073568
C83   C     C_R   0.687451 0.686763 0.049968 0.106722
C84   C     C_R   0.309860 0.310439 0.957557 0.081091
C85   C     C_R   0.599640 0.000720 0.604573 0.068495
C86   C     C_R   0.414609 0.947363 0.415658 0.071119
C87   C     C_R   0.058397 0.585916 0.583693 0.071401
C88   C     C_R   0.014946 0.395481 0.393619 0.072669
C89   C     C_R   0.596784 0.600519 0.011540 0.068042
C90   C     C_R   0.402774 0.400661 0.987741 0.070821
Cu1   Cu    Cu3+1 0.995180 0.995180 0.424630 0.949935
Cu2   Cu    Cu3+1 0.004820 0.004820 0.575370 0.895706
Cu3   Cu    Cu3+1 0.995180 0.424630 0.995180 0.921925
Cu4   Cu    Cu3+1 0.004820 0.575370 0.004820 0.940027
Cu5   Cu    Cu3+1 0.424630 0.995180 0.995180 0.943254
Cu6   Cu    Cu3+1 0.575370 0.004820 0.004820 0.948547
H1    H     H_    0.419246 0.100977 0.749869 0.152277
H2    H     H_    0.588554 0.912858 0.232060 0.172507
H3    H     H_    0.101339 0.763841 0.413389 0.168347
H4    H     H_    0.086263 0.184379 0.516808 0.184641
H5    H     H_    0.805712 0.482541 0.920490 0.181206
H6    H     H_    0.194131 0.520209 0.077843 0.181960
H7    H     H_    0.234666 0.909773 0.588609 0.173027
H8    H     H_    0.811648 0.898243 0.505159 0.168095
H9    H     H_    0.571898 0.258205 0.875869 0.158505
H10   H     H_    0.427041 0.742377 0.123758 0.141815
H11   H     H_    0.917156 0.576877 0.250956 0.165922
H12   H     H_    0.124714 0.421251 0.754510 0.170924
O1    O     O_R   0.124540 0.978640 0.385460 -0.562892
O2    O     O_R   0.875460 0.021360 0.614540 -0.597429
O3    O     O_R   0.978640 0.385460 0.124540 -0.591609
O4    O     O_R   0.021360 0.614540 0.875460 -0.554005
O5    O     O_R   0.385460 0.124540 0.978640 -0.595387
O6    O     O_R   0.614540 0.875460 0.021360 -0.569049
O7    O     O_R   0.614540 0.021360 0.875460 -0.556086
O8    O     O_R   0.385460 0.978640 0.124540 -0.555761
O9    O     O_R   0.875460 0.614540 0.021360 -0.549563
O10   O     O_R   0.124540 0.385460 0.978640 -0.557409
O11   O     O_R   0.021360 0.875460 0.614540 -0.601601
O12   O     O_R   0.978640 0.124540 0.385460 -0.546747
O13   O     O_R   0.013780 0.867370 0.487190 -0.605907
O14   O     O_R   0.986220 0.132630 0.512810 -0.608842
O15   O     O_R   0.867370 0.487190 0.013780 -0.608008
O16   O     O_R   0.132630 0.512810 0.986220 -0.611586
O17   O     O_R   0.487190 0.013780 0.867370 -0.595661
O18   O     O_R   0.512810 0.986220 0.132630 -0.600027
O19   O     O_R   0.512810 0.132630 0.986220 -0.576721
O20   O     O_R   0.487190 0.867370 0.013780 -0.581773
O21   O     O_R   0.986220 0.512810 0.132630 -0.599246
O22   O     O_R   0.013780 0.487190 0.867370 -0.605091
O23   O     O_R   0.132630 0.986220 0.512810 -0.608519
O24   O     O_R   0.867370 0.013780 0.487190 -0.577964
N1    N     N_3   0.318965 0.088407 0.670755 -0.587881
H13   H     H_    0.310086 0.157216 0.649658 0.220926
H14   H     H_    0.287478 0.072125 0.739541 0.220405
N2    N     N_3   0.683607 0.952186 0.292954 -0.578110
H15   H     H_    0.676293 0.010540 0.240912 0.218957
H16   H     H_    0.722795 0.899206 0.263845 0.216524
N3    N     N_3   0.100326 0.686650 0.305083 -0.583982
H17   H     H_    0.167220 0.685166 0.286264 0.206217
H18   H     H_    0.064364 0.753180 0.284859 0.221110
N4    N     N_3   0.073938 0.249491 0.638910 -0.578137
H19   H     H_    0.127776 0.191956 0.636836 0.232874
H20   H     H_    0.015494 0.229372 0.671544 0.211546
N5    N     N_3   0.739234 0.357365 0.945778 -0.577402
H21   H     H_    0.764134 0.326132 0.001703 0.215228
H22   H     H_    0.793987 0.358938 0.888767 0.223467
N6    N     N_3   0.261437 0.646368 0.047841 -0.576815
H23   H     H_    0.205973 0.646453 0.104215 0.232147
H24   H     H_    0.237534 0.676255 0.991265 0.212758
N7    N     N_3   0.305553 0.924373 0.693131 -0.578178
H25   H     H_    0.307941 0.856795 0.716123 0.210003
H26   H     H_    0.238635 0.960704 0.711395 0.219033
N8    N     N_3   0.745452 0.836764 0.429741 -0.585592
H27   H     H_    0.765180 0.778418 0.477921 0.216199
H28   H     H_    0.803574 0.851640 0.383163 0.233603
N9    N     N_3   0.662425 0.372155 0.830105 -0.576603
H29   H     H_    0.642624 0.394706 0.771466 0.211357
H30   H     H_    0.706185 0.308098 0.831647 0.225868
N10   N     N_3   0.335566 0.630746 0.166009 -0.578759
H31   H     H_    0.292830 0.695384 0.162773 0.216404
H32   H     H_    0.353564 0.608529 0.225646 0.205800
N11   N     N_3   0.935582 0.675979 0.325981 -0.593881
H33   H     H_    0.866457 0.686741 0.346820 0.214708
H34   H     H_    0.953408 0.706503 0.257231 0.220301
N12   N     N_3   0.182133 0.317944 0.647566 -0.581576
H35   H     H_    0.166926 0.280061 0.714175 0.221695
H36   H     H_    0.242635 0.330599 0.634100 0.204188
N13   N     N_3   0.721333 0.088555 0.724513 -0.575961
H37   H     H_    0.771245 0.040130 0.752723 0.256920
H38   H     H_    0.745743 0.139966 0.674329 0.226410
N14   N     N_3   0.277081 0.905213 0.274753 -0.524655
H39   H     H_    0.327206 0.861371 0.238466 0.197198
H40   H     H_    0.241505 0.861680 0.324508 0.198457
N15   N     N_3   0.966008 0.750337 0.756372 -0.554291
H41   H     H_    0.910265 0.797185 0.736709 0.225122
H42   H     H_    0.007547 0.781039 0.760052 0.253026
N16   N     N_3   0.916356 0.273854 0.282415 -0.558379
H43   H     H_    0.960845 0.248241 0.228398 0.256219
H44   H     H_    0.860742 0.322602 0.264161 0.220612
N17   N     N_3   0.724520 0.715786 0.095911 -0.529591
H45   H     H_    0.674475 0.758739 0.133104 0.206056
H46   H     H_    0.745512 0.660538 0.146204 0.197163
N18   N     N_3   0.268713 0.276313 0.920780 -0.568943
H47   H     H_    0.244324 0.224332 0.969676 0.256888
H48   H     H_    0.314276 0.254999 0.864527 0.209845

loop_
_geom_bond_atom_site_label_1
_geom_bond_atom_site_label_2
_ccdc_geom_bond_type
C25   C31   A    
C40   C47   A    
C14   C56   A    
C47   N5    S    
C68   C80   A    
Cu3   Cu4   S    
C12   C74   S    
C11   O1    A    
C29   C40   A    
N13   H38   S    
N13   H37   S    
C3    C71   S    
Cu5   Cu6   S    
C34   C42   A    
C4    C72   S    
C5    C67   S    
C4    O10   A    
C12   O2    A    
N16   H43   S    
C10   C78   S    
C46   N4    S    
N17   H45   S    
C27   C33   A    
C26   C32   A    
C4    O16   A    
N9    H29   S    
C18   H6    S    
C81   N15   S    
C14   C44   A    
N11   H34   S    
Cu2   O11   S    
N6    H24   S    
C44   N2    S    
N5    H21   S    
Cu4   O9    S    
C75   C84   A    
C60   C72   A    
C24   C54   A    
C28   C41   A    
C45   N3    S    
N18   H47   S    
C83   N17   S    
C59   C89   A    
C43   N1    S    
C17   H5    S    
C20   C50   A    
C3    O9    A    
C19   H7    S    
Cu5   O20   S    
C8    O20   A    
N11   H33   S    
N14   H40   S    
C8    O6    A    
C28   C88   A    
C41   C46   A    
Cu6   O7    S    
C14   H2    S    
C24   H12   S    
C32   C38   A    
N8    H28   S    
C30   C90   A    
C13   C43   A    
N17   H46   S    
N7    H25   S    
C28   C34   A    
N9    H30   S    
C5    O7    A    
N12   H36   S    
C15   C57   A    
Cu6   O6    S    
C64   C89   A    
C54   N12   S    
Cu5   O5    S    
C76   C83   A    
C29   C89   A    
N5    H22   S    
C3    O15   A    
C23   C53   A    
C71   C83   A    
C2    O14   A    
C23   C65   A    
C66   C78   A    
C62   C85   A    
Cu4   O21   S    
C65   C77   A    
C49   N7    S    
C17   C47   A    
C84   N18   S    
Cu2   O23   S    
C67   C79   A    
N6    H23   S    
C6    O18   A    
N15   H42   S    
C11   C73   S    
C16   C46   A    
Cu1   Cu2   S    
C2    O12   A    
C58   C70   A    
C7    C75   S    
Cu1   O24   S    
C61   C73   A    
C56   C68   A    
C51   N9    S    
C1    C69   S    
C31   C37   A    
Cu6   O19   S    
C18   C48   A    
C42   C45   A    
N10   H32   S    
C55   C85   A    
C35   C39   A    
C9    O3    A    
C10   O22   A    
C20   C62   A    
C1    O11   A    
Cu2   O14   S    
C25   C38   A    
C19   C49   A    
C56   C86   A    
N15   H41   S    
C36   C40   A    
Cu5   O8    S    
C26   C86   A    
C23   H11   S    
C6    C68   S    
C82   N16   S    
C25   C85   A    
C64   C76   A    
Cu6   O18   S    
C9    C77   S    
C10   O4    A    
C6    O8    A    
N8    H27   S    
C72   C84   A    
C36   C51   A    
Cu3   O3    S    
C50   N8    S    
N2    H16   S    
Cu5   O17   S    
C17   C59   A    
C16   C58   A    
C9    O21   A    
C74   C79   A    
C8    C76   S    
C57   C69   A    
N1    H13   S    
N4    H20   S    
Cu3   O10   S    
C15   C45   A    
C31   C50   A    
Cu3   O22   S    
C53   N11   S    
C21   C51   A    
C66   C87   A    
N14   H39   S    
C65   C88   A    
C22   C52   A    
C18   C60   A    
C33   C54   A    
C7    O5    A    
C12   O24   A    
Cu1   O12   S    
C16   H4    S    
C27   C42   A    
Cu3   O15   S    
C15   H3    S    
N2    H15   S    
C58   C88   A    
N16   H44   S    
N3    H17   S    
C26   C37   A    
C20   H8    S    
C24   C66   A    
C29   C35   A    
C30   C36   A    
C33   C41   A    
N10   H31   S    
C79   N13   S    
C37   C44   A    
C11   O23   A    
C55   C67   A    
Cu2   O2    S    
C22   H10   S    
C27   C87   A    
N3    H18   S    
C78   C81   A    
Cu1   O1    S    
N12   H35   S    
C63   C75   A    
C77   C82   A    
C19   C61   A    
C48   N6    S    
C63   C90   A    
Cu4   O4    S    
C73   C80   A    
N18   H48   S    
C30   C39   A    
N7    H26   S    
C13   H1    S    
C70   C82   A    
C1    O13   A    
C32   C49   A    
C21   C63   A    
C69   C81   A    
C61   C86   A    
C22   C64   A    
C57   C87   A    
C38   C43   A    
C34   C53   A    
Cu1   O13   S    
C5    O17   A    
C35   C52   A    
N1    H14   S    
C80   N14   S    
N4    H19   S    
C62   C74   A    
C60   C90   A    
C7    O19   A    
C2    C70   S    
C52   N10   S    
C21   H9    S    
C59   C71   A    
C39   C48   A    
C13   C55   A    
Cu4   O16   S    
