data_str_m2_o5_o17_f0_pcu.sym.36
_audit_creation_date              2013-03-05T16:34:52-0500
_audit_creation_method            fapswitch 2.2
_symmetry_space_group_name_H-M    P1
_symmetry_Int_Tables_number       1
_space_group_crystal_system       triclinic
_cell_length_a                    15.130507
_cell_length_b                    9.075416
_cell_length_c                    7.785538
_cell_angle_alpha                 90.01454
_cell_angle_beta                  90.000398
_cell_angle_gamma                 90.000135
_cell_volume                      1069.07614015

loop_
_atom_site_label
_atom_site_type_symbol
_atom_site_description
_atom_site_fract_x
_atom_site_fract_y
_atom_site_fract_z
_atom_type_partial_charge
O1    O     O_R   0.500000 0.288390 0.642760 -0.555366
O2    O     O_R   0.500000 0.711610 0.357240 -0.555360
O3    O     O_R   0.500000 0.711610 0.642760 -0.590012
O4    O     O_R   0.500000 0.288390 0.357240 -0.590008
C1    C     C_R   0.500000 0.220054 0.499979 0.893378
C2    C     C_R   0.500000 0.779946 0.500021 0.893388
O5    O     O_R   0.370260 0.500000 0.642800 -0.556284
O6    O     O_R   0.629740 0.500000 0.357200 -0.556288
O7    O     O_R   0.629740 0.500000 0.642800 -0.556288
O8    O     O_R   0.370260 0.500000 0.357200 -0.556288
C3    C     C_R   0.328634 0.499999 0.499999 0.913473
C4    C     C_R   0.671365 0.500000 0.500001 0.913478
Cu1   Cu    Cu3+1 0.500000 0.500000 0.669080 1.144509
Cu2   Cu    Cu3+1 0.500000 0.500000 0.330920 1.144508
N1    N     N_1   0.500000 0.500000 0.076820 -0.002385
N2    N     N_1   0.500000 0.500000 0.923180 -0.002382
C5    C     C_R   0.813054 0.607336 0.405776 0.282737
C6    C     C_R   0.186948 0.392676 0.594258 0.282746
C7    C     C_R   0.813051 0.392670 0.594250 0.282742
C8    C     C_R   0.186945 0.607322 0.405752 0.282734
C9    C     C_R   0.767732 0.500001 0.500006 -0.300153
C10   C     C_R   0.232268 0.499998 0.500001 -0.300161
C11   C     C_R   0.906351 0.385737 0.586431 0.005476
C12   C     C_R   0.093647 0.614269 0.413606 0.005480
C13   C     C_R   0.906352 0.614278 0.413621 0.005480
C14   C     C_R   0.093648 0.385739 0.586433 0.005478
C15   C     C_R   0.953197 0.500006 0.500024 -0.073520
C16   C     C_R   0.046802 0.500004 0.500021 -0.073520
C17   C     C_R   0.953592 0.265932 0.658493 0.106212
C18   C     C_R   0.046408 0.734093 0.341585 0.106242
C19   C     C_R   0.953592 0.734099 0.341596 0.106222
C20   C     C_R   0.046408 0.265934 0.658495 0.106211
C21   C     C_1   0.500000 0.065407 0.499971 -0.041712
C22   C     C_1   0.500000 0.934593 0.500029 -0.041714
N3    N     N_3   0.907468 0.139905 0.725430 -0.493592
H1    H     H_    0.924361 0.124944 0.854411 0.235966
H2    H     H_    0.924855 0.046171 0.655213 0.214797
N4    N     N_3   0.092535 0.860141 0.274708 -0.493583
H3    H     H_    0.075165 0.953843 0.345005 0.214790
H4    H     H_    0.075623 0.875177 0.145744 0.235958
N5    N     N_3   0.907467 0.860149 0.274718 -0.493594
H5    H     H_    0.924866 0.953862 0.344963 0.214781
H6    H     H_    0.924350 0.875142 0.145737 0.235982
N6    N     N_3   0.092533 0.139908 0.725433 -0.493599
H7    H     H_    0.075641 0.124947 0.854414 0.235974
H8    H     H_    0.075146 0.046174 0.655216 0.214781
N7    N     N_R   0.763007 0.708397 0.302526 0.158788
O9    O     O_R   0.713394 0.807605 0.375104 -0.345758
O10   O     O_R   0.761765 0.693521 0.136312 -0.302465
N8    N     N_R   0.236999 0.291618 0.697504 0.158788
O11   O     O_R   0.286597 0.192392 0.624921 -0.345782
O12   O     O_R   0.238266 0.306523 0.863713 -0.302438
N9    N     N_R   0.763000 0.291598 0.697473 0.158780
O13   O     O_R   0.761717 0.306497 0.863682 -0.302443
O14   O     O_R   0.713411 0.192371 0.624867 -0.345765
N10   N     N_R   0.236989 0.708364 0.302474 0.158802
O15   O     O_R   0.286615 0.807571 0.375024 -0.345776
O16   O     O_R   0.238206 0.693484 0.136260 -0.302447

loop_
_geom_bond_atom_site_label_1
_geom_bond_atom_site_label_2
_geom_bond_distance
_ccdc_geom_bond_type
C13   C19   1.417086 A    
N8    O12   1.301182 A    
C14   C20   1.417089 A    
C11   C15   1.425044 A    
N10   O16   1.301190 A    
C13   C15   1.425045 A    
C12   C16   1.425042 A    
N5    H5    1.044743 S    
C17   N3    1.437739 S    
C3    C10   1.458072 S    
C14   C16   1.425041 A    
N3    H1    1.045095 S    
O3    Cu1   1.931402 S    
O6    C4    1.277778 A    
C8    N10   1.435672 S    
O3    C2    1.272771 A    
C5    C13   1.414377 A    
C7    N9    1.435664 S    
Cu2   N1    1.978304 S    
C21   C22   1.187189 T    
C20   N6    1.437740 S    
N7    O10   1.301185 A    
Cu1   Cu2   2.632758 S    
N6    H7    1.045095 S    
N4    H4    1.045122 S    
N5    H6    1.045097 S    
C18   N4    1.437742 S    
O2    C2    1.272787 A    
O1    C1    1.272787 A    
C11   C17   1.417091 A    
N3    H2    1.044740 S    
C8    C10   1.399193 A    
N8    O11   1.301224 A    
C17   C20   1.404356 A    
C1    C21   1.403489 S    
N9    O14   1.301222 A    
O4    Cu2   1.931403 S    
C18   C19   1.404350 A    
O2    Cu2   1.931299 S    
O7    C4    1.277772 A    
C12   C18   1.417083 A    
O1    Cu1   1.931300 S    
O8    C3    1.277777 A    
N1    N2    1.196171 T    
N7    O9    1.301226 A    
C2    C22   1.403489 S    
O5    Cu1   1.973666 S    
N4    H3    1.044763 S    
N10   O15   1.301229 A    
C6    N8    1.435667 S    
O8    Cu2   1.973669 S    
Cu1   N2    1.978304 S    
C15   C16   1.416302 A    
O7    Cu1   1.973667 S    
C7    C11   1.414387 A    
O5    C3    1.277775 A    
O6    Cu2   1.973665 S    
C19   N5    1.437743 S    
C7    C9    1.399193 A    
C6    C10   1.399198 A    
C4    C9    1.458066 S    
C8    C12   1.414377 A    
C5    C9    1.399189 A    
C5    N7    1.435668 S    
N9    O13   1.301179 A    
N6    H8    1.044740 S    
O4    C1    1.272771 A    
C6    C14   1.414387 A    
