data_str_m9_o3_o18_f0_sra.sym.23
_audit_creation_date              2012-12-11T16:44:16-0500
_audit_creation_method            fapswitch 2.2
_symmetry_space_group_name_H-M    P1
_symmetry_Int_Tables_number       1
_space_group_crystal_system       triclinic
_cell_length_a                    27.466796
_cell_length_b                    7.196517
_cell_length_c                    22.628232
_cell_angle_alpha                 90.830396
_cell_angle_beta                  101.395911
_cell_angle_gamma                 90.652613
_cell_volume                      4383.71108838

loop_
_atom_site_label
_atom_site_type_symbol
_atom_type_description
_atom_site_fract_x
_atom_site_fract_y
_atom_site_fract_z
_atom_type_partial_charge
O1    O     O_R   0.707300 0.594030 0.176840 -0.530860
O2    O     O_R   0.292700 0.405970 0.823160 -0.531216
O3    O     O_R   0.792700 0.094030 0.323160 -0.530477
O4    O     O_R   0.207300 0.905970 0.676840 -0.531063
O5    O     O_R   0.697330 0.262360 0.295660 -0.539907
O6    O     O_R   0.302670 0.737640 0.704340 -0.541133
O7    O     O_R   0.802670 0.762360 0.204340 -0.539318
O8    O     O_R   0.197330 0.237640 0.795660 -0.542004
C1    C     C_R   0.683721 0.433657 0.310709 0.674653
C2    C     C_R   0.316154 0.565898 0.689359 0.679192
C3    C     C_R   0.816354 0.933750 0.189329 0.672305
C4    C     C_R   0.183706 0.066017 0.810276 0.677901
O9    O     O_R   0.701410 0.264250 0.175600 -0.533593
O10   O     O_R   0.298590 0.735750 0.824400 -0.533919
O11   O     O_R   0.798590 0.764250 0.324400 -0.533888
O12   O     O_R   0.201410 0.235750 0.675600 -0.533085
O13   O     O_R   0.796800 0.094950 0.202240 -0.532178
O14   O     O_R   0.203200 0.905050 0.797760 -0.535456
O15   O     O_R   0.703200 0.594950 0.297760 -0.533582
O16   O     O_R   0.296800 0.405050 0.702240 -0.535154
C5    C     C_R   0.688708 0.430831 0.153751 0.683790
C6    C     C_R   0.310105 0.569479 0.847026 0.677196
C7    C     C_R   0.810769 0.935142 0.346401 0.683271
C8    C     C_R   0.189964 0.065179 0.653251 0.675116
O17   O     O_3   0.781290 0.427390 0.258880 -0.372538
O18   O     O_3   0.218710 0.572610 0.741120 -0.372037
O19   O     O_3   0.718710 0.927390 0.241120 -0.373280
O20   O     O_3   0.281290 0.072610 0.758880 -0.371712
V1    V     V_3+5 0.744190 0.152150 0.248350 1.396176
V2    V     V_3+5 0.255810 0.847850 0.751650 1.394221
V3    V     V_3+5 0.755810 0.652150 0.251650 1.393527
V4    V     V_3+5 0.244190 0.347850 0.748350 1.391938
C9    C     C_R   0.155372 0.047971 0.594472 -0.033396
C10   C     C_R   0.846272 0.953208 0.404923 -0.038344
C11   C     C_R   0.345106 0.572250 0.906055 -0.042183
C12   C     C_R   0.652015 0.428150 0.095636 -0.045550
C13   C     C_R   0.142248 0.972626 0.487928 -0.163394
C14   C     C_R   0.860527 0.033563 0.511302 -0.161602
C15   C     C_R   0.365026 0.686821 0.009368 -0.164936
C16   C     C_R   0.630071 0.310027 0.992809 -0.163453
C17   C     C_R   0.174268 0.006336 0.543006 -0.163303
C18   C     C_R   0.828321 0.003221 0.456432 -0.169178
C19   C     C_R   0.331069 0.661180 0.955261 -0.161537
C20   C     C_R   0.664256 0.333708 0.046350 -0.168031
C21   C     C_R   0.103660 0.055119 0.590428 -0.217163
C22   C     C_R   0.898038 0.939849 0.408806 -0.213874
C23   C     C_R   0.394094 0.508939 0.911774 -0.217112
C24   C     C_R   0.603249 0.495948 0.090675 -0.215729
C25   C     C_R   0.069954 0.017272 0.534821 0.088406
C26   C     C_R   0.932182 0.977330 0.464338 0.085984
C27   C     C_R   0.430050 0.537656 0.966205 0.086169
C28   C     C_R   0.566526 0.466662 0.036570 0.084334
C29   C     C_R   0.090545 0.976255 0.483435 0.138407
C30   C     C_R   0.911938 0.021982 0.515749 0.140883
C31   C     C_R   0.414294 0.628227 0.015079 0.138128
C32   C     C_R   0.581554 0.373506 0.987556 0.141512
C33   C     C_R   0.016821 0.016699 0.528438 0.059418
C34   C     C_R   0.985384 0.975701 0.470767 0.056678
C35   C     C_R   0.481104 0.483454 0.973490 0.059213
C36   C     C_R   0.515426 0.521689 0.029393 0.056294
C37   C     C_R   0.008228 0.936497 0.421476 -0.188015
C38   C     C_R   0.994101 0.055682 0.577837 -0.188746
C39   C     C_R   0.497315 0.611748 0.076244 -0.188015
C40   C     C_R   0.498946 0.392400 0.926631 -0.189960
C41   C     C_R   0.059589 0.937121 0.427832 -0.201722
C42   C     C_R   0.942902 0.058453 0.571417 -0.202744
C43   C     C_R   0.447863 0.662983 0.069153 -0.201012
C44   C     C_R   0.547995 0.339319 0.933650 -0.201945
H1    H     H_    0.075317 0.905774 0.388552 0.122305
H2    H     H_    0.927297 0.091382 0.610686 0.122412
H3    H     H_    0.435812 0.732403 0.106505 0.122537
H4    H     H_    0.559703 0.268161 0.896353 0.123131
H5    H     H_    0.910271 0.905232 0.367659 0.093137
H6    H     H_    0.091240 0.086323 0.631652 0.092224
H7    H     H_    0.594760 0.563537 0.130149 0.097778
H8    H     H_    0.403327 0.445161 0.872367 0.098024
H9    H     H_    0.789249 0.021880 0.454541 0.108732
H10   H     H_    0.214005 0.997956 0.545656 0.102552
H11   H     H_    0.700229 0.274042 0.049182 0.114761
H12   H     H_    0.293760 0.713526 0.951443 0.108323
H13   H     H_    0.158017 0.940554 0.448751 0.112334
H14   H     H_    0.845090 0.070573 0.550356 0.112638
H15   H     H_    0.352963 0.756822 0.046592 0.113238
H16   H     H_    0.641358 0.236482 0.955683 0.113680
H17   H     H_    0.987344 0.904756 0.376932 0.123253
H18   H     H_    0.014844 0.086279 0.622504 0.123764
H19   H     H_    0.520598 0.644957 0.119323 0.122384
H20   H     H_    0.475827 0.357910 0.883619 0.125851
C45   C     C_R   0.872795 0.111789 0.128066 0.137918
C46   C     C_R   0.113516 0.884648 0.845646 0.135613
C47   C     C_R   0.628218 0.612568 0.372671 0.139243
C48   C     C_R   0.383024 0.379871 0.649055 0.134924
C49   C     C_R   0.912206 0.107172 0.096645 -0.168326
C50   C     C_R   0.081627 0.869173 0.887054 -0.175844
C51   C     C_R   0.589812 0.607134 0.405594 -0.171207
C52   C     C_R   0.415170 0.366567 0.607981 -0.175561
H21   H     H_    0.922262 0.231021 0.074766 0.109024
H22   H     H_    0.061479 0.739853 0.888570 0.100930
H23   H     H_    0.580053 0.732296 0.427635 0.109421
H24   H     H_    0.433191 0.235768 0.603266 0.099827
C53   C     C_R   0.937716 0.944404 0.090255 0.061851
C54   C     C_R   0.075773 0.014898 0.926818 0.067031
C55   C     C_R   0.563994 0.443463 0.411808 0.062565
C56   C     C_R   0.424153 0.516265 0.572560 0.068919
C57   C     C_R   0.925042 0.783111 0.117861 -0.156320
C58   C     C_R   0.102977 0.180617 0.924422 -0.150172
C59   C     C_R   0.575827 0.281094 0.383325 -0.155218
C60   C     C_R   0.399384 0.683612 0.578299 -0.150544
H25   H     H_    0.944933 0.655708 0.114188 0.110958
H26   H     H_    0.098658 0.298547 0.953055 0.111340
H27   H     H_    0.555436 0.153119 0.386503 0.109964
H28   H     H_    0.405939 0.803838 0.552612 0.109320
C61   C     C_R   0.886954 0.785618 0.151117 -0.202141
C62   C     C_R   0.136454 0.196916 0.885213 -0.209109
C63   C     C_R   0.613473 0.283800 0.349433 -0.202517
C64   C     C_R   0.365605 0.698524 0.617214 -0.207398
H29   H     H_    0.879860 0.661151 0.174250 0.127466
H30   H     H_    0.157811 0.324857 0.886382 0.125643
H31   H     H_    0.619754 0.159340 0.325093 0.128530
H32   H     H_    0.346174 0.828059 0.618663 0.121332
C65   C     C_R   0.858626 0.945936 0.155404 -0.074495
C66   C     C_R   0.143485 0.049368 0.846336 -0.062787
C67   C     C_R   0.641943 0.445531 0.345130 -0.076473
C68   C     C_R   0.355966 0.548050 0.652581 -0.063759
C69   C     C_R   0.966564 0.852113 0.996186 -0.149149
C70   C     C_R   0.050707 0.082846 0.027019 -0.152393
C71   C     C_R   0.532719 0.350337 0.503570 -0.150455
C72   C     C_R   0.451917 0.588678 0.474930 -0.152908
H33   H     H_    0.933440 0.766215 0.982966 0.115551
H34   H     H_    0.083394 0.170324 0.040809 0.107790
H35   H     H_    0.564554 0.261439 0.515982 0.115143
H36   H     H_    0.420517 0.679077 0.462066 0.108202
C73   C     C_R   0.998461 0.876223 0.955559 -0.156063
C74   C     C_R   0.018028 0.062058 0.067001 -0.158272
C75   C     C_R   0.500488 0.375416 0.543730 -0.156468
C76   C     C_R   0.484940 0.566732 0.435446 -0.158369
H37   H     H_    0.988562 0.807615 0.911920 0.108922
H38   H     H_    0.025418 0.138124 0.109563 0.112353
H39   H     H_    0.508753 0.304341 0.586264 0.109873
H40   H     H_    0.479137 0.644707 0.394113 0.111674
C77   C     C_R   0.041221 0.991839 0.970231 0.092793
C78   C     C_R   0.975758 0.946194 0.051960 0.085601
C79   C     C_R   0.459365 0.494488 0.530035 0.092706
C80   C     C_R   0.525530 0.447075 0.449405 0.087075
C81   C     C_3   0.847254 0.296442 0.128694 -0.343188
C82   C     C_3   0.797708 0.294262 0.084768 -0.713251
H41   H     H_    0.803710 0.282931 0.037720 0.210882
H42   H     H_    0.774552 0.174270 0.093194 0.219779
H43   H     H_    0.778098 0.425748 0.090002 0.205303
H44   H     H_    0.843703 0.339020 0.174861 0.198549
H45   H     H_    0.869988 0.407991 0.113726 0.158804
C83   C     C_3   0.112693 0.722870 0.801300 -0.345955
C84   C     C_3   0.092894 0.780129 0.736293 -0.706821
H46   H     H_    0.054673 0.834585 0.731734 0.210401
H47   H     H_    0.116893 0.888283 0.721981 0.208820
H48   H     H_    0.091775 0.657437 0.705696 0.215030
H49   H     H_    0.149598 0.658259 0.806207 0.206241
H50   H     H_    0.088026 0.608401 0.810982 0.161808
C85   C     C_3   0.650767 0.802138 0.367182 -0.343106
C86   C     C_3   0.700842 0.829100 0.409264 -0.704578
H51   H     H_    0.696433 0.824017 0.456972 0.208211
H52   H     H_    0.727809 0.722226 0.401757 0.228833
H53   H     H_    0.715190 0.968457 0.400586 0.201838
H54   H     H_    0.652341 0.833241 0.319775 0.194937
H55   H     H_    0.626383 0.909956 0.380498 0.155847
C87   C     C_3   0.380594 0.211126 0.688284 -0.333873
C88   C     C_3   0.401861 0.254801 0.754625 -0.709377
H56   H     H_    0.441630 0.296366 0.760572 0.205970
H57   H     H_    0.381415 0.368875 0.771565 0.210442
H58   H     H_    0.398888 0.129559 0.781862 0.213756
H59   H     H_    0.342462 0.152300 0.681617 0.201808
H60   H     H_    0.402822 0.095121 0.675025 0.158906

loop_
_geom_bond_atom_site_label_1
_geom_bond_atom_site_label_2
_ccdc_geom_bond_type
O17   V3    S    
C25   C29   A    
O1    C5    A    
O19   V1    S    
C9    C21   A    
C16   H16   S    
O3    C7    A    
C10   C18   A    
C48   C52   A    
C73   H37   S    
C76   H40   S    
O15   V3    S    
C55   C80   S    
C81   C82   S    
C25   C33   A    
C33   C38   A    
C88   H57   S    
C5    C12   S    
C45   C81   S    
C6    C11   S    
C38   H18   S    
C35   C40   A    
C26   C30   A    
C60   H28   S    
C58   C62   A    
C36   C39   A    
C40   C44   A    
C57   C61   A    
C71   C75   A    
C23   H8    S    
C14   C18   A    
C2    C68   S    
C72   C76   A    
C58   H26   S    
O4    C8    A    
C51   H23   S    
C43   H3    S    
C70   H34   S    
C56   C60   A    
O1    V3    S    
O13   V1    S    
O2    V4    S    
O3    V1    S    
C28   C36   A    
C1    O15   A    
C15   C31   A    
C2    O16   A    
C16   C32   A    
O2    C6    A    
C54   C58   A    
C10   C22   A    
C54   C77   S    
C84   H47   S    
C11   C19   A    
C16   C20   A    
O5    V1    S    
C81   H44   S    
C44   H4    S    
C13   C29   A    
C34   C37   A    
O11   C7    A    
C11   C23   A    
C35   C36   A    
O12   C8    A    
C47   C67   A    
C87   H60   S    
C14   H14   S    
C45   C49   A    
C46   C66   A    
C24   H7    S    
C13   H13   S    
C3    C65   S    
C59   H27   S    
O10   V2    S    
C72   H36   S    
C51   C55   A    
C22   C26   A    
C46   C50   A    
C88   H58   S    
C82   H42   S    
C53   C57   A    
C83   H50   S    
O7    V3    S    
C38   C42   A    
C26   C34   A    
C86   H53   S    
C63   C67   A    
C4    C66   S    
C46   C83   S    
C49   C53   A    
C88   H56   S    
O18   V4    S    
C15   C19   A    
C19   H12   S    
C32   C44   A    
C64   H32   S    
C21   H6    S    
O8    V4    S    
O7    C3    A    
C39   C43   A    
O5    C1    A    
C37   C41   A    
C74   C78   A    
C82   H43   S    
C53   C78   S    
C31   C43   A    
C85   C86   S    
C14   C30   A    
C21   C25   A    
C69   C78   A    
O8    C4    A    
C7    C10   S    
C56   C79   S    
O9    C5    A    
C62   H30   S    
C84   H48   S    
C59   C63   A    
C81   H45   S    
C37   H17   S    
C61   H29   S    
O6    V2    S    
C63   H31   S    
C52   C56   A    
C69   H33   S    
C87   C88   S    
C12   C20   A    
C27   C35   A    
O9    V1    S    
C49   H21   S    
C17   H10   S    
C29   C41   A    
C82   H41   S    
O16   V4    S    
C69   C73   A    
C57   H25   S    
C83   H49   S    
C3    O13   A    
C64   C68   A    
C39   H19   S    
C47   C85   S    
C20   H11   S    
C74   H38   S    
C23   C27   A    
O11   V3    S    
C30   C42   A    
O12   V4    S    
C75   H39   S    
C70   C77   A    
C73   C77   A    
C8    C9    S    
C9    C17   A    
C86   H51   S    
O10   C6    A    
C71   H35   S    
C48   C68   A    
C15   H15   S    
C76   C80   A    
C60   C64   A    
C33   C34   A    
C42   H2    S    
C45   C65   A    
C41   H1    S    
C52   H24   S    
O20   V2    S    
C75   C79   A    
C1    C67   S    
C12   C24   A    
C27   C31   A    
C71   C80   A    
C13   C17   A    
C72   C79   A    
C85   H55   S    
C87   H59   S    
O6    C2    A    
O14   V2    S    
C47   C51   A    
C62   C66   A    
C48   C87   S    
C24   C28   A    
C61   C65   A    
C83   C84   S    
C70   C74   A    
C18   H9    S    
C4    O14   A    
C50   H22   S    
C85   H54   S    
C55   C59   A    
C84   H46   S    
C40   H20   S    
C22   H5    S    
O4    V2    S    
C28   C32   A    
C50   C54   A    
C86   H52   S    
