data_str_m4_o15_o24_f0_acs.sym.92
_audit_creation_date              2012-12-11T14:28:34-0500
_audit_creation_method            fapswitch 2.2
_symmetry_space_group_name_H-M    P1
_symmetry_Int_Tables_number       1
_space_group_crystal_system       triclinic
_cell_length_a                    10.928622
_cell_length_b                    18.977256
_cell_length_c                    18.772195
_cell_angle_alpha                 90.000041
_cell_angle_beta                  90.0878
_cell_angle_gamma                 90.000557
_cell_volume                      3893.25964303

loop_
_atom_site_label
_atom_site_type_symbol
_atom_type_description
_atom_site_fract_x
_atom_site_fract_y
_atom_site_fract_z
_atom_type_partial_charge
C1    C     C_R   0.318105 0.962147 0.643296 0.540241
C2    C     C_R   0.318034 0.965836 0.854497 0.538808
C3    C     C_R   0.318031 0.034156 0.354494 0.538798
C4    C     C_R   0.318106 0.037849 0.143298 0.540239
C5    C     C_R   0.818104 0.462147 0.643296 0.540241
C6    C     C_R   0.818034 0.465836 0.854497 0.538808
C7    C     C_R   0.818031 0.534156 0.354494 0.538798
C8    C     C_R   0.818106 0.537849 0.143299 0.540239
C9    C     C_3   0.204850 0.720634 0.459911 -0.119179
C10   C     C_3   0.217117 0.756241 0.049471 -0.136230
C11   C     C_3   0.217108 0.243699 0.549475 -0.136262
C12   C     C_3   0.204837 0.279387 0.959917 -0.119155
C13   C     C_3   0.704850 0.220634 0.459911 -0.119179
C14   C     C_3   0.717117 0.256240 0.049471 -0.136229
C15   C     C_3   0.717108 0.743699 0.549475 -0.136262
C16   C     C_3   0.704836 0.779389 0.959918 -0.119154
C17   C     C_3   0.084959 0.746526 0.426704 0.059466
C18   C     C_3   0.083995 0.747478 0.072190 0.057312
C19   C     C_3   0.083999 0.252522 0.572190 0.057311
C20   C     C_3   0.084968 0.253472 0.926702 0.059464
C21   C     C_3   0.584959 0.246526 0.426704 0.059466
C22   C     C_3   0.583995 0.247478 0.072190 0.057310
C23   C     C_3   0.583999 0.752522 0.572190 0.057311
C24   C     C_3   0.584968 0.753472 0.926702 0.059465
C25   C     C_R   0.316267 0.007259 0.425479 -0.025235
C26   C     C_R   0.317854 0.019569 0.069266 -0.026023
C27   C     C_R   0.317844 0.980421 0.569260 -0.026026
C28   C     C_R   0.316281 0.992722 0.925486 -0.025241
C29   C     C_R   0.816267 0.507259 0.425479 -0.025235
C30   C     C_R   0.817854 0.519568 0.069266 -0.026023
C31   C     C_R   0.817844 0.480421 0.569260 -0.026026
C32   C     C_R   0.816281 0.492721 0.925486 -0.025241
C33   C     C_R   0.538103 0.977906 0.422912 -0.075208
C34   C     C_R   0.542016 0.993649 0.067954 -0.088918
C35   C     C_R   0.542002 0.006352 0.567944 -0.088945
C36   C     C_R   0.538121 0.022079 0.922919 -0.075197
C37   C     C_R   0.038103 0.477906 0.422912 -0.075208
C38   C     C_R   0.042016 0.493648 0.067955 -0.088918
C39   C     C_R   0.042002 0.506352 0.567944 -0.088945
C40   C     C_R   0.038121 0.522079 0.922920 -0.075198
C41   C     C_R   0.649306 0.982074 0.458692 -0.126823
C42   C     C_R   0.651102 0.999017 0.030353 -0.141909
C43   C     C_R   0.651087 0.000984 0.530342 -0.141928
C44   C     C_R   0.649322 0.017918 0.958702 -0.126836
C45   C     C_R   0.149306 0.482074 0.458692 -0.126823
C46   C     C_R   0.151102 0.499017 0.030354 -0.141909
C47   C     C_R   0.151087 0.500984 0.530342 -0.141928
C48   C     C_R   0.149323 0.517918 0.958702 -0.126836
C49   C     C_R   0.429046 0.993679 0.533526 -0.020633
C50   C     C_R   0.427516 0.008860 0.959512 -0.015428
C51   C     C_R   0.427500 0.991125 0.459506 -0.015433
C52   C     C_R   0.429060 0.006312 0.033534 -0.020617
C53   C     C_R   0.929046 0.493679 0.533526 -0.020633
C54   C     C_R   0.927516 0.508859 0.959513 -0.015429
C55   C     C_R   0.927500 0.491125 0.459506 -0.015433
C56   C     C_R   0.929060 0.506311 0.033534 -0.020617
C57   C     C_R   0.204566 0.977008 0.530528 0.002860
C58   C     C_R   0.202801 0.992699 0.964345 -0.004926
C59   C     C_R   0.202781 0.007272 0.464336 -0.004928
C60   C     C_R   0.204580 0.022974 0.030530 0.002862
C61   C     C_R   0.704566 0.477008 0.530528 0.002860
C62   C     C_R   0.702802 0.492698 0.964346 -0.004926
C63   C     C_R   0.702781 0.507272 0.464336 -0.004928
C64   C     C_R   0.704580 0.522973 0.030531 0.002862
C65   C     C_R   0.090924 0.948948 0.555387 -0.078359
C66   C     C_R   0.087745 0.962159 0.942747 -0.083667
C67   C     C_R   0.087716 0.037804 0.442735 -0.083683
C68   C     C_R   0.090938 0.051040 0.055379 -0.078371
C69   C     C_R   0.590924 0.448948 0.555387 -0.078359
C70   C     C_R   0.587746 0.462158 0.942747 -0.083667
C71   C     C_R   0.587716 0.537804 0.442735 -0.083683
C72   C     C_R   0.590938 0.551039 0.055379 -0.078371
C73   C     C_R   0.979739 0.968405 0.526436 -0.150648
C74   C     C_R   0.978169 0.981838 0.973470 -0.152508
C75   C     C_R   0.978147 0.018138 0.473475 -0.152513
C76   C     C_R   0.979756 0.031583 0.026422 -0.150650
C77   C     C_R   0.479739 0.468404 0.526436 -0.150648
C78   C     C_R   0.478169 0.481838 0.973470 -0.152509
C79   C     C_R   0.478147 0.518138 0.473475 -0.152513
C80   C     C_R   0.479756 0.531583 0.026421 -0.150650
C81   C     C_R   0.180965 0.770875 0.635659 0.554243
C82   C     C_R   0.185269 0.771660 0.863901 0.558260
C83   C     C_R   0.185272 0.228339 0.363901 0.558271
C84   C     C_R   0.180964 0.229125 0.135659 0.554248
C85   C     C_R   0.680965 0.270875 0.635659 0.554243
C86   C     C_R   0.685269 0.271660 0.863901 0.558260
C87   C     C_R   0.685272 0.728339 0.363901 0.558271
C88   C     C_R   0.680964 0.729125 0.135659 0.554248
C89   C     C_R   0.541617 0.770011 0.643949 0.543964
C90   C     C_R   0.544832 0.769038 0.854467 0.543067
C91   C     C_R   0.544829 0.230961 0.354469 0.543064
C92   C     C_R   0.541614 0.229988 0.143949 0.543962
C93   C     C_R   0.041617 0.270011 0.643949 0.543964
C94   C     C_R   0.044832 0.269038 0.854467 0.543067
C95   C     C_R   0.044829 0.730961 0.354469 0.543064
C96   C     C_R   0.041614 0.729988 0.143949 0.543963
C97   C     C_3   0.096368 0.818063 0.462531 -0.126572
C98   C     C_3   0.042600 0.808447 0.024698 -0.116074
C99   C     C_3   0.042519 0.191590 0.524675 -0.116048
C100  C     C_3   0.096415 0.181934 0.962522 -0.126570
C101  C     C_3   0.596368 0.318063 0.462531 -0.126572
C102  C     C_3   0.542604 0.308448 0.024699 -0.116076
C103  C     C_3   0.542519 0.691590 0.524675 -0.116048
C104  C     C_3   0.596417 0.681934 0.962522 -0.126570
C105  C     C_3   0.217572 0.792926 0.497359 -0.147676
C106  C     C_3   0.177298 0.817650 0.000571 -0.147337
C107  C     C_3   0.177205 0.182327 0.500555 -0.147303
C108  C     C_3   0.217597 0.207093 0.997359 -0.147659
C109  C     C_3   0.717572 0.292926 0.497359 -0.147676
C110  C     C_3   0.677302 0.317649 0.000572 -0.147337
C111  C     C_3   0.677205 0.682327 0.500555 -0.147303
C112  C     C_3   0.717598 0.707095 0.997359 -0.147659
C113  C     C_3   0.143505 0.763823 0.560387 0.042910
C114  C     C_3   0.154015 0.764695 0.940188 0.042086
C115  C     C_3   0.154018 0.235307 0.440187 0.042112
C116  C     C_3   0.143504 0.236175 0.060386 0.042905
C117  C     C_3   0.643505 0.263823 0.560387 0.042910
C118  C     C_3   0.654016 0.264696 0.940189 0.042084
C119  C     C_3   0.654018 0.735307 0.440187 0.042112
C120  C     C_3   0.643503 0.736175 0.060386 0.042906
C121  C     C_3   0.023006 0.788943 0.526782 -0.125926
C122  C     C_3   0.021080 0.755067 0.963543 -0.124983
C123  C     C_3   0.021097 0.244997 0.463535 -0.124978
C124  C     C_3   0.023026 0.211032 0.026773 -0.125906
C125  C     C_3   0.523006 0.288943 0.526782 -0.125926
C126  C     C_3   0.521082 0.255070 0.963543 -0.124984
C127  C     C_3   0.521097 0.744997 0.463535 -0.124978
C128  C     C_3   0.523026 0.711031 0.026772 -0.125907
C129  C     C_3   0.011464 0.716959 0.489435 -0.104424
C130  C     C_3   0.061968 0.694036 0.011953 -0.106684
C131  C     C_3   0.062071 0.305990 0.511967 -0.106714
C132  C     C_3   0.011447 0.283016 0.989432 -0.104427
C133  C     C_3   0.511464 0.216959 0.489435 -0.104424
C134  C     C_3   0.561966 0.194038 0.011953 -0.106682
C135  C     C_3   0.562071 0.805990 0.511967 -0.106714
C136  C     C_3   0.511445 0.783015 0.989432 -0.104428
C137  C     C_3   0.131746 0.691899 0.523608 -0.094361
C138  C     C_3   0.195611 0.703392 0.988045 -0.098157
C139  C     C_3   0.195699 0.296574 0.488063 -0.098220
C140  C     C_3   0.131707 0.308099 0.023613 -0.094373
C141  C     C_3   0.631746 0.191899 0.523608 -0.094361
C142  C     C_3   0.695608 0.203392 0.988045 -0.098156
C143  C     C_3   0.695699 0.796574 0.488063 -0.098220
C144  C     C_3   0.631703 0.808100 0.023613 -0.094373
Cr1   Cr    Cr6+3 0.488160 0.884660 0.750000 0.997926
Cr2   Cr    Cr6+3 0.488160 0.115340 0.250000 0.997930
Cr3   Cr    Cr6+3 0.988160 0.384660 0.750000 0.997925
Cr4   Cr    Cr6+3 0.988160 0.615340 0.250000 0.997930
Cr5   Cr    Cr6+3 0.173480 0.883120 0.750000 0.989423
Cr6   Cr    Cr6+3 0.173480 0.116880 0.250000 0.989418
Cr7   Cr    Cr6+3 0.673480 0.383120 0.750000 0.989423
Cr8   Cr    Cr6+3 0.673480 0.616880 0.250000 0.989418
Cr9   Cr    Cr6+3 0.333410 0.727260 0.750000 1.008035
Cr10  Cr    Cr6+3 0.333410 0.272740 0.250000 1.008028
Cr11  Cr    Cr6+3 0.833410 0.227260 0.750000 1.008035
Cr12  Cr    Cr6+3 0.833410 0.772740 0.250000 1.008028
H1    H     H_    0.301150 0.825558 0.502250 0.101538
H2    H     H_    0.234458 0.865223 0.997759 0.112890
H3    H     H_    0.234326 0.134742 0.497737 0.112920
H4    H     H_    0.301190 0.174477 0.002253 0.101512
H5    H     H_    0.801150 0.325558 0.502250 0.101538
H6    H     H_    0.734463 0.365221 0.997760 0.112890
H7    H     H_    0.734326 0.634742 0.497737 0.112920
H8    H     H_    0.801193 0.674480 0.002254 0.101511
H9    H     H_    0.081646 0.867983 0.433054 0.142510
H10   H     H_    0.978563 0.850539 0.041657 0.132744
H11   H     H_    0.978409 0.149524 0.541607 0.132705
H12   H     H_    0.081728 0.132012 0.933044 0.142504
H13   H     H_    0.581646 0.367983 0.433054 0.142510
H14   H     H_    0.478570 0.350541 0.041659 0.132746
H15   H     H_    0.478409 0.649524 0.541607 0.132705
H16   H     H_    0.581734 0.632012 0.933043 0.142503
H17   H     H_    0.949230 0.817031 0.555462 0.106196
H18   H     H_    0.946040 0.751696 0.924207 0.119908
H19   H     H_    0.946069 0.248418 0.424202 0.119910
H20   H     H_    0.949257 0.182925 0.055440 0.106175
H21   H     H_    0.449230 0.317031 0.555462 0.106196
H22   H     H_    0.446043 0.251703 0.924208 0.119909
H23   H     H_    0.446069 0.748418 0.424202 0.119910
H24   H     H_    0.449257 0.682923 0.055439 0.106175
H25   H     H_    0.928917 0.683815 0.483487 0.105714
H26   H     H_    0.013214 0.643428 0.018614 0.132677
H27   H     H_    0.013402 0.356619 0.518644 0.132776
H28   H     H_    0.928893 0.316149 0.983479 0.105704
H29   H     H_    0.428917 0.183815 0.483487 0.105714
H30   H     H_    0.513210 0.143430 0.018613 0.132675
H31   H     H_    0.513402 0.856619 0.518644 0.132776
H32   H     H_    0.428888 0.816147 0.983478 0.105704
H33   H     H_    0.147131 0.640755 0.550270 0.136796
H34   H     H_    0.259222 0.660597 0.972222 0.124823
H35   H     H_    0.259374 0.339342 0.472252 0.124804
H36   H     H_    0.147051 0.359243 0.050282 0.136808
H37   H     H_    0.647131 0.140755 0.550270 0.136796
H38   H     H_    0.759216 0.160596 0.972220 0.124825
H39   H     H_    0.759374 0.839342 0.472252 0.124804
H40   H     H_    0.647045 0.859243 0.050283 0.136808
H41   H     H_    0.273594 0.689124 0.430549 0.113833
H42   H     H_    0.294055 0.758500 0.087946 0.117132
H43   H     H_    0.294047 0.241385 0.587945 0.117125
H44   H     H_    0.273559 0.310922 0.930566 0.113825
H45   H     H_    0.773594 0.189124 0.430549 0.113833
H46   H     H_    0.794054 0.258497 0.087946 0.117133
H47   H     H_    0.794047 0.741385 0.587945 0.117125
H48   H     H_    0.773559 0.810925 0.930569 0.113825
H49   H     H_    0.077556 0.080845 0.406157 0.178971
H50   H     H_    0.083271 0.090781 0.094876 0.180950
H51   H     H_    0.083256 0.909212 0.594889 0.180963
H52   H     H_    0.077601 0.919111 0.906176 0.178974
H53   H     H_    0.577556 0.580845 0.406157 0.178971
H54   H     H_    0.583272 0.590781 0.094876 0.180950
H55   H     H_    0.583256 0.409212 0.594889 0.180963
H56   H     H_    0.577601 0.419111 0.906176 0.178974
O1    O     O_R   0.575450 0.828820 0.667950 -0.518960
O2    O     O_R   0.575450 0.828820 0.832050 -0.517180
O3    O     O_R   0.575450 0.171180 0.332050 -0.517171
O4    O     O_R   0.575450 0.171180 0.167950 -0.518950
O5    O     O_R   0.075450 0.328820 0.667950 -0.518960
O6    O     O_R   0.075450 0.328820 0.832050 -0.517180
O7    O     O_R   0.075450 0.671180 0.332050 -0.517171
O8    O     O_R   0.075450 0.671180 0.167950 -0.518950
O9    O     O_R   0.416860 0.942890 0.674680 -0.513644
O10   O     O_R   0.416860 0.942890 0.825320 -0.506353
O11   O     O_R   0.416860 0.057110 0.325320 -0.506340
O12   O     O_R   0.416860 0.057110 0.174680 -0.513644
O13   O     O_R   0.916860 0.442890 0.674680 -0.513644
O14   O     O_R   0.916860 0.442890 0.825320 -0.506353
O15   O     O_R   0.916860 0.557110 0.325320 -0.506340
O16   O     O_R   0.916860 0.557110 0.174680 -0.513645
O17   O     O_R   0.213790 0.953680 0.668330 -0.539387
O18   O     O_R   0.213790 0.953680 0.831670 -0.544048
O19   O     O_R   0.213790 0.046320 0.331670 -0.544066
O20   O     O_R   0.213790 0.046320 0.168330 -0.539390
O21   O     O_R   0.713790 0.453680 0.668330 -0.539387
O22   O     O_R   0.713790 0.453680 0.831670 -0.544048
O23   O     O_R   0.713790 0.546320 0.331670 -0.544066
O24   O     O_R   0.713790 0.546320 0.168330 -0.539390
O25   O     O_R   0.121360 0.817890 0.672660 -0.523919
O26   O     O_R   0.121360 0.817890 0.827340 -0.517731
O27   O     O_R   0.121360 0.182110 0.327340 -0.517714
O28   O     O_R   0.121360 0.182110 0.172660 -0.523913
O29   O     O_R   0.621360 0.317890 0.672660 -0.523919
O30   O     O_R   0.621360 0.317890 0.827340 -0.517732
O31   O     O_R   0.621360 0.682110 0.327340 -0.517714
O32   O     O_R   0.621360 0.682110 0.172660 -0.523913
O33   O     O_R   0.206850 0.711370 0.665820 -0.519679
O34   O     O_R   0.206850 0.711370 0.834180 -0.515524
O35   O     O_R   0.206850 0.288630 0.334180 -0.515527
O36   O     O_R   0.206850 0.288630 0.165820 -0.519678
O37   O     O_R   0.706850 0.211370 0.665820 -0.519679
O38   O     O_R   0.706850 0.211370 0.834180 -0.515524
O39   O     O_R   0.706850 0.788630 0.334180 -0.515527
O40   O     O_R   0.706850 0.788630 0.165820 -0.519678
O41   O     O_R   0.457710 0.733190 0.672630 -0.521037
O42   O     O_R   0.457710 0.733190 0.827370 -0.523352
O43   O     O_R   0.457710 0.266810 0.327370 -0.523363
O44   O     O_R   0.457710 0.266810 0.172630 -0.521043
O45   O     O_R   0.957710 0.233190 0.672630 -0.521037
O46   O     O_R   0.957710 0.233190 0.827370 -0.523352
O47   O     O_R   0.957710 0.766810 0.327370 -0.523363
O48   O     O_R   0.957710 0.766810 0.172630 -0.521043
O49   O     O_3   0.331690 0.831680 0.750000 -0.290349
O50   O     O_3   0.331690 0.168320 0.250000 -0.290348
O51   O     O_3   0.831690 0.331680 0.750000 -0.290349
O52   O     O_3   0.831690 0.668320 0.250000 -0.290348
H57   H     H_    0.896493 0.945730 0.546946 0.103285
H58   H     H_    0.893517 0.958467 0.955499 0.104547
H59   H     H_    0.893494 0.041511 0.455509 0.104543
H60   H     H_    0.896509 0.054266 0.046919 0.103276
H61   H     H_    0.396493 0.445730 0.546946 0.103285
H62   H     H_    0.393517 0.458467 0.955499 0.104548
H63   H     H_    0.393494 0.541511 0.455509 0.104543
H64   H     H_    0.396509 0.554266 0.046918 0.103276
H65   H     H_    0.733163 0.972707 0.429916 0.110013
H66   H     H_    0.735867 0.988256 0.057547 0.106068
H67   H     H_    0.735853 0.011749 0.557533 0.106066
H68   H     H_    0.733181 0.027284 0.929926 0.109991
H69   H     H_    0.233163 0.472707 0.429916 0.110013
H70   H     H_    0.235867 0.488256 0.057547 0.106068
H71   H     H_    0.235853 0.511749 0.557533 0.106066
H72   H     H_    0.233181 0.527284 0.929927 0.109992
H73   H     H_    0.539562 0.964362 0.366963 0.138677
H74   H     H_    0.547798 0.977880 0.123130 0.141210
H75   H     H_    0.547784 0.022125 0.623118 0.141220
H76   H     H_    0.539584 0.035620 0.866971 0.138686
H77   H     H_    0.039562 0.464362 0.366963 0.138677
H78   H     H_    0.047798 0.477879 0.123131 0.141211
H79   H     H_    0.047784 0.522125 0.623118 0.141220
H80   H     H_    0.039584 0.535620 0.866971 0.138686

loop_
_geom_bond_atom_site_label_1
_geom_bond_atom_site_label_2
_ccdc_geom_bond_type
C6    C32   S    
C7    C29   S    
C119  C143  S    
C120  C144  S    
C110  C118  S    
C36   C50   A    
C75   H59   S    
Cr5   O18   S    
C4    O20   A    
C16   C144  S    
Cr8   O32   S    
C57   C59   A    
Cr1   O9    S    
C58   C60   A    
Cr6   O20   S    
C62   C70   A    
C1    O9    A    
C61   C63   A    
C91   O3    A    
C121  H17   S    
C49   C51   A    
C34   C42   A    
C50   C52   A    
C23   C89   S    
C128  H24   S    
C67   H49   S    
C88   O40   A    
C97   C105  S    
C41   C43   A    
C42   C44   A    
C20   C132  S    
C21   C133  S    
Cr3   O14   S    
C47   H71   S    
C99   H11   S    
Cr10  O43   S    
C45   C47   A    
C112  H8    S    
C46   C48   A    
C115  C123  S    
C27   C57   A    
C37   H77   S    
C112  C120  S    
Cr11  O46   S    
C19   C99   S    
C29   C55   A    
C39   H79   S    
C96   O8    A    
Cr7   O22   S    
C30   C56   A    
C40   H80   S    
C79   H63   S    
C80   H64   S    
Cr3   O5    S    
C15   C111  S    
C91   O43   A    
C104  C128  S    
C86   O30   A    
Cr9   O34   S    
C12   C20   S    
C120  C128  S    
C142  H38   S    
C13   C21   S    
C85   C117  S    
C82   C114  S    
C93   O45   A    
C44   H68   S    
C63   C71   A    
C45   H69   S    
C34   H74   S    
C113  C137  S    
C36   C44   A    
C33   C51   A    
C37   C45   A    
C130  C138  S    
C90   O2    A    
C41   H65   S    
C39   C47   A    
C40   C48   A    
C20   C94   S    
C133  C141  S    
C24   C90   S    
C15   H47   S    
Cr8   O24   S    
C28   C58   A    
C98   C106  S    
C33   C41   A    
C4    O12   A    
C68   H50   S    
C7    O15   A    
C10   C18   S    
C5    O13   A    
C126  H22   S    
Cr4   O7    S    
C2    C28   S    
C32   C62   A    
Cr1   O2    S    
C42   H66   S    
C129  C137  S    
C126  C134  S    
Cr6   O27   S    
C83   O35   A    
C10   C138  S    
C16   H48   S    
C101  C109  S    
C102  H14   S    
C14   C142  S    
C85   O37   A    
C70   H56   S    
C134  H30   S    
C69   C77   A    
Cr4   O16   S    
C71   C79   A    
C8    O16   A    
Cr12  O39   S    
C87   O39   A    
C74   C76   A    
C110  H6    S    
C105  C113  S    
C78   C80   A    
C9    C105  S    
C66   C74   A    
C124  C132  S    
C93   O5    A    
C97   C121  S    
C59   C67   A    
Cr12  O52   S    
C71   H53   S    
C35   C49   A    
C62   C64   A    
Cr2   O50   S    
C35   C43   A    
C133  H29   S    
C24   C136  S    
C135  C143  S    
C90   O42   A    
C84   C116  S    
C136  H32   S    
C103  H15   S    
C131  H27   S    
C135  H31   S    
C9    H41   S    
C23   C103  S    
C100  C108  S    
C82   O34   A    
C83   C115  S    
C3    O19   A    
C104  C112  S    
C122  H18   S    
C87   C119  S    
Cr7   O29   S    
Cr2   O12   S    
Cr5   O25   S    
C57   C65   A    
C12   H44   S    
C141  H37   S    
Cr4   O52   S    
C98   H10   S    
C69   H55   S    
C40   C54   A    
C76   H60   S    
C33   H73   S    
Cr1   O49   S    
C15   C143  S    
C10   C106  S    
C67   C75   A    
C38   H78   S    
C14   C110  S    
C3    O11   A    
Cr9   O41   S    
C102  C126  S    
C123  H19   S    
C144  H40   S    
C68   C76   A    
C84   O36   A    
C127  H23   S    
C14   C22   S    
C48   H72   S    
Cr11  O51   S    
C72   C80   A    
C125  H21   S    
C94   O46   A    
C14   H46   S    
C81   O25   A    
C77   H61   S    
C114  C138  S    
C38   C46   A    
C131  C139  S    
C2    O18   A    
C37   C55   A    
C113  C121  S    
Cr10  O35   S    
C95   O7    A    
C22   C92   S    
C25   C59   A    
C17   C97   S    
C27   C49   A    
C119  C127  S    
C29   C63   A    
C30   C64   A    
C73   C75   A    
C31   C61   A    
Cr3   O13   S    
C109  C117  S    
Cr10  O44   S    
C11   C19   S    
C127  C135  S    
C139  H35   S    
C128  C136  S    
Cr11  O45   S    
C43   H67   S    
C61   C69   A    
Cr7   O21   S    
C2    O10   A    
C103  C111  S    
Cr5   O49   S    
C11   C139  S    
C9    C137  S    
C105  H1    S    
Cr9   O33   S    
C12   C140  S    
C101  H13   S    
C17   C95   S    
C13   C141  S    
C88   C120  S    
Cr2   O3    S    
C19   C93   S    
Cr7   O51   S    
C104  H16   S    
Cr12  O47   S    
Cr8   O52   S    
C77   C79   A    
C32   C54   A    
Cr11  O37   S    
C7    O23   A    
C3    C25   S    
Cr8   O31   S    
Cr1   O10   S    
Cr6   O19   S    
C117  C141  S    
Cr10  O50   S    
C134  C142  S    
C66   H52   S    
C20   C100  S    
C96   O48   A    
C143  H39   S    
C85   O29   A    
Cr5   O26   S    
C86   C118  S    
Cr4   O8    S    
C73   H57   S    
Cr6   O50   S    
C65   H51   S    
C92   O44   A    
C22   C134  S    
Cr6   O28   S    
C102  C110  S    
C16   C112  S    
C89   O1    A    
C21   C91   S    
C116  C124  S    
C123  C131  S    
C121  C129  S    
C88   O32   A    
C4    C26   S    
Cr12  O40   S    
C132  C140  S    
C99   C107  S    
C34   C52   A    
C23   C135  S    
C8    C30   S    
Cr9   O49   S    
C108  C116  S    
Cr5   O17   S    
C136  C144  S    
Cr3   O6    S    
C132  H28   S    
C39   C53   A    
C97   H9    S    
C6    O14   A    
C46   H70   S    
C92   O4    A    
C78   H62   S    
C11   H43   S    
C60   C68   A    
C81   C113  S    
C100  C124  S    
C124  H20   S    
C86   O38   A    
Cr9   O42   S    
C70   C78   A    
C18   C96   S    
Cr8   O23   S    
C95   O47   A    
C106  C114  S    
C111  C119  S    
C94   O6    A    
C65   C73   A    
C5    C31   S    
C28   C50   A    
C58   C66   A    
C72   H54   S    
C35   H75   S    
C13   C109  S    
C21   C101  S    
C15   C23   S    
C12   C108  S    
C16   C24   S    
C89   O41   A    
C84   O28   A    
Cr4   O15   S    
C10   H42   S    
Cr11  O38   S    
C53   C55   A    
C19   C131  S    
C83   O27   A    
C17   C129  S    
C81   O33   A    
C111  H7    S    
C36   H76   S    
C130  H26   S    
C106  H2    S    
C24   C104  S    
C25   C51   A    
C26   C52   A    
C87   O31   A    
C38   C56   A    
C31   C53   A    
C107  C115  S    
C137  H33   S    
C9    C17   S    
Cr10  O36   S    
C11   C107  S    
C140  H36   S    
Cr1   O1    S    
C8    O24   A    
C103  C127  S    
C99   C123  S    
C125  C133  S    
C129  H25   S    
C138  H34   S    
C115  C139  S    
C118  C142  S    
C107  H3    S    
C54   C56   A    
C108  H4    S    
C18   C98   S    
C22   C102  S    
C100  H12   S    
C109  H5    S    
Cr7   O30   S    
Cr2   O11   S    
C74   H58   S    
C26   C60   A    
C82   O26   A    
C13   H45   S    
C64   C72   A    
C6    O22   A    
C18   C130  S    
C114  C122  S    
C1    O17   A    
C98   C122  S    
C1    C27   S    
C5    O21   A    
C118  C126  S    
C116  C140  S    
C117  C125  S    
Cr3   O51   S    
C101  C125  S    
C122  C130  S    
Cr2   O4    S    
Cr12  O48   S    
