data_str_m2_o9_o14_f0_pcu.sym.94
_audit_creation_date              2012-12-10T19:43:27-0500
_audit_creation_method            fapswitch 2.2
_symmetry_space_group_name_H-M    P1
_symmetry_Int_Tables_number       1
_space_group_crystal_system       triclinic
_cell_length_a                    10.978357
_cell_length_b                    10.858126
_cell_length_c                    9.638392
_cell_angle_alpha                 90.099532
_cell_angle_beta                  91.204437
_cell_angle_gamma                 94.034223
_cell_volume                      1145.83256803

loop_
_atom_site_label
_atom_site_type_symbol
_atom_type_description
_atom_site_fract_x
_atom_site_fract_y
_atom_site_fract_z
_atom_type_partial_charge
C1    C     C_R   0.507307 0.262889 0.501201 0.810218
C2    C     C_R   0.218429 0.566501 0.975795 -0.142204
C3    C     C_R   0.930582 0.487315 0.377284 -0.234270
C4    C     C_R   0.872089 0.501115 0.503791 -0.079972
C5    C     C_R   0.945020 0.518046 0.625756 0.041648
C6    C     C_R   0.069971 0.507375 0.619689 -0.227795
C7    C     C_R   0.128456 0.499847 0.494030 -0.095371
C8    C     C_R   0.057635 0.496174 0.369820 0.013917
C9    C     C_R   0.948927 0.682763 0.801759 -0.267711
C10   C     C_R   0.947615 0.717169 0.941298 0.515317
C11   C     C_R   0.896622 0.633207 0.037834 -0.170743
C12   C     C_R   0.262462 0.499865 0.498010 0.791590
C13   C     C_R   0.845924 0.517049 0.994307 -0.233308
C14   C     C_R   0.851996 0.481303 0.855895 -0.100797
C15   C     C_R   0.903878 0.563871 0.758985 0.041921
C16   C     C_R   0.537793 0.116269 0.765089 -0.166199
C17   C     C_R   0.502434 0.056285 0.886820 -0.171330
C18   C     C_R   0.439299 0.941152 0.879734 -0.069125
C19   C     C_R   0.423809 0.880088 0.752520 -0.127280
C20   C     C_R   0.469824 0.935675 0.629509 0.084530
C21   C     C_R   0.508081 0.062155 0.633454 0.105412
C22   C     C_R   0.513612 0.128391 0.505906 -0.116322
C23   C     C_R   0.490519 0.736593 0.500430 0.777890
C24   C     C_R   0.508130 0.063508 0.379992 -0.195382
C25   C     C_R   0.496906 0.935919 0.378995 -0.201856
C26   C     C_R   0.480090 0.870401 0.502985 -0.111492
C27   C     C_R   0.633638 0.690724 0.145684 -0.185283
C28   C     C_R   0.679648 0.795042 0.075309 -0.210165
C29   C     C_R   0.679088 0.794238 0.931789 -0.165689
C30   C     C_R   0.633775 0.689311 0.860342 -0.142616
C31   C     C_R   0.563826 0.594338 0.927075 0.197192
C32   C     C_R   0.563743 0.594630 0.076036 0.203731
C33   C     C_R   0.442501 0.407254 0.072246 -0.044617
C34   C     C_R   0.737866 0.501768 0.501669 0.776957
C35   C     C_R   0.442703 0.407194 0.924561 -0.096812
C36   C     C_R   0.231289 0.655081 0.080655 -0.043253
C37   C     C_R   0.175473 0.633077 0.207313 -0.038087
C38   C     C_R   0.111983 0.518774 0.232858 0.095306
C39   C     C_R   0.100720 0.428735 0.128031 -0.142485
C40   C     C_R   0.153180 0.453183 0.999166 -0.150868
Cu1   Cu    Cu3+1 0.499990 0.499990 0.640660 0.919299
Cu2   Cu    Cu3+1 0.500010 0.500010 0.359340 0.935870
H1    H     H_    0.261859 0.585295 0.877834 0.151994
H2    H     H_    0.894105 0.658733 0.146106 0.164075
H3    H     H_    0.803723 0.453094 0.067597 0.150487
H4    H     H_    0.820681 0.388157 0.825394 0.141841
H5    H     H_    0.514045 0.111276 0.281499 0.158015
H6    H     H_    0.591569 0.202887 0.776845 0.165290
H7    H     H_    0.522393 0.100073 0.986529 0.131769
H8    H     H_    0.407747 0.896925 0.973879 0.143441
H9    H     H_    0.373985 0.790623 0.751993 0.160717
H10   H     H_    0.500811 0.888726 0.280304 0.166713
H11   H     H_    0.393617 0.332083 0.125553 0.145560
H12   H     H_    0.284122 0.741041 0.063943 0.145809
H13   H     H_    0.662143 0.684942 0.251910 0.203416
H14   H     H_    0.727146 0.870910 0.131696 0.197917
H15   H     H_    0.723573 0.870097 0.875653 0.215079
H16   H     H_    0.661927 0.682374 0.755448 0.203033
H17   H     H_    0.393672 0.332141 0.868617 0.155354
H18   H     H_    0.184622 0.703607 0.287246 0.136465
H19   H     H_    0.051455 0.340464 0.145988 0.136745
H20   H     H_    0.144768 0.383661 0.918323 0.139681
H21   H     H_    0.877391 0.477474 0.282500 0.153468
H22   H     H_    0.123033 0.515125 0.714810 0.162666
H23   H     H_    0.992796 0.745361 0.727604 0.180057
N1    N     N_R   0.501190 0.501210 0.147910 -0.200899
N2    N     N_R   0.501230 0.501290 0.852040 -0.211936
O1    O     O_R   0.499990 0.319640 0.618810 -0.592789
O2    O     O_R   0.500000 0.319660 0.381240 -0.583237
O3    O     O_R   0.319640 0.500000 0.618780 -0.594504
O4    O     O_R   0.319650 0.500020 0.381210 -0.569437
O5    O     O_R   0.500000 0.680340 0.618760 -0.614458
O6    O     O_R   0.500010 0.680360 0.381190 -0.601387
O7    O     O_R   0.680350 0.499980 0.618790 -0.593799
O8    O     O_R   0.680360 0.500000 0.381220 -0.603252
S1    S     S_3+6 0.012903 0.863753 0.993568 -0.057991
O9    O     O_2   0.023292 0.871691 0.149113 -0.331686
O10   O     O_2   0.137421 0.884581 0.932476 -0.334444
O11   O     O_3   0.926100 0.974644 0.934553 -0.572781
H24   H     H_    0.967966 0.053076 0.968450 0.373243

loop_
_geom_bond_atom_site_label_1
_geom_bond_atom_site_label_2
_ccdc_geom_bond_type
C16   C21   A    
Cu1   Cu2   S    
C19   C20   A    
S1    O11   S    
C16   H6    S    
C28   H14   S    
C7    C8    A    
C14   H4    S    
C31   N2    A    
Cu2   O8    S    
C37   C38   A    
C36   C37   A    
S1    O10   D    
C5    C6    A    
C27   H13   S    
C1    O1    A    
C40   H20   S    
C35   H17   S    
C18   C19   A    
C23   C26   S    
C6    H22   S    
Cu1   O7    S    
C10   S1    S    
C16   C17   A    
C9    C10   A    
C34   O8    A    
C1    C22   S    
C21   C22   A    
C8    C38   S    
C23   O6    A    
C33   N1    A    
Cu1   O1    S    
C33   H11   S    
C7    C12   S    
C39   H19   S    
C4    C34   S    
C38   C39   A    
S1    O9    D    
Cu1   N2    S    
C3    C8    A    
C17   H7    S    
C39   C40   A    
C25   C26   A    
Cu2   O2    S    
C1    O2    A    
C29   C30   A    
C2    C40   A    
C31   C32   A    
C35   N2    A    
C2    H1    S    
C17   C18   A    
C11   H2    S    
C24   C25   A    
C34   O7    A    
Cu1   O5    S    
C12   O4    A    
C29   H15   S    
C22   C24   A    
C3    C4    A    
C18   H8    S    
C32   N1    A    
C2    C36   A    
C12   O3    A    
C28   C29   A    
Cu2   O6    S    
C27   C32   A    
C24   H5    S    
C23   O5    A    
C4    C5    A    
C6    C7    A    
C3    H21   S    
C9    C15   A    
C25   H10   S    
C13   H3    S    
C11   C13   A    
C30   C31   A    
C20   C26   A    
C30   H16   S    
Cu2   O4    S    
C33   C35   A    
C9    H23   S    
C5    C15   S    
C37   H18   S    
C36   H12   S    
C10   C11   A    
O11   H24   S    
C19   H9    S    
C20   C21   A    
C27   C28   A    
Cu2   N1    S    
C14   C15   A    
C13   C14   A    
Cu1   O3    S    
