data_str_m9_o7_o16_f0_sra.sym.36
_audit_creation_date              2012-12-11T17:34:19-0500
_audit_creation_method            fapswitch 2.2
_symmetry_space_group_name_H-M    P1
_symmetry_Int_Tables_number       1
_space_group_crystal_system       triclinic
_cell_length_a                    23.763939
_cell_length_b                    7.2239
_cell_length_c                    20.598679
_cell_angle_alpha                 90.037185
_cell_angle_beta                  105.518401
_cell_angle_gamma                 90.048306
_cell_volume                      3407.22648336

loop_
_atom_site_label
_atom_site_type_symbol
_atom_type_description
_atom_site_fract_x
_atom_site_fract_y
_atom_site_fract_z
_atom_type_partial_charge
O1    O     O_R   0.449110 0.494310 0.552140 -0.538175
O2    O     O_R   0.550890 0.994310 0.447860 -0.538195
O3    O     O_R   0.440010 0.824420 0.415850 -0.532677
O4    O     O_R   0.559990 0.324420 0.584150 -0.532649
C1    C     C_R   0.425229 0.655256 0.390934 0.684831
C2    C     C_R   0.574832 0.155512 0.609037 0.684817
O5    O     O_R   0.442260 0.824040 0.549660 -0.538686
O6    O     O_R   0.557740 0.324040 0.450340 -0.538734
O7    O     O_R   0.553160 0.993960 0.582620 -0.531800
O8    O     O_R   0.446840 0.493960 0.417380 -0.531733
C3    C     C_R   0.428270 0.655292 0.567057 0.686901
C4    C     C_R   0.571721 0.155328 0.432928 0.686984
O9    O     O_3   0.536380 0.660670 0.510660 -0.372387
O10   O     O_3   0.463620 0.160670 0.489340 -0.372325
V1    V     V_3+5 0.493250 0.935680 0.498020 1.417328
V2    V     V_3+5 0.506750 0.435680 0.501980 1.417475
C5    C     C_R   0.830407 0.910346 0.179197 -0.112206
C6    C     C_R   0.168808 0.410547 0.819907 -0.111408
H1    H     H_    0.818145 0.785204 0.201016 0.118685
H2    H     H_    0.180769 0.285498 0.797758 0.119541
C7    C     C_R   0.868835 0.898630 0.138092 -0.094651
C8    C     C_R   0.130438 0.398839 0.861082 -0.100734
H3    H     H_    0.885446 0.763995 0.129399 0.174563
H4    H     H_    0.113539 0.264333 0.869468 0.176172
C9    C     C_R   0.886074 0.059052 0.109435 -0.071591
C10   C     C_R   0.113662 0.559118 0.890251 -0.074877
C11   C     C_R   0.862931 0.230770 0.122328 -0.111939
C12   C     C_R   0.137058 0.730746 0.877625 -0.110002
H5    H     H_    0.874234 0.357153 0.100566 0.157149
H6    H     H_    0.126027 0.857029 0.899693 0.156804
C13   C     C_R   0.824603 0.242089 0.163395 -0.115531
C14   C     C_R   0.175320 0.742062 0.836476 -0.112508
H7    H     H_    0.807742 0.375997 0.172683 0.109521
H8    H     H_    0.192430 0.875877 0.827452 0.108811
C15   C     C_R   0.808241 0.082217 0.192208 0.115872
C16   C     C_R   0.191330 0.582287 0.807280 0.116496
C17   C     C_1   0.768719 0.094954 0.234878 -0.044770
C18   C     C_1   0.230895 0.594955 0.764657 -0.044777
C19   C     C_1   0.735676 0.105537 0.270539 -0.059090
C20   C     C_1   0.264001 0.605466 0.729068 -0.058737
C21   C     C_R   0.685438 0.961418 0.350468 0.128023
C22   C     C_R   0.314406 0.461155 0.649326 0.127930
C23   C     C_R   0.644986 0.976842 0.389292 -0.180267
C24   C     C_R   0.354945 0.476587 0.610610 -0.181446
H9    H     H_    0.636905 0.857605 0.417404 0.127950
H10   H     H_    0.363081 0.357249 0.582554 0.127951
C25   C     C_R   0.615382 0.143943 0.392678 -0.067036
C26   C     C_R   0.384560 0.643830 0.607245 -0.066790
C27   C     C_R   0.627197 0.297237 0.356399 -0.172238
C28   C     C_R   0.372678 0.797246 0.643452 -0.171629
H11   H     H_    0.604989 0.427604 0.357437 0.122020
H12   H     H_    0.394889 0.927732 0.642430 0.121993
C29   C     C_R   0.666716 0.282734 0.316839 -0.176011
C30   C     C_R   0.333076 0.782739 0.682911 -0.175752
H13   H     H_    0.674023 0.401603 0.288135 0.116650
H14   H     H_    0.325719 0.901709 0.711565 0.116419
C31   C     C_R   0.696038 0.116180 0.313383 0.115550
C32   C     C_R   0.303730 0.616061 0.686331 0.116064
C33   C     C_R   0.642739 0.151177 0.796490 -0.166089
C34   C     C_R   0.357912 0.633244 0.203544 -0.166059
H15   H     H_    0.556137 0.182883 0.731821 0.104737
H16   H     H_    0.444590 0.664599 0.268150 0.104398
H17   H     H_    0.727207 0.125934 0.909857 0.117940
H18   H     H_    0.273663 0.598425 0.090328 0.118055
H19   H     H_    0.627812 0.163603 0.841626 0.113533
H20   H     H_    0.373132 0.636774 0.158436 0.113515
C35   C     C_R   0.619265 0.146422 0.674761 -0.039290
C36   C     C_R   0.380876 0.644800 0.325188 -0.038948
C37   C     C_R   0.906363 0.048085 0.764006 0.263748
C38   C     C_R   0.093309 0.561077 0.235919 0.264303
C39   C     C_R   0.866060 0.053343 0.699067 0.351063
C40   C     C_R   0.133337 0.576276 0.300791 0.346100
C41   C     C_R   0.806110 0.068298 0.692882 -0.295887
C42   C     C_R   0.193397 0.586139 0.307120 -0.295265
C43   C     C_R   0.783290 0.084268 0.748940 0.020606
C44   C     C_R   0.216606 0.588566 0.251117 0.020482
C45   C     C_R   0.823282 0.076725 0.814365 0.015894
C46   C     C_R   0.176814 0.573756 0.185739 0.014904
C47   C     C_R   0.721780 0.108565 0.741886 0.116023
C48   C     C_R   0.278288 0.607728 0.258152 0.115997
C49   C     C_R   0.702220 0.124536 0.801053 0.137615
C50   C     C_R   0.298213 0.612176 0.199020 0.137529
C51   C     C_R   0.742037 0.114492 0.864613 -0.201168
C52   C     C_R   0.258560 0.595793 0.135536 -0.200770
C53   C     C_R   0.801331 0.090839 0.871276 -0.147038
C54   C     C_R   0.199101 0.576583 0.128897 -0.147159
C55   C     C_R   0.678746 0.119438 0.678514 -0.207406
C56   C     C_R   0.321174 0.623846 0.321466 -0.207664
C57   C     C_R   0.601772 0.162480 0.733996 -0.167837
C58   C     C_R   0.398751 0.649579 0.265978 -0.167799
C59   C     C_R   0.884480 0.056726 0.821976 -0.268018
C60   C     C_R   0.115469 0.558553 0.178080 -0.266514
H21   H     H_    0.689603 0.108393 0.631144 0.104605
H22   H     H_    0.310098 0.620100 0.368834 0.104357
H23   H     H_    0.777669 0.067936 0.642691 0.184458
H24   H     H_    0.221576 0.593725 0.357369 0.184591
H25   H     H_    0.829907 0.085048 0.921905 0.083288
H26   H     H_    0.170673 0.565135 0.078324 0.083633
O11   O     O_R   0.053190 0.709680 0.082610 -0.527033
O12   O     O_R   0.946810 0.209680 0.917390 -0.527368
O13   O     O_R   0.057740 0.380240 0.950340 -0.535782
O14   O     O_R   0.942260 0.880240 0.049660 -0.535538
C61   C     C_R   0.071348 0.548887 0.932384 0.684203
C62   C     C_R   0.928571 0.048868 0.067524 0.689580
O15   O     O_R   0.060000 0.379940 0.084150 -0.531866
O16   O     O_R   0.940000 0.879940 0.915850 -0.533195
O17   O     O_R   0.949110 0.210100 0.052140 -0.522717
O18   O     O_R   0.050890 0.710100 0.947860 -0.522810
C63   C     C_R   0.074198 0.548710 0.109632 0.812686
C64   C     C_R   0.925767 0.048426 0.890394 0.810504
O19   O     O_3   0.963630 0.543720 0.989330 -0.376992
O20   O     O_3   0.036370 0.043720 0.010670 -0.375930
V3    V     V_3+5 0.006750 0.268680 0.001980 1.534685
V4    V     V_3+5 0.993250 0.768680 0.998020 1.534230
S1    S     S_3+6 0.983621 0.043520 0.772406 0.049659
O21   O     O_2   0.002062 0.232053 0.755130 -0.298599
O22   O     O_2   0.019240 0.997339 0.842350 -0.374434
O23   O     O_3   0.000206 0.887518 0.719883 -0.406923
H27   H     H_    0.992221 0.765675 0.737625 0.357747
S2    S     S_3+6 0.016004 0.557540 0.226993 0.047487
O24   O     O_2   0.996693 0.751188 0.236629 -0.304791
O25   O     O_2   0.981297 0.491513 0.158962 -0.373354
O26   O     O_3   0.999323 0.419258 0.284739 -0.406940
H28   H     H_    0.007970 0.292310 0.271960 0.359279
S3    S     S_3+6 0.887114 0.037711 0.622380 0.101846
O27   O     O_2   0.904304 0.841489 0.612939 -0.269782
O28   O     O_2   0.837152 0.088950 0.563124 -0.350897
O29   O     O_3   0.943570 0.178447 0.622902 -0.390710
H29   H     H_    0.928122 0.305218 0.624478 0.368223
S4    S     S_3+6 0.111768 0.582794 0.377289 0.102136
O30   O     O_2   0.094901 0.391003 0.393172 -0.269844
O31   O     O_2   0.161352 0.647327 0.434846 -0.346413
O32   O     O_3   0.054931 0.726004 0.371435 -0.391514
H30   H     H_    0.070056 0.850699 0.365212 0.364401
C65   C     C_3   0.715420 0.777752 0.348246 -0.437680
C66   C     C_3   0.778779 0.781120 0.391837 -0.265891
C67   C     C_3   0.808474 0.594941 0.389313 -0.627262
H31   H     H_    0.785058 0.483152 0.408471 0.231621
H32   H     H_    0.809061 0.562088 0.336789 0.218569
H33   H     H_    0.854190 0.600811 0.421287 0.265563
H34   H     H_    0.803920 0.890479 0.373971 0.224764
H35   H     H_    0.779553 0.812225 0.444950 0.241175
H36   H     H_    0.691764 0.666066 0.367104 0.178128
H37   H     H_    0.713848 0.742636 0.295230 0.175212
C68   C     C_3   0.284417 0.277328 0.651527 -0.435622
C69   C     C_3   0.221070 0.280152 0.607903 -0.271060
C70   C     C_3   0.191449 0.093571 0.610211 -0.622274
H38   H     H_    0.214906 0.982217 0.590914 0.233876
H39   H     H_    0.190882 0.060336 0.662698 0.218062
H40   H     H_    0.145728 0.099069 0.578248 0.265331
H41   H     H_    0.195871 0.389069 0.625873 0.225279
H42   H     H_    0.220299 0.311598 0.554828 0.236449
H43   H     H_    0.308093 0.165723 0.632687 0.178095
H44   H     H_    0.285961 0.242408 0.704535 0.174818

loop_
_geom_bond_atom_site_label_1
_geom_bond_atom_site_label_2
_ccdc_geom_bond_type
O12   C64   A    
C11   H5    S    
C40   C42   A    
C21   C23   A    
C70   H38   S    
O1    C3    A    
O2    C4    A    
O29   H29   S    
C22   C32   A    
C2    O7    A    
C47   C55   A    
C68   C69   S    
O26   H28   S    
C25   C27   A    
O5    C3    A    
C67   H32   S    
C28   C30   A    
C42   C44   A    
O16   V4    S    
C14   C16   A    
C59   C64   S    
O15   V3    S    
C70   H39   S    
C44   C46   A    
C1    C36   S    
O16   C64   A    
C60   C63   S    
S1    O21   D    
O11   C63   A    
H16   C58   S    
C35   C57   A    
O13   V3    S    
C33   C57   A    
O18   V4    S    
C37   C39   A    
O23   H27   S    
H18   C52   S    
C66   H35   S    
C34   C50   A    
O17   V3    S    
C38   S2    S    
C12   H6    S    
S1    O22   D    
S3    O29   S    
C36   C58   A    
C13   H7    S    
C61   O18   A    
S2    O26   S    
C68   H43   S    
C46   C54   A    
C8    H4    S    
C26   C28   A    
C67   H31   S    
C34   H20   S    
O6    V2    S    
C41   C43   A    
C3    C26   S    
C22   C24   A    
O11   V4    S    
C4    C25   S    
O20   V3    S    
C49   C51   A    
H15   C57   S    
C56   H22   S    
C29   H13   S    
C67   H33   S    
C30   H14   S    
C20   C32   S    
C11   C13   A    
C42   H24   S    
C65   C66   S    
C70   H40   S    
O4    C2    A    
C7    C9    A    
C39   C41   A    
C29   C31   A    
C24   H10   S    
C27   H11   S    
C5    C7    A    
H17   C51   S    
C14   H8    S    
O4    V2    S    
S4    O31   D    
C66   H34   S    
O14   V4    S    
C10   C61   S    
C43   C45   A    
C28   H12   S    
C12   C14   A    
O6    C4    A    
S1    O23   S    
O1    V2    S    
O14   C62   A    
O2    V1    S    
C23   H9    S    
C69   H42   S    
C68   H44   S    
C48   C50   A    
C65   H37   S    
C51   C53   A    
C50   C52   A    
C7    H3    S    
S3    O27   D    
C36   C56   A    
C13   C15   A    
S4    O32   S    
C44   C48   A    
C41   H23   S    
C21   C65   S    
O3    V1    S    
S2    O24   D    
S2    O25   D    
C47   C49   A    
C69   C70   S    
C30   C32   A    
O15   C63   A    
C45   C59   A    
C15   C17   S    
C6    C8    A    
C10   C12   A    
C38   C60   A    
O12   V3    S    
C33   C49   A    
C52   C54   A    
C66   C67   S    
O3    C1    A    
C38   C40   A    
C9    C62   S    
C40   S4    S    
C34   C58   A    
C9    C11   A    
C37   S1    S    
C35   C55   A    
O13   C61   A    
C46   C60   A    
C16   C18   S    
S4    O30   D    
O7    V1    S    
C21   C31   A    
C1    O8    A    
C48   C56   A    
C2    C35   S    
C33   H19   S    
C18   C20   T    
C6    C16   A    
O32   H30   S    
C23   C25   A    
C27   C29   A    
C55   H21   S    
O5    V1    S    
C65   H36   S    
C5    H1    S    
O19   V4    S    
C6    H2    S    
C54   H26   S    
C53   H25   S    
C45   C53   A    
C69   H41   S    
C17   C19   T    
C8    C10   A    
O9    V2    S    
S3    O28   D    
O10   V1    S    
C39   S3    S    
O8    V2    S    
C5    C15   A    
C37   C59   A    
C22   C68   S    
C43   C47   A    
C62   O17   A    
C24   C26   A    
C19   C31   S    
