data_str_m2_o1_o24_f0_pcu.sym.185
_audit_creation_date              2012-12-10T18:00:18-0500
_audit_creation_method            fapswitch 2.2
_symmetry_space_group_name_H-M    P1
_symmetry_Int_Tables_number       1
_space_group_crystal_system       triclinic
_cell_length_a                    10.81225
_cell_length_b                    9.776648
_cell_length_c                    10.569873
_cell_angle_alpha                 90.689741
_cell_angle_beta                  95.488835
_cell_angle_gamma                 91.294426
_cell_volume                      1111.79545746

loop_
_atom_site_label
_atom_site_type_symbol
_atom_type_description
_atom_site_fract_x
_atom_site_fract_y
_atom_site_fract_z
_atom_type_partial_charge
C1    C     C_R   0.872141 0.500410 0.505579 -0.010238
C2    C     C_R   0.129657 0.496652 0.509011 -0.003735
C3    C     C_R   0.263182 0.498741 0.502893 0.751565
C4    C     C_R   0.737414 0.500940 0.501815 0.742136
C5    C     C_R   0.501904 0.499448 0.260176 0.751524
C6    C     C_R   0.500083 0.500748 0.739904 0.745602
C7    C     C_3   0.565814 0.611390 0.049669 -0.150891
C8    C     C_3   0.439199 0.389883 0.950235 -0.147462
C9    C     C_3   0.619904 0.498842 0.968479 -0.189673
C10   C     C_3   0.384919 0.502295 0.031280 -0.188849
C11   C     C_3   0.447187 0.614706 0.955839 -0.156873
C12   C     C_3   0.557688 0.386460 0.044086 -0.142163
C13   C     C_3   0.501373 0.502181 0.877150 0.036268
C14   C     C_3   0.503333 0.498883 0.122929 0.035877
C15   C     C_R   0.432157 0.068788 0.406031 0.123767
C16   C     C_R   0.585474 0.931013 0.577537 0.132944
C17   C     C_R   0.568801 0.075162 0.593813 0.138979
C18   C     C_R   0.413570 0.924424 0.423150 0.136118
C19   C     C_R   0.057967 0.380472 0.469441 -0.190400
C20   C     C_R   0.944658 0.612920 0.553879 -0.205525
C21   C     C_R   0.929868 0.382912 0.465444 -0.186318
C22   C     C_R   0.072589 0.611681 0.554695 -0.184270
Cu1   Cu    Cu3+1 0.500000 0.640660 0.500000 0.915532
Cu2   Cu    Cu3+1 0.500000 0.359340 0.500000 0.915795
H1    H     H_    0.402117 0.708118 0.916783 0.129709
H2    H     H_    0.603160 0.293127 0.082684 0.118538
H3    H     H_    0.617913 0.702047 0.093215 0.136824
H4    H     H_    0.388536 0.299977 0.903725 0.121457
H5    H     H_    0.715743 0.497519 0.939137 0.127734
H6    H     H_    0.288953 0.503060 0.060327 0.128499
H7    H     H_    0.099948 0.288270 0.440700 0.133130
H8    H     H_    0.904418 0.700426 0.594024 0.145213
H9    H     H_    0.876280 0.292935 0.430556 0.143312
H10   H     H_    0.126645 0.699619 0.593354 0.134353
N1    N     N_R   0.500000 0.852070 0.500000 -0.187472
N2    N     N_R   0.500000 0.147930 0.500000 -0.186294
O1    O     O_R   0.319640 0.618740 0.499990 -0.590960
O2    O     O_R   0.680360 0.381260 0.500010 -0.591771
O3    O     O_R   0.680360 0.618740 0.500010 -0.587509
O4    O     O_R   0.319640 0.381260 0.499990 -0.585745
O5    O     O_R   0.499970 0.618770 0.316850 -0.585458
O6    O     O_R   0.500030 0.381230 0.683150 -0.588746
O7    O     O_R   0.500030 0.618770 0.683150 -0.591475
O8    O     O_R   0.499970 0.381230 0.316850 -0.589622
C23   C     C_3   0.391998 0.121032 0.272693 -0.334947
C24   C     C_3   0.271515 0.203338 0.260064 -0.283984
C25   C     C_3   0.202944 0.190904 0.127183 -0.932687
H11   H     H_    0.264102 0.225080 0.055224 0.260448
H12   H     H_    0.172603 0.083619 0.105278 0.259250
H13   H     H_    0.119584 0.255713 0.121276 0.248335
H14   H     H_    0.208252 0.166258 0.328295 0.191679
H15   H     H_    0.290034 0.313209 0.279180 0.243361
H16   H     H_    0.470091 0.171861 0.230899 0.196790
H17   H     H_    0.376938 0.031870 0.207014 0.168411
C26   C     C_3   0.711074 0.877529 0.629726 -0.368621
C27   C     C_3   0.710275 0.788328 0.749565 -0.275105
C28   C     C_3   0.821442 0.817260 0.847529 -0.954281
H18   H     H_    0.909340 0.824650 0.801339 0.259404
H19   H     H_    0.807766 0.912949 0.900941 0.261306
H20   H     H_    0.829220 0.733107 0.917284 0.248529
H21   H     H_    0.624500 0.804699 0.797312 0.222916
H22   H     H_    0.715301 0.679213 0.722742 0.233432
H23   H     H_    0.753503 0.830408 0.550541 0.191298
H24   H     H_    0.778053 0.963938 0.651577 0.183107
C29   C     C_3   0.619974 0.136154 0.723775 -0.348586
C30   C     C_3   0.738567 0.227765 0.724002 -0.262517
C31   C     C_3   0.827486 0.213769 0.844212 -0.948601
H25   H     H_    0.776312 0.217137 0.930412 0.257957
H26   H     H_    0.878539 0.117149 0.840643 0.263809
H27   H     H_    0.897260 0.299358 0.850387 0.250961
H28   H     H_    0.789779 0.203350 0.640700 0.214642
H29   H     H_    0.714032 0.336575 0.721055 0.236066
H30   H     H_    0.546001 0.182766 0.773235 0.193216
H31   H     H_    0.641653 0.051742 0.790654 0.181013
C32   C     C_3   0.283890 0.866306 0.376107 -0.331093
C33   C     C_3   0.272317 0.773083 0.256273 -0.283716
C34   C     C_3   0.139461 0.767388 0.191896 -0.929241
H32   H     H_    0.074627 0.726788 0.258631 0.268330
H33   H     H_    0.109389 0.870174 0.160790 0.258568
H34   H     H_    0.134406 0.698644 0.107048 0.243034
H35   H     H_    0.336857 0.807267 0.186848 0.202256
H36   H     H_    0.292463 0.666593 0.280786 0.247690
H37   H     H_    0.238375 0.822450 0.455392 0.194890
H38   H     H_    0.221113 0.951771 0.354595 0.169257

loop_
_geom_bond_atom_site_label_1
_geom_bond_atom_site_label_2
_ccdc_geom_bond_type
C15   C18   A    
C26   C27   S    
C1    C21   A    
C18   C32   S    
Cu2   O6    S    
C19   H7    S    
C7    H3    S    
C25   H12   S    
C34   H32   S    
C7    C11   S    
C8    C13   S    
C19   C21   A    
C16   N1    A    
C32   H38   S    
C28   H19   S    
C21   H9    S    
C11   H1    S    
C24   H15   S    
Cu1   O7    S    
C27   C28   S    
C9    C13   S    
C7    C14   S    
C30   H29   S    
C30   H28   S    
C16   C17   A    
C26   H23   S    
C2    C22   A    
Cu2   O2    S    
Cu1   Cu2   S    
C17   N2    A    
C18   N1    A    
C9    H5    S    
C30   C31   S    
C23   H16   S    
C25   H13   S    
C34   H33   S    
C22   H10   S    
C31   H25   S    
C33   C34   S    
C10   C14   S    
C29   H30   S    
C33   H36   S    
C28   H20   S    
Cu1   O1    S    
C24   H14   S    
C29   H31   S    
C12   H2    S    
C31   H26   S    
C32   C33   S    
C10   H6    S    
C25   H11   S    
C4    O3    A    
C8    C12   S    
C26   H24   S    
Cu2   N2    S    
C5    C14   S    
C5    O8    A    
C20   C22   A    
C3    O4    A    
Cu1   N1    S    
C6    O7    A    
Cu2   O8    S    
C27   H22   S    
C15   C23   S    
C15   N2    A    
C20   H8    S    
C34   H34   S    
C7    C9    S    
C5    O5    A    
C24   C25   S    
C1    C20   A    
C2    C19   A    
C12   C14   S    
C33   H35   S    
C23   H17   S    
C17   C29   S    
Cu1   O5    S    
C1    C4    S    
C31   H27   S    
C2    C3    S    
C16   C26   S    
C6    C13   S    
C11   C13   S    
C32   H37   S    
C28   H18   S    
Cu1   O3    S    
Cu2   O4    S    
C9    C12   S    
C10   C11   S    
C23   C24   S    
C3    O1    A    
C8    H4    S    
C8    C10   S    
C29   C30   S    
C6    O6    A    
C27   H21   S    
C4    O2    A    
