data_str_m4_o4_o15_f0_acs.sym.35
_audit_creation_date              2012-12-11T15:44:56-0500
_audit_creation_method            fapswitch 2.2
_symmetry_space_group_name_H-M    P1
_symmetry_Int_Tables_number       1
_space_group_crystal_system       triclinic
_cell_length_a                    18.972091
_cell_length_b                    10.954916
_cell_length_c                    18.709461
_cell_angle_alpha                 90.537248
_cell_angle_beta                  89.901568
_cell_angle_gamma                 90.050721
_cell_volume                      3888.35250296

loop_
_atom_site_label
_atom_site_type_symbol
_atom_type_description
_atom_site_fract_x
_atom_site_fract_y
_atom_site_fract_z
_atom_type_partial_charge
C1    C     C_R   0.760012 0.535621 0.646673 0.539433
C2    C     C_R   0.173783 0.087886 0.552525 -0.161845
C3    C     C_R   0.488853 0.948225 0.966460 0.022083
C4    C     C_R   0.985129 0.229636 0.966186 -0.163570
C5    C     C_R   0.986259 0.231277 0.041103 -0.174292
C6    C     C_R   0.485129 0.729636 0.966186 -0.163570
C7    C     C_R   0.486259 0.731277 0.041103 -0.174292
C8    C     C_3   0.033200 0.565650 0.038944 -0.266289
C9    C     C_3   0.032288 0.559925 0.958210 -0.285283
C10   C     C_3   0.533200 0.065650 0.038944 -0.266289
C11   C     C_3   0.532288 0.059925 0.958210 -0.285283
C12   C     C_R   0.774367 0.481294 0.859355 0.568671
C13   C     C_R   0.219223 0.508361 0.479670 -0.125214
C14   C     C_R   0.239342 0.529691 0.146864 0.544092
C15   C     C_R   0.274367 0.981294 0.859355 0.568671
C16   C     C_R   0.739342 0.029691 0.146864 0.544092
C17   C     C_R   0.772024 0.126703 0.853029 0.551574
C18   C     C_R   0.228209 0.122515 0.147816 0.550304
C19   C     C_R   0.272024 0.626703 0.853029 0.551574
C20   C     C_R   0.728209 0.622515 0.147816 0.550304
C21   C     C_R   0.969573 0.346691 0.854079 0.538707
C22   C     C_R   0.028955 0.346925 0.147009 0.545058
C23   C     C_R   0.469573 0.846691 0.854079 0.538707
C24   C     C_R   0.673783 0.587886 0.552525 -0.161845
C25   C     C_R   0.528955 0.846925 0.147009 0.545058
C26   C     C_R   0.747585 0.079361 0.424545 0.034831
C27   C     C_R   0.240661 0.106946 0.583687 0.003567
C28   C     C_R   0.247585 0.579361 0.424545 0.034831
C29   C     C_R   0.740661 0.606946 0.583687 0.003568
C30   C     C_R   0.796859 0.169516 0.440326 0.008891
C31   C     C_R   0.289485 0.176416 0.545513 0.011750
C32   C     C_R   0.296859 0.669516 0.440326 0.008891
C33   C     C_R   0.789485 0.676416 0.545513 0.011750
C34   C     C_R   0.810657 0.199698 0.510834 0.012985
C35   C     C_3   0.796775 0.300150 0.418294 -0.279822
C36   C     C_R   0.277991 0.202048 0.473989 0.025889
C37   C     C_R   0.310657 0.699698 0.510834 0.012985
C38   C     C_R   0.777991 0.702048 0.473989 0.025889
C39   C     C_3   0.861034 0.824227 0.904988 -0.390350
C40   C     C_3   0.071907 0.930464 0.067176 -0.405978
C41   C     C_3   0.361034 0.324227 0.904988 -0.390350
C42   C     C_3   0.571907 0.430464 0.067176 -0.405978
C43   C     C_3   0.366669 0.159468 0.534292 -0.256884
C44   C     C_3   0.296775 0.800150 0.418294 -0.279822
C45   C     C_3   0.866669 0.659468 0.534292 -0.256884
C46   C     C_3   0.811692 0.332808 0.495666 -0.280769
C47   C     C_3   0.353744 0.183939 0.455625 -0.262693
C48   C     C_3   0.311692 0.832808 0.495666 -0.280769
C49   C     C_R   0.239284 0.535192 0.353078 0.535958
C50   C     C_3   0.853744 0.683939 0.455625 -0.262693
C51   C     C_R   0.777059 0.138156 0.566109 0.033233
C52   C     C_R   0.217195 0.161111 0.438682 0.000345
C53   C     C_R   0.277059 0.638156 0.566109 0.033233
C54   C     C_R   0.717195 0.661111 0.438682 0.000345
C55   C     C_R   0.003590 0.347359 0.429174 -0.045629
C56   C     C_R   0.010824 0.329392 0.579141 -0.041843
C57   C     C_R   0.503590 0.847360 0.429174 -0.045629
C58   C     C_R   0.510824 0.829392 0.579141 -0.041843
C59   C     C_R   0.967395 0.131431 0.421859 -0.085386
C60   C     C_R   0.260012 0.035621 0.646673 0.539433
C61   C     C_R   0.992955 0.105624 0.567262 -0.083415
C62   C     C_R   0.467395 0.631431 0.421859 -0.085386
C63   C     C_R   0.492955 0.605624 0.567262 -0.083415
C64   C     C_R   0.960265 0.017754 0.453546 -0.120340
C65   C     C_R   0.974415 0.004284 0.525836 -0.131528
C66   C     C_R   0.460265 0.517754 0.453546 -0.120340
C67   C     C_R   0.474415 0.504284 0.525836 -0.131528
C68   C     C_R   0.997836 0.223229 0.536892 0.007676
C69   C     C_R   0.989850 0.234230 0.462063 -0.007737
C70   C     C_R   0.497836 0.723229 0.536892 0.007676
C71   C     C_R   0.739284 0.035192 0.353078 0.535958
C72   C     C_R   0.489850 0.734230 0.462063 -0.007737
C73   C     C_R   0.032055 0.437535 0.545844 -0.000345
C74   C     C_R   0.017213 0.453094 0.473032 0.004299
C75   C     C_R   0.532055 0.937535 0.545844 -0.000345
C76   C     C_R   0.517213 0.953094 0.473032 0.004299
C77   C     C_R   0.791812 0.170730 0.638840 0.566182
C78   C     C_R   0.208137 0.172683 0.361309 0.564943
C79   C     C_R   0.291812 0.670730 0.638840 0.566182
C80   C     C_R   0.708137 0.672683 0.361309 0.564943
C81   C     C_R   0.062139 0.534778 0.585743 -0.082954
C82   C     C_R   0.734598 0.036901 0.550521 -0.128158
C83   C     C_R   0.017060 0.574943 0.447267 -0.075413
C84   C     C_R   0.562139 0.034778 0.585743 -0.082954
C85   C     C_R   0.517060 0.074943 0.447267 -0.075414
C86   C     C_R   0.068946 0.650441 0.556432 -0.117437
C87   C     C_R   0.044027 0.671431 0.488004 -0.132197
C88   C     C_R   0.568946 0.150441 0.556432 -0.117437
C89   C     C_R   0.544027 0.171431 0.488004 -0.132197
C90   C     C_R   0.746783 0.058600 0.071977 0.015785
C91   C     C_R   0.269689 0.002658 0.936368 0.001819
C92   C     C_R   0.246783 0.558600 0.071977 0.015785
C93   C     C_R   0.162467 0.113719 0.480473 -0.167043
C94   C     C_R   0.769689 0.502658 0.936368 0.001819
C95   C     C_R   0.779430 0.971967 0.027656 0.028271
C96   C     C_R   0.208329 0.969403 0.971934 0.003405
C97   C     C_R   0.279429 0.471967 0.027656 0.028271
C98   C     C_R   0.708329 0.469403 0.971934 0.003405
C99   C     C_R   0.782290 0.987325 0.954940 0.029256
C100  C     C_R   0.198960 0.994440 0.043384 0.043291
C101  C     C_R   0.282290 0.487325 0.954940 0.029256
C102  C     C_R   0.698960 0.494441 0.043384 0.043291
C103  C     C_R   0.707481 0.163374 0.965927 -0.172117
C104  C     C_R   0.234598 0.536901 0.550521 -0.128158
C105  C     C_R   0.316326 0.078647 0.049975 -0.164924
C106  C     C_R   0.207481 0.663374 0.965927 -0.172117
C107  C     C_R   0.816326 0.578647 0.049975 -0.164924
C108  C     C_R   0.707581 0.151475 0.040358 -0.178111
C109  C     C_R   0.326063 0.048781 0.977261 -0.168475
C110  C     C_R   0.207581 0.651475 0.040358 -0.178111
C111  C     C_R   0.826063 0.548781 0.977261 -0.168475
C112  C     C_3   0.852613 0.921672 0.030360 -0.244866
C113  C     C_3   0.133400 0.995964 0.953187 -0.246379
C114  C     C_3   0.352613 0.421672 0.030360 -0.244866
C115  C     C_R   0.662466 0.613719 0.480473 -0.167043
C116  C     C_3   0.633400 0.495964 0.953187 -0.246379
C117  C     C_3   0.856084 0.940497 0.950107 -0.140836
C118  C     C_3   0.122079 0.021809 0.031910 -0.124716
C119  C     C_3   0.356084 0.440497 0.950107 -0.140836
C120  C     C_3   0.622078 0.521810 0.031910 -0.124717
C121  C     C_R   0.749884 0.086554 0.923051 0.005488
C122  C     C_R   0.249946 0.061284 0.081675 0.007278
C123  C     C_R   0.249884 0.586554 0.923051 0.005488
C124  C     C_R   0.749946 0.561284 0.081675 0.007278
C125  C     C_R   0.973924 0.344048 0.648428 0.524462
C126  C     C_R   0.719223 0.008361 0.479670 -0.125214
C127  C     C_R   0.029062 0.347949 0.354142 0.521615
C128  C     C_R   0.473924 0.844048 0.648428 0.524462
C129  C     C_R   0.529062 0.847949 0.354142 0.521615
C130  C     C_R   0.995698 0.342379 0.077629 0.019825
C131  C     C_R   0.990136 0.339686 0.928131 0.018503
C132  C     C_R   0.495698 0.842379 0.077629 0.019825
C133  C     C_R   0.490136 0.839686 0.928131 0.018503
C134  C     C_R   0.989661 0.450956 0.039210 0.025754
C135  C     C_R   0.988853 0.448225 0.966460 0.022083
C136  C     C_R   0.489661 0.950956 0.039210 0.025754
Cr1   Cr    Cr6+3 0.885860 0.491680 0.749630 0.995808
Cr2   Cr    Cr6+3 0.112430 0.179310 0.249850 0.990298
Cr3   Cr    Cr6+3 0.387570 0.679310 0.750150 0.989327
Cr4   Cr    Cr6+3 0.612430 0.679310 0.249850 0.990298
Cr5   Cr    Cr6+3 0.114140 0.491680 0.250370 0.997858
Cr6   Cr    Cr6+3 0.385860 0.991680 0.749630 0.995808
Cr7   Cr    Cr6+3 0.614140 0.991680 0.250370 0.997858
Cr8   Cr    Cr6+3 0.730490 0.332970 0.748720 0.989580
Cr9   Cr    Cr6+3 0.269510 0.332970 0.251280 0.999806
Cr10  Cr    Cr6+3 0.230490 0.832970 0.748720 0.989580
Cr11  Cr    Cr6+3 0.769510 0.832970 0.251280 0.999806
Cr12  Cr    Cr6+3 0.887570 0.179310 0.750150 0.989327
H1    H     H_    0.712184 0.982461 0.592935 0.129431
H2    H     H_    0.358426 0.122782 0.079393 0.120675
H3    H     H_    0.178590 0.737647 0.942545 0.141667
H4    H     H_    0.858426 0.622782 0.079393 0.120675
H5    H     H_    0.678205 0.214659 0.073422 0.126273
H6    H     H_    0.375040 0.071701 0.951590 0.142715
H7    H     H_    0.178205 0.714659 0.073422 0.126273
H8    H     H_    0.875040 0.571701 0.951590 0.142715
H9    H     H_    0.853295 0.824957 0.046864 0.146333
H10   H     H_    0.105168 0.914301 0.932082 0.135362
H11   H     H_    0.353296 0.324957 0.046864 0.146333
H12   H     H_    0.113117 0.086997 0.456198 0.157699
H13   H     H_    0.605168 0.414301 0.932082 0.135362
H14   H     H_    0.889112 0.982054 0.060820 0.120297
H15   H     H_    0.127815 0.079031 0.919919 0.142168
H16   H     H_    0.389112 0.482054 0.060820 0.120297
H17   H     H_    0.627815 0.579031 0.919919 0.142168
H18   H     H_    0.895187 0.010541 0.935065 0.162031
H19   H     H_    0.109565 0.118844 0.043536 0.166095
H20   H     H_    0.395186 0.510541 0.935065 0.162031
H21   H     H_    0.609565 0.618844 0.043536 0.166095
H22   H     H_    0.982340 0.143266 0.938152 0.122162
H23   H     H_    0.212184 0.482461 0.592935 0.129431
H24   H     H_    0.986244 0.146342 0.069891 0.122195
H25   H     H_    0.482340 0.643266 0.938152 0.122162
H26   H     H_    0.486244 0.646342 0.069891 0.122195
H27   H     H_    0.086431 0.551415 0.061164 0.180628
H28   H     H_    0.002785 0.636064 0.933628 0.132686
H29   H     H_    0.586431 0.051415 0.061164 0.180628
H30   H     H_    0.502785 0.136064 0.933628 0.132686
H31   H     H_    0.003979 0.645258 0.061321 0.123665
H32   H     H_    0.084444 0.539713 0.933807 0.146499
H33   H     H_    0.503979 0.145258 0.061321 0.123665
H34   H     H_    0.613117 0.586997 0.456198 0.157699
H35   H     H_    0.584444 0.039713 0.933807 0.146499
H36   H     H_    0.685392 0.931040 0.467763 0.122092
H37   H     H_    0.132909 0.039418 0.580949 0.140276
H38   H     H_    0.185392 0.431040 0.467763 0.122092
H39   H     H_    0.632909 0.539418 0.580949 0.140276
H40   H     H_    0.244229 0.831636 0.399709 0.154770
H41   H     H_    0.884969 0.565476 0.545236 0.159364
H42   H     H_    0.744229 0.331636 0.399709 0.154770
H43   H     H_    0.384969 0.065476 0.545236 0.159364
H44   H     H_    0.841389 0.321674 0.381920 0.134783
H45   H     H_    0.090994 0.724683 0.587792 0.124139
H46   H     H_    0.397823 0.232332 0.561220 0.142238
H47   H     H_    0.341389 0.821674 0.381920 0.134783
H48   H     H_    0.897823 0.732333 0.561220 0.142238
H49   H     H_    0.864738 0.372687 0.503973 0.134875
H50   H     H_    0.378747 0.269070 0.436675 0.137804
H51   H     H_    0.364739 0.872687 0.503973 0.134875
H52   H     H_    0.878747 0.769070 0.436675 0.137804
H53   H     H_    0.767549 0.381982 0.521956 0.148602
H54   H     H_    0.362280 0.102336 0.420870 0.140069
H55   H     H_    0.267549 0.881982 0.521956 0.148602
H56   H     H_    0.045163 0.762751 0.466443 0.106552
H57   H     H_    0.862280 0.602336 0.420870 0.140069
H58   H     H_    0.944897 0.939906 0.421372 0.106605
H59   H     H_    0.971155 0.915155 0.549988 0.103693
H60   H     H_    0.444897 0.439905 0.421372 0.106604
H61   H     H_    0.471155 0.415155 0.549988 0.103692
H62   H     H_    0.953755 0.138472 0.365940 0.129878
H63   H     H_    0.006627 0.089567 0.622436 0.131317
H64   H     H_    0.453755 0.638472 0.365940 0.129878
H65   H     H_    0.506627 0.589567 0.622436 0.131317
H66   H     H_    0.993521 0.599039 0.396846 0.137897
H67   H     H_    0.590994 0.224684 0.587792 0.124139
H68   H     H_    0.079283 0.521517 0.640334 0.126509
H69   H     H_    0.493521 0.099039 0.396846 0.137897
H70   H     H_    0.579283 0.021517 0.640334 0.126509
H71   H     H_    0.861943 0.847976 0.847457 0.163124
H72   H     H_    0.910479 0.775567 0.917841 0.113240
H73   H     H_    0.814939 0.764229 0.914506 0.164595
H74   H     H_    0.017678 0.944658 0.046971 0.109953
H75   H     H_    0.086619 0.835137 0.054125 0.127104
H76   H     H_    0.071821 0.943191 0.126039 0.166489
H77   H     H_    0.361943 0.347976 0.847457 0.163124
H78   H     H_    0.545163 0.262751 0.466443 0.106552
H79   H     H_    0.410479 0.275567 0.917841 0.113240
H80   H     H_    0.314939 0.264229 0.914506 0.164595
H81   H     H_    0.517678 0.444658 0.046971 0.109953
H82   H     H_    0.586619 0.335137 0.054125 0.127104
H83   H     H_    0.571821 0.443191 0.126039 0.166489
H84   H     H_    0.678590 0.237647 0.942545 0.141667
O1    O     O_R   0.957020 0.451640 0.669920 -0.517045
O2    O     O_R   0.168040 0.093290 0.169870 -0.520735
O3    O     O_R   0.331960 0.593290 0.830130 -0.522586
O4    O     O_R   0.668040 0.593290 0.169870 -0.520735
O5    O     O_R   0.945600 0.250580 0.824860 -0.511026
O6    O     O_R   0.054400 0.250580 0.175140 -0.509247
O7    O     O_R   0.445600 0.750580 0.824860 -0.511026
O8    O     O_R   0.554400 0.750580 0.175140 -0.509247
O9    O     O_3   0.834640 0.334650 0.749500 -0.277721
O10   O     O_3   0.165360 0.334650 0.250500 -0.259645
O11   O     O_3   0.334640 0.834650 0.749500 -0.277721
O12   O     O_R   0.042980 0.451640 0.330080 -0.525593
O13   O     O_3   0.665360 0.834650 0.250500 -0.259645
O14   O     O_R   0.821450 0.543440 0.674610 -0.492877
O15   O     O_R   0.178550 0.543440 0.325390 -0.498972
O16   O     O_R   0.321450 0.043440 0.674610 -0.492877
O17   O     O_R   0.678550 0.043440 0.325390 -0.498972
O18   O     O_R   0.715320 0.458650 0.668100 -0.533904
O19   O     O_R   0.284680 0.458650 0.331900 -0.527895
O20   O     O_R   0.215320 0.958650 0.668100 -0.533904
O21   O     O_R   0.784680 0.958650 0.331900 -0.527895
O22   O     O_R   0.737170 0.209590 0.674530 -0.509455
O23   O     O_R   0.457020 0.951640 0.669920 -0.517045
O24   O     O_R   0.262830 0.209590 0.325470 -0.501387
O25   O     O_R   0.237170 0.709590 0.674530 -0.509455
O26   O     O_R   0.762830 0.709590 0.325470 -0.501387
O27   O     O_R   0.832710 0.092740 0.669580 -0.511340
O28   O     O_R   0.167290 0.092740 0.330420 -0.521894
O29   O     O_R   0.332710 0.592740 0.669580 -0.511340
O30   O     O_R   0.667290 0.592740 0.330420 -0.521894
O31   O     O_R   0.946290 0.250060 0.676040 -0.518851
O32   O     O_R   0.053710 0.250060 0.323960 -0.519143
O33   O     O_R   0.446290 0.750060 0.676040 -0.518851
O34   O     O_R   0.542980 0.951640 0.330080 -0.525593
O35   O     O_R   0.553710 0.750060 0.323960 -0.519143
O36   O     O_R   0.956270 0.452200 0.830470 -0.526460
O37   O     O_R   0.043730 0.452200 0.169530 -0.524199
O38   O     O_R   0.456270 0.952200 0.830470 -0.526460
O39   O     O_R   0.543730 0.952200 0.169530 -0.524199
O40   O     O_R   0.820760 0.543950 0.823440 -0.507584
O41   O     O_R   0.179240 0.543950 0.176560 -0.510311
O42   O     O_R   0.320760 0.043950 0.823440 -0.507584
O43   O     O_R   0.679240 0.043950 0.176560 -0.510311
O44   O     O_R   0.714570 0.459210 0.828640 -0.522517
O45   O     O_R   0.736470 0.210100 0.823360 -0.519426
O46   O     O_R   0.285430 0.459210 0.171360 -0.520093
O47   O     O_R   0.214570 0.959210 0.828640 -0.522517
O48   O     O_R   0.785430 0.959210 0.171360 -0.520093
O49   O     O_R   0.263530 0.210100 0.176640 -0.499706
O50   O     O_R   0.236470 0.710100 0.823360 -0.519426
O51   O     O_R   0.763530 0.710100 0.176640 -0.499706
O52   O     O_R   0.831960 0.093290 0.830130 -0.522586

loop_
_geom_bond_atom_site_label_1
_geom_bond_atom_site_label_2
_ccdc_geom_bond_type
C35   H44   S    
C33   C45   S    
C40   C118  S    
C74   C83   A    
C8    H27   S    
C90   C95   A    
C48   H55   S    
C43   H46   S    
C57   C76   A    
C86   H45   S    
C95   C99   A    
C81   H68   S    
C29   C33   A    
C94   C111  A    
Cr4   O8    S    
C128  O23   A    
C9    H28   S    
C26   C126  A    
C91   C96   A    
C55   C74   A    
C108  H5    S    
C20   O4    A    
C128  O33   A    
C47   H50   S    
C106  H3    S    
C81   C86   A    
C59   H62   S    
C99   C121  A    
Cr1   O9    S    
C42   H83   S    
C14   O46   A    
C22   C130  S    
C26   C71   S    
C130  C134  A    
C107  C124  A    
C16   O43   A    
C73   C81   A    
Cr2   O28   S    
C48   H51   S    
C27   C31   A    
C28   C32   A    
C62   C66   A    
C58   C70   A    
C98   C102  A    
C75   C76   A    
Cr6   O38   S    
C117  H18   S    
C1    C29   S    
Cr4   O35   S    
C109  H6    S    
C7    C132  A    
C84   H70   S    
C59   C69   A    
C104  H23   S    
C5    C130  A    
C35   H42   S    
Cr3   O3    S    
C103  C121  A    
C87   H56   S    
C56   C73   A    
Cr7   O17   S    
C84   C88   A    
C4    C5    A    
C18   O2    A    
C6    C7    A    
Cr5   O10   S    
Cr8   O44   S    
C27   C60   S    
Cr11  O26   S    
C16   O48   A    
C45   C50   S    
C67   H61   S    
C3    C11   S    
C15   C91   S    
C42   H81   S    
C61   C65   A    
C88   C89   A    
C62   H64   S    
C31   C36   A    
C43   C47   S    
C76   C85   A    
C71   O17   A    
C129  O34   A    
C44   C48   S    
C21   O5    A    
C23   O38   A    
C58   C128  S    
Cr5   O41   S    
C89   H78   S    
Cr9   O49   S    
C19   C123  S    
C34   C51   A    
C4    H22   S    
C36   C47   S    
C24   H39   S    
Cr7   O39   S    
C39   H71   S    
C120  H21   S    
C113  H15   S    
C53   C104  A    
C118  H19   S    
C127  O32   A    
C3    C136  A    
C110  H7    S    
C17   O52   A    
C46   H53   S    
C82   C126  A    
Cr9   O24   S    
Cr8   O45   S    
C34   C46   S    
C20   O51   A    
Cr3   O11   S    
C114  C119  S    
C36   C52   A    
C37   C53   A    
C45   H48   S    
C66   C67   A    
Cr3   O33   S    
C41   H80   S    
Cr4   O30   S    
C92   C97   A    
Cr5   O12   S    
C30   C34   A    
C40   H75   S    
C8    C134  S    
C79   O25   A    
C116  H13   S    
C80   O30   A    
C56   C68   A    
Cr8   O22   S    
Cr11  O21   S    
C116  C120  S    
C47   H54   S    
C99   C117  S    
C28   C49   S    
C114  H16   S    
C132  C136  A    
C52   C93   A    
C25   O39   A    
C32   C37   A    
C55   C69   A    
C9    C135  S    
C22   O37   A    
C55   C127  S    
C26   C30   A    
Cr3   O29   S    
C83   H66   S    
C105  C109  A    
C23   O7    A    
C10   H29   S    
C107  C111  A    
Cr9   O19   S    
Cr2   O32   S    
C134  C135  A    
C65   H59   S    
C15   O47   A    
C2    H37   S    
C90   C108  A    
C92   C110  A    
C18   O49   A    
C96   C100  A    
Cr5   O15   S    
C5    H24   S    
Cr9   O10   S    
C20   C124  S    
C82   H1    S    
C10   C11   S    
C77   O27   A    
C78   O28   A    
C33   C38   A    
C97   C114  S    
C25   C132  S    
C17   O45   A    
C83   C87   A    
C16   C90   S    
C88   H67   S    
C73   C74   A    
C115  H34   S    
Cr11  O48   S    
C105  H2    S    
C6    C133  A    
C95   C112  S    
C112  C117  S    
Cr1   O36   S    
C102  C124  A    
C94   C98   A    
C7    H26   S    
C24   C29   A    
C71   O21   A    
C21   O36   A    
C68   C69   A    
C13   C28   A    
C2    C27   A    
Cr5   O37   S    
Cr10  O50   S    
Cr7   O43   S    
C12   C94   S    
C52   C78   S    
C54   C80   S    
C41   H77   S    
C112  H9    S    
C127  O12   A    
Cr12  O5    S    
C85   C89   A    
C86   C87   A    
C46   H49   S    
C39   C117  S    
C64   H58   S    
C40   H74   S    
C93   H12   S    
C51   C77   S    
Cr11  O51   S    
C38   C54   A    
C54   C115  A    
C125  O31   A    
C56   C125  S    
C41   C119  S    
C13   C104  A    
C49   O15   A    
C31   C43   S    
C42   H82   S    
C17   C121  S    
C79   O29   A    
C116  H17   S    
Cr2   O2    S    
C100  C118  S    
Cr12  O27   S    
C102  C120  S    
Cr8   O18   S    
C44   H47   S    
C13   H38   S    
C12   O40   A    
C19   O3    A    
C6    H25   S    
Cr7   O34   S    
C78   O24   A    
C64   C65   A    
C8    H31   S    
C57   C72   A    
C75   C84   A    
C49   O19   A    
Cr10  O20   S    
Cr4   O4    S    
C10   H33   S    
C39   H73   S    
C35   C46   S    
C119  H20   S    
C22   O6    A    
C41   H79   S    
C126  H36   S    
Cr9   O46   S    
C14   O41   A    
C42   C120  S    
C12   O44   A    
C59   C64   A    
C101  C123  A    
C30   C35   S    
C40   H76   S    
C57   C129  S    
C53   C79   S    
C10   C136  S    
C131  C135  A    
C1    O14   A    
Cr6   O11   S    
C66   H60   S    
C61   H63   S    
C85   H69   S    
C8    C9    S    
Cr10  O11   S    
C105  C122  A    
C103  C108  A    
C113  H10   S    
C111  H8    S    
Cr6   O42   S    
C129  O35   A    
C43   H43   S    
Cr8   O9    S    
Cr1   O40   S    
C58   C75   A    
C4    C131  A    
C63   C67   A    
C23   C133  S    
Cr3   O7    S    
Cr4   O13   S    
C101  C119  S    
C39   H72   S    
C11   H35   S    
C50   H52   S    
C1    O18   A    
C25   O8    A    
Cr6   O23   S    
Cr7   O13   S    
C3    C133  A    
C106  C123  A    
C15   O42   A    
C98   C116  S    
C63   C70   A    
C32   C44   S    
C62   C72   A    
C11   H30   S    
C63   H65   S    
C37   C48   S    
C51   C82   A    
C14   C92   S    
C9    H32   S    
C44   H40   S    
C107  H4    S    
C45   H41   S    
C18   C122  S    
C60   O16   A    
Cr6   O16   S    
Cr12  O9    S    
Cr1   O1    S    
Cr10  O47   S    
C106  C110  A    
C103  H84   S    
C19   O50   A    
Cr12  O52   S    
C2    C93   A    
C77   O22   A    
Cr2   O10   S    
C38   C50   S    
C112  H14   S    
C91   C109  A    
Cr1   O14   S    
C61   C68   A    
C21   C131  S    
Cr2   O6    S    
C100  C122  A    
Cr12  O31   S    
C96   C113  S    
C114  H11   S    
C125  O1    A    
C113  C118  S    
C50   H57   S    
C80   O26   A    
Cr11  O13   S    
C24   C115  A    
C60   O20   A    
Cr10  O25   S    
C70   C72   A    
C97   C101  A    
