data_str_m9_o2_o18_f0_sra.sym.41
_audit_creation_date              2012-12-11T16:27:27-0500
_audit_creation_method            fapswitch 2.2
_symmetry_space_group_name_H-M    P1
_symmetry_Int_Tables_number       1
_space_group_crystal_system       triclinic
_cell_length_a                    21.713187
_cell_length_b                    6.906059
_cell_length_c                    14.589437
_cell_angle_alpha                 89.99979
_cell_angle_beta                  104.728709
_cell_angle_gamma                 90.0
_cell_volume                      2115.83575513

loop_
_atom_site_label
_atom_site_type_symbol
_atom_type_description
_atom_site_fract_x
_atom_site_fract_y
_atom_site_fract_z
_atom_type_partial_charge
O1    O     O_R   0.835850 0.638310 0.002120 -0.533109
O2    O     O_R   0.164150 0.361690 0.997880 -0.543196
O3    O     O_R   0.664150 0.138310 0.997880 -0.533109
O4    O     O_R   0.335850 0.861690 0.002120 -0.543196
O5    O     O_R   0.717530 0.306070 0.861970 -0.546771
O6    O     O_R   0.282470 0.693930 0.138030 -0.519025
O7    O     O_R   0.782470 0.806070 0.138030 -0.546770
O8    O     O_R   0.217530 0.193930 0.861970 -0.519023
C1    C     C_R   0.704090 0.476983 0.823984 0.757101
C2    C     C_R   0.295793 0.523885 0.176291 0.740958
C3    C     C_R   0.795912 0.976982 0.176016 0.757103
C4    C     C_R   0.204208 0.023886 0.823709 0.740950
O9    O     O_R   0.838690 0.308440 0.993250 -0.547871
O10   O     O_R   0.161310 0.691560 0.006750 -0.533170
O11   O     O_R   0.661310 0.808440 0.006750 -0.547868
O12   O     O_R   0.338690 0.191560 0.993250 -0.533173
O13   O     O_R   0.786170 0.140510 0.130090 -0.526884
O14   O     O_R   0.213830 0.859490 0.869910 -0.543850
O15   O     O_R   0.713830 0.640510 0.869910 -0.526882
O16   O     O_R   0.286170 0.359490 0.130090 -0.543852
C5    C     C_R   0.865055 0.476915 0.996353 0.703652
C6    C     C_R   0.134705 0.522229 0.002387 0.688434
C7    C     C_R   0.634945 0.976915 0.003644 0.703642
C8    C     C_R   0.365294 0.022229 0.997611 0.688427
O17   O     O_3   0.732630 0.472520 0.044740 -0.365847
O18   O     O_3   0.267370 0.527480 0.955260 -0.360984
O19   O     O_3   0.767370 0.972520 0.955260 -0.365847
O20   O     O_3   0.232630 0.027480 0.044740 -0.360988
V1    V     V_3+5 0.753220 0.196740 0.991700 1.484013
V2    V     V_3+5 0.246780 0.803260 0.008300 1.509216
V3    V     V_3+5 0.746780 0.696740 0.008300 1.484017
V4    V     V_3+5 0.253220 0.303260 0.991700 1.509216
H1    H     H_    0.603136 0.804867 0.316034 0.151789
H2    H     H_    0.392986 0.057514 0.673682 0.168593
H3    H     H_    0.896865 0.304867 0.683959 0.151779
H4    H     H_    0.107014 0.557431 0.326319 0.168593
C9    C     C_R   0.538120 0.038799 0.829551 -0.158151
C10   C     C_R   0.461551 0.936498 0.169882 -0.158538
C11   C     C_R   0.961880 0.538785 0.170447 -0.158153
C12   C     C_R   0.038446 0.436527 0.830113 -0.158543
C13   C     C_R   0.492488 0.054565 0.743441 -0.156508
C14   C     C_R   0.505861 0.880473 0.252565 -0.144019
C15   C     C_R   0.007512 0.554531 0.256558 -0.156503
C16   C     C_R   0.994138 0.380504 0.747429 -0.144003
C17   C     C_R   0.428150 0.050597 0.741112 -0.071771
C18   C     C_R   0.569082 0.851437 0.252005 -0.057626
C19   C     C_R   0.071850 0.550536 0.258888 -0.071760
C20   C     C_R   0.930918 0.351437 0.747990 -0.057628
C21   C     C_R   0.409006 0.035775 0.825191 -0.087061
C22   C     C_R   0.588820 0.883307 0.169440 -0.073067
C23   C     C_R   0.090993 0.535720 0.174809 -0.087050
C24   C     C_R   0.911179 0.383290 0.830556 -0.073066
C25   C     C_R   0.454023 0.024089 0.913659 0.046277
C26   C     C_R   0.545408 0.944811 0.085123 0.048026
C27   C     C_R   0.045976 0.524066 0.086339 0.046276
C28   C     C_R   0.954590 0.444806 0.914873 0.048033
C29   C     C_R   0.519970 0.018943 0.915686 0.070214
C30   C     C_R   0.479942 0.965269 0.084454 0.067425
C31   C     C_R   0.980030 0.518931 0.084311 0.070206
C32   C     C_R   0.020056 0.465278 0.915542 0.067422
C33   C     C_R   0.434154 0.009144 0.998845 -0.177595
C34   C     C_R   0.566011 0.983716 0.002038 -0.178309
C35   C     C_R   0.065845 0.509142 0.001153 -0.177598
C36   C     C_R   0.933988 0.483713 0.997959 -0.178306
H5    H     H_    0.587561 0.037247 0.827388 0.116133
H6    H     H_    0.412738 0.954772 0.173547 0.116270
H7    H     H_    0.912439 0.537247 0.172610 0.116136
H8    H     H_    0.087259 0.454816 0.826449 0.116265
H9    H     H_    0.507136 0.066224 0.678044 0.138749
H10   H     H_    0.490895 0.857090 0.317063 0.136144
H11   H     H_    0.992865 0.566191 0.321956 0.138747
H12   H     H_    0.009104 0.357140 0.682929 0.136141
H13   H     H_    0.358724 0.026683 0.820573 0.147321
H14   H     H_    0.638277 0.856869 0.172038 0.146125
H15   H     H_    0.141275 0.526610 0.179426 0.147318
H16   H     H_    0.861723 0.356831 0.827958 0.146113
C37   C     C_R   0.176272 0.020671 0.719960 -0.111915
C38   C     C_R   0.825602 0.983910 0.278843 -0.106408
C39   C     C_R   0.323732 0.520665 0.280039 -0.111916
C40   C     C_R   0.674401 0.483914 0.721156 -0.106407
C41   C     C_R   0.181976 0.095327 0.559847 -0.171031
C42   C     C_R   0.817030 0.996623 0.441070 -0.167823
C43   C     C_R   0.318030 0.595319 0.440154 -0.171030
C44   C     C_R   0.682975 0.496647 0.558930 -0.167820
C45   C     C_R   0.207795 0.107871 0.657274 0.357160
C46   C     C_R   0.789476 0.019800 0.344333 0.359861
C47   C     C_R   0.292206 0.607845 0.342727 0.357163
C48   C     C_R   0.710528 0.519820 0.655668 0.359859
C49   C     C_R   0.114191 0.949000 0.683629 -0.277928
C50   C     C_R   0.891273 0.950315 0.311965 -0.292220
C51   C     C_R   0.385816 0.449021 0.316367 -0.277944
C52   C     C_R   0.608732 0.450305 0.688032 -0.292214
C53   C     C_R   0.083173 0.965486 0.585590 0.084342
C54   C     C_R   0.921535 0.950666 0.410395 0.089943
C55   C     C_R   0.416834 0.465495 0.414406 0.084346
C56   C     C_R   0.578471 0.450659 0.589602 0.089942
C57   C     C_R   0.120316 0.024179 0.523496 0.070316
C58   C     C_R   0.882316 0.958564 0.474411 0.069243
C59   C     C_R   0.379691 0.524180 0.476502 0.070311
C60   C     C_R   0.617690 0.458571 0.525586 0.069246
C61   C     C_R   0.016072 0.939882 0.547794 0.062139
C62   C     C_R   0.989144 0.952691 0.447433 0.059560
C63   C     C_R   0.483935 0.439883 0.452202 0.062140
C64   C     C_R   0.510862 0.452684 0.552563 0.059564
C65   C     C_R   0.030205 0.986840 0.388117 -0.198550
C66   C     C_R   0.974393 0.922704 0.607528 -0.196013
C67   C     C_R   0.469801 0.486828 0.611880 -0.198558
C68   C     C_R   0.525614 0.422705 0.392468 -0.196013
C69   C     C_R   0.094295 0.025481 0.425793 -0.150077
C70   C     C_R   0.908869 0.937004 0.571490 -0.155277
C71   C     C_R   0.405712 0.525475 0.574205 -0.150095
C72   C     C_R   0.591138 0.437011 0.428507 -0.155265
H17   H     H_    0.123167 0.065322 0.378036 0.167157
H18   H     H_    0.878783 0.936935 0.620505 0.170988
H19   H     H_    0.376841 0.565310 0.621964 0.167164
H20   H     H_    0.621225 0.436950 0.379493 0.170982
H21   H     H_    0.917468 0.924258 0.259450 0.121421
H22   H     H_    0.090386 0.889139 0.733738 0.123184
H23   H     H_    0.582537 0.424239 0.740546 0.121419
H24   H     H_    0.409622 0.389183 0.266255 0.123184
H25   H     H_    0.208446 0.154439 0.512472 0.164613
H26   H     H_    0.787790 0.015659 0.490609 0.167685
H27   H     H_    0.291560 0.654428 0.487531 0.164619
H28   H     H_    0.712215 0.515698 0.509391 0.167679
H29   H     H_    0.013323 0.000593 0.312280 0.143348
H30   H     H_    0.991097 0.913673 0.683564 0.138819
H31   H     H_    0.486683 0.500573 0.687717 0.143350
H32   H     H_    0.508911 0.413673 0.316431 0.138818
Cl1   Cl    Cl    0.710635 0.102618 0.308513 -0.740797
Cl2   Cl    Cl    0.276805 0.248748 0.696642 -0.734812
Cl3   Cl    Cl    0.789367 0.602659 0.691493 -0.740788
Cl4   Cl    Cl    0.223187 0.748684 0.303360 -0.734819

loop_
_geom_bond_atom_site_label_1
_geom_bond_atom_site_label_2
_ccdc_geom_bond_type
O17   V3    S    
C43   C47   A    
O1    C5    A    
C61   C62   A    
C12   C32   A    
C27   C31   A    
O19   V1    S    
O13   V1    S    
O3    C7    A    
C52   C56   A    
O15   V3    S    
C39   C47   A    
C29   C34   A    
C38   C50   A    
O7    C3    A    
C37   C49   A    
C31   C36   A    
C8    C33   S    
C62   C65   A    
C32   C35   A    
C58   C70   A    
O9    V1    S    
C52   H23   S    
C23   H15   S    
C10   C14   A    
C22   H14   S    
C26   C30   A    
O4    C8    A    
C55   C59   A    
C54   C58   A    
O1    V3    S    
H4    C19   S    
O2    V4    S    
C14   C18   A    
O3    V1    S    
C5    C36   S    
C6    C35   S    
C10   C30   A    
C25   C33   A    
C1    O15   A    
C7    C34   S    
C10   H6    S    
C2    O16   A    
C9    H5    S    
O2    C6    A    
C28   C36   A    
C63   C68   A    
O14   V2    S    
C70   H18   S    
C12   C16   A    
C39   C51   A    
C69   H17   S    
C38   C46   A    
C30   C33   A    
O11   C7    A    
C11   C31   A    
O12   C8    A    
C43   C59   A    
C9    C13   A    
H1    C18   S    
C42   C58   A    
C67   C71   A    
O10   V2    S    
C41   H25   S    
H3    C20   S    
C55   C63   A    
C18   C22   A    
C50   C54   A    
O5    V1    S    
O17   V1    S    
O7    V3    S    
O19   V3    S    
C44   C60   A    
C50   H21   S    
O20   V4    S    
C53   C61   A    
C25   C29   A    
O18   V4    S    
C19   C23   A    
C26   C34   A    
C42   C46   A    
C51   C55   A    
O4    V2    S    
C68   C72   A    
C27   C35   A    
C1    C40   S    
O8    V4    S    
C47   Cl4   S    
C40   C52   A    
C14   H10   S    
O5    C1    A    
C3    C38   S    
C45   Cl2   S    
C57   C69   A    
C17   C21   A    
O8    C4    A    
C59   C71   A    
C4    C37   S    
O9    C5    A    
H2    C17   S    
C22   C26   A    
C68   H32   S    
O6    V2    S    
C60   C72   A    
C56   C64   A    
C21   H13   S    
O12   V4    S    
C53   C57   A    
C72   H20   S    
C13   H9    S    
O16   V4    S    
C61   C66   A    
C65   C69   A    
C3    O13   A    
C15   H11   S    
C11   H7    S    
C44   C48   A    
C24   H16   S    
O6    C2    A    
C11   C15   A    
C2    C39   S    
C46   Cl1   S    
O11   V3    S    
C44   H28   S    
C66   H30   S    
C65   H29   S    
O10   C6    A    
O20   V2    S    
C67   H31   S    
C40   C48   A    
C16   C20   A    
C41   C57   A    
C21   C25   A    
C56   C60   A    
C16   H12   S    
C23   C27   A    
C49   C53   A    
C9    C29   A    
C37   C45   A    
C28   C32   A    
C20   C24   A    
C49   H22   S    
C54   C62   A    
C66   C70   A    
C12   H8    S    
C4    O14   A    
C63   C64   A    
C13   C17   A    
C51   H24   S    
C71   H19   S    
C48   Cl3   S    
C43   H27   S    
C15   C19   A    
C42   H26   S    
C64   C67   A    
C41   C45   A    
C24   C28   A    
O18   V2    S    
