data_str_m2_o10_o18_f0_pcu.sym.10
_audit_creation_date              2012-10-26T19:59:05-0400
_audit_creation_method            fapswitch 2.2
_symmetry_space_group_name_H-M    P1
_symmetry_Int_Tables_number       1
_space_group_crystal_system       triclinic
_cell_length_a                    7.43646
_cell_length_b                    8.694688
_cell_length_c                    15.831593
_cell_angle_alpha                 94.285778
_cell_angle_beta                  75.092729
_cell_angle_gamma                 103.131526
_cell_volume                      963.17208648

loop_
_atom_site_label
_atom_site_type_symbol
_atom_type_description
_atom_site_fract_x
_atom_site_fract_y
_atom_site_fract_z
_atom_type_partial_charge
C1    C     C_R   0.545062 0.800143 0.502606 0.550547
C2    C     C_R   0.615866 0.511027 0.333720 0.544632
C3    C     C_R   0.313947 0.466565 0.760986 -0.007248
C4    C     C_R   0.685936 0.524411 0.238351 -0.006686
C5    C     C_R   0.077528 0.342738 0.885813 -0.131582
C6    C     C_R   0.931612 0.621736 0.109939 -0.130867
C7    C     C_R   0.129074 0.383566 0.798086 -0.142879
C8    C     C_R   0.876048 0.592061 0.199205 -0.141789
C9    C     C_R   0.443506 0.514622 0.813124 -0.133366
C10   C     C_R   0.554744 0.478988 0.186739 -0.134744
C11   C     C_R   0.397778 0.470412 0.901051 0.027153
C12   C     C_R   0.454927 0.199857 0.497407 0.550559
C13   C     C_R   0.607408 0.505197 0.096252 0.027470
C14   C     C_R   0.210513 0.383727 0.937102 0.044550
C15   C     C_R   0.798415 0.581867 0.058735 0.046061
C16   C     C_R   0.532941 0.507235 0.953442 0.028070
C17   C     C_R   0.474658 0.462536 0.042872 0.027032
C18   C     C_R   0.286548 0.374903 0.075577 -0.142840
C19   C     C_R   0.725216 0.584369 0.919096 -0.141982
C20   C     C_R   0.157993 0.336493 0.023562 -0.131909
C21   C     C_R   0.854627 0.619978 0.970772 -0.132106
C22   C     C_2   0.570455 0.968017 0.503872 -0.156702
C23   C     C_2   0.429519 0.031985 0.496161 -0.156669
C24   C     C_R   0.384059 0.488024 0.666200 0.544248
Cu1   Cu    Cu3+1 0.322120 0.483240 0.490330 0.948432
Cu2   Cu    Cu3+1 0.677880 0.516760 0.509670 0.949331
H1    H     H_    0.015638 0.269013 0.051482 0.118332
H2    H     H_    0.293657 0.960674 0.488882 0.133754
H3    H     H_    0.003994 0.615154 0.568826 0.238226
H4    H     H_    0.996007 0.384849 0.431171 0.238036
H5    H     H_    0.979664 0.627610 0.237986 0.133281
H6    H     H_    0.026999 0.345383 0.758710 0.133705
H7    H     H_    0.000510 0.678389 0.941429 0.120086
H8    H     H_    0.409985 0.428703 0.219795 0.121034
H9    H     H_    0.580719 0.584539 0.782315 0.117585
H10   H     H_    0.934337 0.276525 0.913298 0.120013
H11   H     H_    0.078372 0.678363 0.081068 0.120172
H12   H     H_    0.233817 0.330131 0.140902 0.104706
H13   H     H_    0.783243 0.616947 0.851750 0.106041
H14   H     H_    0.706315 0.039328 0.511153 0.133768
N1    N     N_2   0.945180 0.542040 0.524240 -0.258071
N2    N     N_2   0.054820 0.457960 0.475760 -0.258316
O1    O     O_R   0.384450 0.714270 0.493720 -0.502762
O2    O     O_R   0.615550 0.285730 0.506280 -0.502780
O3    O     O_R   0.684880 0.742590 0.510050 -0.497267
O4    O     O_R   0.315120 0.257410 0.489950 -0.497382
O5    O     O_R   0.265540 0.477900 0.617090 -0.506037
O6    O     O_R   0.734460 0.522100 0.382910 -0.505685
O7    O     O_R   0.565970 0.506210 0.633420 -0.502776
O8    O     O_R   0.434030 0.493790 0.366580 -0.504383

loop_
_geom_bond_atom_site_label_1
_geom_bond_atom_site_label_2
_ccdc_geom_bond_type
Cu1   N2    S    
C2    C4    S    
C3    C9    A    
C20   H1    S    
Cu2   O6    S    
C5    C7    A    
N1    N2    D    
Cu1   O5    S    
C18   C20   A    
C13   C17   A    
C4    C8    A    
C22   H14   S    
Cu1   O1    S    
C17   C18   A    
C5    C14   A    
C6    H11   S    
Cu2   O2    S    
C1    C22   S    
C10   H8    S    
Cu1   Cu2   S    
C23   H2    S    
C9    C11   A    
C12   C23   S    
C1    O3    A    
C3    C24   S    
C19   H13   S    
C16   C19   A    
C12   O4    A    
C19   C21   A    
C3    C7    A    
C13   C15   A    
C18   H12   S    
C11   C14   A    
C21   H7    S    
C4    C10   A    
C5    H10   S    
C14   C20   A    
C15   C21   A    
C12   O2    A    
C2    O6    A    
C11   C16   A    
Cu2   O7    S    
C24   O7    A    
C9    H9    S    
C22   C23   D    
H4    N2    S    
C6    C8    A    
C7    H6    S    
C2    O8    A    
Cu2   O3    S    
H3    N1    S    
C6    C15   A    
Cu1   O8    S    
C24   O5    A    
Cu1   O4    S    
C1    O1    A    
C8    H5    S    
Cu2   N1    S    
C16   C17   A    
C10   C13   A    
