data_str_m12_o9_o24_f0_bcu.sym.55
_audit_creation_date              2012-12-11T17:47:31-0500
_audit_creation_method            fapswitch 2.2
_symmetry_space_group_name_H-M    P1
_symmetry_Int_Tables_number       1
_space_group_crystal_system       triclinic
_cell_length_a                    14.901247
_cell_length_b                    14.932936
_cell_length_c                    14.966005
_cell_angle_alpha                 109.74686
_cell_angle_beta                  109.056053
_cell_angle_gamma                 108.807072
_cell_volume                      2588.5830363

loop_
_atom_site_label
_atom_site_type_symbol
_atom_type_description
_atom_site_fract_x
_atom_site_fract_y
_atom_site_fract_z
_atom_type_partial_charge
C1    C     C_R   0.981211 0.262265 0.073576 -0.130789
C2    C     C_R   0.026082 0.116713 0.139488 -0.245334
C3    C     C_R   0.430733 0.305086 0.101083 -0.131207
C4    C     C_R   0.815510 0.918743 0.221376 -0.132785
C5    C     C_R   0.326506 0.224547 0.064452 -0.183766
C6    C     C_R   0.910898 0.973025 0.220838 -0.210803
C7    C     C_R   0.635001 0.175434 0.094282 0.214215
C8    C     C_R   0.240756 0.823695 0.834506 0.223796
C9    C     C_R   0.678326 0.272442 0.191130 -0.237467
C10   C     C_R   0.163398 0.728574 0.733897 -0.235097
C11   C     C_R   0.766053 0.299710 0.287131 0.109499
C12   C     C_R   0.088149 0.803800 0.002330 -0.156050
C13   C     C_R   0.061756 0.716908 0.672296 0.092463
C14   C     C_R   0.804600 0.225834 0.288533 -0.180256
C15   C     C_R   0.044163 0.806549 0.703342 -0.176931
C16   C     C_R   0.314103 0.753283 0.223744 -0.123557
C17   C     C_R   0.697561 0.202594 0.788335 -0.176340
C18   C     C_R   0.761399 0.129642 0.193436 -0.191660
C19   C     C_R   0.124955 0.904992 0.797283 -0.161463
C20   C     C_R   0.678533 0.104761 0.096677 -0.116782
C21   C     C_R   0.222025 0.913415 0.863233 -0.152921
C22   C     C_R   0.838767 0.418543 0.480700 -0.245986
C23   C     C_R   0.320907 0.777579 0.324672 0.038786
C24   C     C_R   0.950319 0.604738 0.476973 -0.242915
C25   C     C_R   0.918558 0.514092 0.578730 0.063781
C26   C     C_R   0.893784 0.503734 0.381966 0.052736
C27   C     C_R   0.972392 0.610643 0.576388 0.043680
C28   C     C_R   0.828759 0.410206 0.382014 0.042442
C29   C     C_R   0.280074 0.235236 0.132421 0.137890
C30   C     C_R   0.911239 0.949616 0.121979 0.121644
C31   C     C_R   0.442820 0.407872 0.272674 -0.101587
C32   C     C_R   0.718314 0.823405 0.024276 -0.141597
C33   C     C_R   0.187809 0.023591 0.395164 -0.124289
C34   C     C_R   0.693577 0.144464 0.692669 0.060785
C35   C     C_R   0.884983 0.985637 0.702747 -0.115797
C36   C     C_R   0.278313 0.008419 0.409705 -0.122902
C37   C     C_R   0.783128 0.979262 0.675367 -0.133596
C38   C     C_R   0.307650 0.960291 0.472090 0.127411
C39   C     C_R   0.714448 0.953709 0.569556 0.118105
C40   C     C_R   0.210817 0.408068 0.904770 -0.135418
C41   C     C_R   0.774343 0.591873 0.028337 -0.145782
C42   C     C_R   0.244950 0.927137 0.519054 -0.181748
C43   C     C_R   0.748002 0.930786 0.490822 -0.172879
C44   C     C_R   0.154479 0.941994 0.504029 -0.112895
C45   C     C_R   0.300290 0.498176 0.932201 0.030654
C46   C     C_R   0.849696 0.936552 0.518495 -0.111738
C47   C     C_R   0.126389 0.990923 0.442898 -0.104873
C48   C     C_R   0.918545 0.965199 0.624560 -0.116586
C49   C     C_R   0.501913 0.039790 0.581841 -0.245174
C50   C     C_R   0.514264 0.864510 0.451201 -0.252296
C51   C     C_R   0.601438 0.042830 0.605156 0.067272
C52   C     C_R   0.414673 0.863330 0.426690 0.075437
C53   C     C_R   0.609379 0.954129 0.542210 0.020514
C54   C     C_R   0.407921 0.951061 0.494160 0.009669
C55   C     C_R   0.489363 0.395865 0.205368 -0.106788
C56   C     C_R   0.673302 0.500332 0.954480 0.031656
C57   C     C_R   0.718892 0.845628 0.123220 -0.118006
C58   C     C_R   0.009309 0.014955 0.121814 0.012151
C59   C     C_R   0.174396 0.148142 0.100884 0.007853
C60   C     C_R   0.338491 0.328106 0.236389 -0.133043
C61   C     C_R   0.814461 0.874354 0.023518 -0.142096
C62   C     C_R   0.074779 0.975900 0.090018 0.064866
C63   C     C_R   0.094400 0.174025 0.110172 0.056001
C64   C     C_R   0.989012 0.590183 0.295643 -0.146559
C65   C     C_R   0.939418 0.411644 0.685810 -0.128381
C66   C     C_3   0.471660 0.401102 0.909794 -0.163138
C67   C     C_R   0.926085 0.499927 0.297755 0.075394
C68   C     C_3   0.488719 0.595109 0.940838 -0.173903
C69   C     C_3   0.396576 0.418681 0.826209 -0.149993
C70   C     C_3   0.563349 0.577204 0.024148 -0.154674
C71   C     C_3   0.391666 0.497654 0.918994 0.185083
C72   C     C_3   0.570132 0.498844 0.932352 0.193428
C73   C     C_3   0.465345 0.480064 0.001743 -0.151639
C74   C     C_3   0.496956 0.516571 0.848414 -0.146499
C75   C     C_R   0.300591 0.589336 0.995449 -0.154882
C76   C     C_R   0.684757 0.408944 0.937018 -0.134598
C77   C     C_R   0.903286 0.409990 0.207792 -0.158754
C78   C     C_R   0.952870 0.505662 0.677994 0.052181
C79   C     C_R   0.018542 0.592553 0.781715 -0.139364
C80   C     C_R   0.217781 0.739991 0.310990 -0.110145
C81   C     C_R   0.788315 0.202161 0.695388 -0.124914
C82   C     C_R   0.072980 0.256615 0.982031 -0.130887
C83   C     C_R   0.997856 0.801088 0.094042 -0.126490
C84   C     C_R   0.059722 0.237061 0.063579 0.061057
C85   C     C_R   0.051929 0.863693 0.059944 0.058620
C86   C     C_3   0.547384 0.154146 0.990656 -0.475241
C87   C     C_3   0.517468 0.056090 0.886859 -0.271285
C88   C     C_3   0.432928 0.043796 0.786443 -0.928466
C89   C     C_R   0.162999 0.046956 0.088504 -0.239898
C90   C     C_3   0.335570 0.821382 0.911032 -0.480874
C91   C     C_3   0.400413 0.916822 0.028938 -0.248119
C92   C     C_3   0.495966 0.911122 0.100492 -0.930166
H1    H     H_    0.951596 0.260067 0.129533 0.102403
H2    H     H_    0.177011 0.659217 0.709516 0.125085
H3    H     H_    0.872839 0.245989 0.361578 0.122168
H4    H     H_    0.966989 0.799173 0.655827 0.129021
H5    H     H_    0.795071 0.076149 0.193643 0.163772
H6    H     H_    0.110760 0.973836 0.821392 0.117738
H7    H     H_    0.792458 0.346023 0.481112 0.130702
H8    H     H_    0.993899 0.679262 0.478710 0.123223
H9    H     H_    0.281863 0.155231 0.983311 0.102121
H10   H     H_    0.983342 0.036258 0.296763 0.112211
H11   H     H_    0.449670 0.469923 0.065813 0.136137
H12   H     H_    0.146865 0.834040 0.978302 0.112093
H13   H     H_    0.513079 0.531929 0.786213 0.109836
H14   H     H_    0.380126 0.773461 0.205896 0.099336
H15   H     H_    0.641647 0.175864 0.816137 0.121217
H16   H     H_    0.304175 0.337460 0.290389 0.107221
H17   H     H_    0.812989 0.858117 0.946681 0.113688
H18   H     H_    0.057110 0.003434 0.433217 0.095814
H19   H     H_    0.997873 0.971442 0.645968 0.099567
H20   H     H_    0.166130 0.061569 0.347745 0.114991
H21   H     H_    0.938102 0.007027 0.784739 0.112420
H22   H     H_    0.326066 0.035033 0.373484 0.113021
H23   H     H_    0.465803 0.298732 0.048166 0.107035
H24   H     H_    0.758477 0.995825 0.737026 0.110339
H25   H     H_    0.263614 0.886286 0.564010 0.118313
H26   H     H_    0.696604 0.910880 0.408842 0.107856
H27   H     H_    0.106152 0.915537 0.539796 0.107398
H28   H     H_    0.875775 0.919792 0.458100 0.097923
H29   H     H_    0.497658 0.109927 0.629752 0.140507
H30   H     H_    0.517469 0.796018 0.398860 0.130372
H31   H     H_    0.223369 0.024973 0.079888 0.120756
H32   H     H_    0.971954 0.141337 0.160411 0.128327
H33   H     H_    0.325498 0.354178 0.745325 0.112021
H34   H     H_    0.815145 0.937863 0.297610 0.109308
H35   H     H_    0.632483 0.639574 0.106850 0.114270
H36   H     H_    0.463762 0.320555 0.896294 0.105129
H37   H     H_    0.488052 0.671885 0.950806 0.106709
H38   H     H_    0.183195 0.324224 0.849048 0.095179
H39   H     H_    0.792882 0.675987 0.063400 0.128606
H40   H     H_    0.009023 0.673582 0.342351 0.096380
H41   H     H_    0.892194 0.328282 0.620452 0.092800
H42   H     H_    0.356341 0.672152 0.024109 0.099062
H43   H     H_    0.621301 0.325180 0.887540 0.091052
H44   H     H_    0.849553 0.326068 0.175171 0.130385
H45   H     H_    0.487710 0.478620 0.353089 0.109365
H46   H     H_    0.034090 0.674659 0.808322 0.136039
H47   H     H_    0.193819 0.741483 0.371706 0.109752
H48   H     H_    0.815405 0.174954 0.637749 0.105243
H49   H     H_    0.127212 0.244173 0.952029 0.104830
H50   H     H_    0.980146 0.828114 0.159432 0.118891
H51   H     H_    0.570025 0.457910 0.233074 0.103174
H52   H     H_    0.644426 0.808469 0.124634 0.113134
H53   H     H_    0.353728 0.019665 0.785367 0.272685
H54   H     H_    0.458864 0.120800 0.783527 0.251994
H55   H     H_    0.423611 0.979473 0.714268 0.254915
H56   H     H_    0.643583 0.768241 0.947934 0.114173
H57   H     H_    0.591015 0.065107 0.879136 0.189984
H58   H     H_    0.483529 0.980393 0.890118 0.207177
H59   H     H_    0.473227 0.140871 0.998133 0.190319
H60   H     H_    0.575752 0.227981 0.982457 0.185062
H61   H     H_    0.467857 0.847055 0.121294 0.241317
H62   H     H_    0.542780 0.894817 0.058682 0.260881
H63   H     H_    0.550476 0.989784 0.177941 0.266132
H64   H     H_    0.434102 0.994821 0.029822 0.207676
H65   H     H_    0.346366 0.917378 0.065403 0.190427
H66   H     H_    0.302328 0.744962 0.913881 0.194577
H67   H     H_    0.650046 0.030261 0.024655 0.110392
H68   H     H_    0.390249 0.817104 0.876026 0.180614
H69   H     H_    0.280054 0.989160 0.937850 0.098697
H70   H     H_    0.650087 0.330502 0.189893 0.123942
N1    N     N_R   0.947560 0.293820 0.002910 -0.042733
N2    N     N_R   0.789450 0.443190 0.997090 -0.036460
N3    N     N_R   0.945970 0.443180 0.152110 -0.041942
N4    N     N_R   0.054030 0.556820 0.847890 -0.043964
N5    N     N_R   0.151530 0.706170 0.208880 -0.041348
N6    N     N_R   0.848470 0.293830 0.791120 -0.038651
N7    N     N_R   0.004980 0.293810 0.946140 -0.041522
N8    N     N_R   0.995020 0.706190 0.053860 -0.040939
N9    N     N_R   0.052440 0.706180 0.997090 -0.041296
N10   N     N_R   0.208960 0.706170 0.152110 -0.040735
N11   N     N_R   0.791040 0.293830 0.847890 -0.034673
N12   N     N_R   0.154330 0.443160 0.946140 -0.036755
N13   N     N_R   0.845670 0.556840 0.053860 -0.039456
N14   N     N_R   0.002190 0.556820 0.208880 -0.040350
N15   N     N_R   0.997810 0.443180 0.791120 -0.040549
N16   N     N_R   0.210550 0.556810 0.002910 -0.035294
Ni1   Ni    Ni4+2 0.869690 0.369690 0.000000 0.210535
Ni2   Ni    Ni4+2 0.130310 0.630310 0.000000 0.209388
Ni3   Ni    Ni4+2 0.001390 0.369680 0.869810 0.215290
Ni4   Ni    Ni4+2 0.998610 0.630320 0.130190 0.217547

loop_
_geom_bond_atom_site_label_1
_geom_bond_atom_site_label_2
_ccdc_geom_bond_type
C70   H35   S    
C58   C62   A    
C81   H48   S    
C87   C88   S    
C83   N8    A    
C10   H2    S    
C56   C76   A    
C45   C71   S    
C14   C18   A    
C50   H30   S    
C24   C27   A    
C61   H17   S    
C90   C91   S    
C75   H42   S    
C37   H24   S    
C6    C30   A    
N3    N14   A    
C15   C19   A    
C34   C51   S    
C12   C85   A    
C26   C67   S    
C19   C21   A    
C24   C26   A    
C32   C61   A    
C38   C42   A    
C17   H15   S    
C11   C14   A    
N15   Ni3   S    
C66   C69   S    
C24   H8    S    
N8    N9    A    
N11   Ni1   S    
C68   C74   S    
C49   C54   A    
C62   C89   A    
C33   C36   A    
N2    N13   A    
C59   C89   A    
C69   C71   S    
C75   N16   A    
C3    C55   A    
C68   H37   S    
C76   H43   S    
C66   C72   S    
C64   H40   S    
C17   N11   A    
C49   C51   A    
C20   H67   S    
C67   C77   A    
C4    C57   A    
C50   C52   A    
C88   H53   S    
C92   H61   S    
C22   H7    S    
C18   H5    S    
C23   C80   A    
C31   H45   S    
N12   N16   A    
C80   N5    A    
C60   H16   S    
C44   C47   A    
C16   H14   S    
N10   Ni2   S    
C41   N13   A    
C82   N7    A    
C69   H33   S    
C22   C28   A    
N8    Ni4   S    
C40   C45   A    
C42   C44   A    
C32   C57   A    
C82   H49   S    
C35   C48   A    
N12   Ni3   S    
C19   H6    S    
C52   C54   A    
C12   N9    A    
C5    C29   A    
N6    N11   A    
C62   C85   S    
C5    H9    S    
C50   C53   A    
C55   H51   S    
C25   C78   S    
C64   C67   A    
C29   C59   S    
C21   H69   S    
C72   C74   S    
C15   H4    S    
C41   H39   S    
C78   C79   A    
C39   C43   A    
C89   H31   S    
C44   H27   S    
C56   C72   S    
C66   C73   S    
C22   C25   A    
C51   C53   A    
C31   C60   A    
C90   H66   S    
N14   Ni4   S    
C41   C56   A    
C86   H60   S    
N5    Ni4   S    
C16   N10   A    
C38   C54   S    
C29   C60   A    
C49   H29   S    
C48   H19   S    
C70   C73   S    
C8    C21   A    
C46   H28   S    
C69   C74   S    
N4    N15   A    
C9    C11   A    
N7    Ni3   S    
N2    Ni1   S    
N13   Ni4   S    
C4    C6    A    
C77   H44   S    
N6    Ni3   S    
C16   C23   A    
C82   C84   A    
C13   C15   A    
N1    Ni1   S    
C33   C47   A    
N9    Ni2   S    
C76   N2    A    
C1    C84   A    
N4    Ni2   S    
C17   C34   A    
C80   H47   S    
C14   H3    S    
C91   C92   S    
C2    C63   A    
C35   C37   A    
C71   C73   S    
C92   H62   S    
C33   H20   S    
C7    C9    A    
C40   H38   S    
C65   C78   A    
C57   H52   S    
C83   C85   A    
C86   C87   S    
C26   C28   A    
C8    C10   A    
C3    C5    A    
C10   C13   A    
C83   H50   S    
N16   Ni2   S    
C2    C58   A    
C42   H25   S    
C12   H12   S    
N5    N10   A    
C32   H56   S    
C2    H32   S    
C25   C27   A    
C47   H18   S    
C81   N6    A    
C59   C63   A    
C4    H34   S    
C63   C84   S    
C45   C75   A    
C36   C38   A    
C64   N14   A    
C91   H64   S    
C37   C39   A    
C3    H23   S    
C86   H59   S    
C74   H13   S    
C40   N12   A    
C87   H58   S    
C23   C52   S    
C39   C53   S    
C65   N15   A    
C11   C28   S    
C68   C71   S    
N3    Ni1   S    
C30   C58   S    
C88   H55   S    
C66   H36   S    
C36   H22   S    
C35   H21   S    
C92   H63   S    
C18   C20   A    
C6    H10   S    
C79   N4    A    
C90   H68   S    
C9    H70   S    
N1    N7    A    
C43   C46   A    
C91   H65   S    
C43   H26   S    
C7    C86   S    
C46   C48   A    
C73   H11   S    
C79   H46   S    
C8    C90   S    
C1    N1    A    
C1    H1    S    
C7    C20   A    
C87   H57   S    
C30   C61   A    
C68   C70   S    
C88   H54   S    
C13   C27   S    
C70   C72   S    
C31   C55   A    
C77   N3    A    
C34   C81   A    
C65   H41   S    
