data_str_m2_o2_o5_f0_pcu.sym.82
_audit_creation_date              2012-10-26T20:48:50-0400
_audit_creation_method            fapswitch 2.2
_symmetry_space_group_name_H-M    P1
_symmetry_Int_Tables_number       1
_space_group_crystal_system       triclinic
_cell_length_a                    15.110423
_cell_length_b                    13.999427
_cell_length_c                    9.097083
_cell_angle_alpha                 89.854322
_cell_angle_beta                  93.036983
_cell_angle_gamma                 90.023384
_cell_volume                      1921.66306864

loop_
_atom_site_label
_atom_site_type_symbol
_atom_type_description
_atom_site_fract_x
_atom_site_fract_y
_atom_site_fract_z
_atom_type_partial_charge
C1    C     C_R   0.330335 0.499796 0.498960 0.558167
C2    C     C_R   0.578589 0.891360 0.531552 0.226367
C3    C     C_R   0.499707 0.500074 0.220769 0.558241
C4    C     C_R   0.500233 0.499927 0.779224 0.562343
C5    C     C_R   0.500303 0.054934 0.500789 -0.048955
C6    C     C_R   0.500393 0.945560 0.501054 -0.057680
C7    C     C_1   0.499854 0.500087 0.065529 -0.015259
C8    C     C_1   0.500042 0.499884 0.934460 -0.014235
C9    C     C_R   0.092150 0.551203 0.396189 0.248463
C10   C     C_R   0.903996 0.409171 0.475538 0.253257
C11   C     C_R   0.907885 0.581143 0.521696 0.241710
C12   C     C_R   0.670125 0.499829 0.499618 0.566896
C13   C     C_R   0.099993 0.436962 0.600721 0.254803
C14   C     C_R   0.184164 0.555210 0.400152 -0.108455
C15   C     C_R   0.811535 0.411604 0.480755 -0.130715
C16   C     C_R   0.815735 0.583095 0.514882 -0.124823
C17   C     C_R   0.192695 0.437529 0.596088 -0.141252
C18   C     C_R   0.234300 0.498427 0.499300 -0.059509
C19   C     C_R   0.767080 0.498436 0.498271 -0.073844
C20   C     C_R   0.049678 0.493235 0.498280 0.075907
C21   C     C_R   0.952408 0.494155 0.500367 0.077459
C22   C     C_3   0.021916 0.554721 0.169697 -0.010887
C23   C     C_R   0.554322 0.209152 0.598669 0.329531
C24   C     C_3   0.956293 0.610925 0.071177 -0.358036
C25   C     C_3   0.919189 0.278745 0.324615 -0.018200
C26   C     C_3   0.985954 0.202566 0.286781 -0.354300
C27   C     C_3   0.974999 0.680575 0.689789 -0.008502
C28   C     C_3   0.032719 0.769221 0.708216 -0.354872
C29   C     C_3   0.091033 0.387746 0.842541 -0.010177
C30   C     C_3   0.025325 0.345962 0.946051 -0.361807
C31   C     C_3   0.562023 0.033363 0.828717 0.025962
C32   C     C_3   0.625981 0.983106 0.938230 -0.329778
C33   C     C_3   0.309064 0.945191 0.603088 0.012294
C34   C     C_R   0.427859 0.792788 0.446083 0.330757
C35   C     C_3   0.216578 0.988251 0.592428 -0.338061
C36   C     C_3   0.438239 0.033502 0.172885 0.022955
C37   C     C_3   0.374319 0.982960 0.063989 -0.330103
C38   C     C_3   0.692107 0.949346 0.404344 0.013588
C39   C     C_3   0.781448 0.999493 0.418784 -0.336844
C40   C     C_R   0.445790 0.209036 0.401737 0.336633
C41   C     C_R   0.572040 0.792045 0.555809 0.327589
C42   C     C_R   0.552823 0.108471 0.605631 0.222670
C43   C     C_R   0.422000 0.891898 0.471081 0.228745
C44   C     C_R   0.447564 0.108341 0.395574 0.224929
Cl1   Cl    Cl    0.628928 0.269190 0.721773 -0.544602
Cl2   Cl    Cl    0.343419 0.741724 0.332210 -0.583007
Cl3   Cl    Cl    0.370932 0.268975 0.278510 -0.546296
Cl4   Cl    Cl    0.653599 0.739874 0.675043 -0.592304
Cu1   Cu    Cu3+1 0.500000 0.596430 0.500000 1.077819
Cu2   Cu    Cu3+1 0.500000 0.403570 0.500000 1.083582
H1    H     H_    0.216080 0.599983 0.321798 0.196958
H2    H     H_    0.912886 0.330362 0.231101 0.109588
H3    H     H_    0.854473 0.242820 0.337844 0.132518
H4    H     H_    0.052211 0.235370 0.275667 0.175126
H5    H     H_    0.964551 0.167754 0.181241 0.100116
H6    H     H_    0.990820 0.147511 0.374990 0.169006
H7    H     H_    0.012768 0.618992 0.739263 0.116256
H8    H     H_    0.913513 0.691806 0.749872 0.151461
H9    H     H_    0.049779 0.781709 0.826825 0.098786
H10   H     H_    0.996716 0.832567 0.661943 0.166913
H11   H     H_    0.094919 0.759536 0.650078 0.175541
H12   H     H_    0.774445 0.345618 0.470593 0.164865
H13   H     H_    0.102191 0.464226 0.871974 0.102794
H14   H     H_    0.154004 0.347265 0.859460 0.146716
H15   H     H_    0.053013 0.350810 0.061202 0.087383
H16   H     H_    0.961856 0.385990 0.935708 0.155223
H17   H     H_    0.012541 0.269683 0.919176 0.179626
H18   H     H_    0.509553 0.981556 0.792898 0.106524
H19   H     H_    0.531630 0.095120 0.883961 0.134727
H20   H     H_    0.661834 0.925650 0.882045 0.225306
H21   H     H_    0.589397 0.950264 0.027760 0.064586
H22   H     H_    0.674839 0.035048 0.986513 0.156673
H23   H     H_    0.782918 0.651095 0.524524 0.206216
H24   H     H_    0.353039 0.994008 0.670261 0.103397
H25   H     H_    0.305414 0.874696 0.659807 0.130678
H26   H     H_    0.191992 0.997189 0.704471 0.090004
H27   H     H_    0.218143 0.059199 0.537637 0.188863
H28   H     H_    0.170562 0.940474 0.527879 0.173115
H29   H     H_    0.491048 0.982012 0.208685 0.104904
H30   H     H_    0.468176 0.095541 0.117128 0.134761
H31   H     H_    0.410849 0.950649 0.974228 0.063448
H32   H     H_    0.339017 0.925073 0.120636 0.225307
H33   H     H_    0.324994 0.034598 0.015934 0.158420
H34   H     H_    0.232797 0.391455 0.668334 0.128207
H35   H     H_    0.645904 0.995739 0.336657 0.098977
H36   H     H_    0.700745 0.880159 0.346496 0.134609
H37   H     H_    0.806577 0.012218 0.307876 0.085342
H38   H     H_    0.829915 0.954560 0.483745 0.176598
H39   H     H_    0.774527 0.069285 0.474903 0.184180
H40   H     H_    0.990007 0.485574 0.196594 0.114353
H41   H     H_    0.082374 0.540901 0.108383 0.125527
H42   H     H_    0.986437 0.679485 0.037999 0.160335
H43   H     H_    0.937603 0.568727 0.971148 0.085231
H44   H     H_    0.895596 0.626008 0.130859 0.177300
N1    N     N_R   0.500000 0.258690 0.500000 -0.278515
N2    N     N_R   0.500000 0.741310 0.500000 -0.270720
O1    O     O_R   0.371460 0.581430 0.500010 -0.457832
O2    O     O_3   0.948855 0.323841 0.457029 -0.508917
O3    O     O_3   0.954019 0.666028 0.538636 -0.511153
O4    O     O_3   0.056456 0.377619 0.696129 -0.509833
O5    O     O_3   0.609678 0.064525 0.708789 -0.466790
O6    O     O_3   0.339502 0.934593 0.460009 -0.468089
O7    O     O_3   0.390696 0.064172 0.292968 -0.466046
O8    O     O_3   0.661163 0.933730 0.546132 -0.471832
O9    O     O_R   0.628540 0.418570 0.499990 -0.471674
O10   O     O_R   0.628540 0.581430 0.499990 -0.463425
O11   O     O_R   0.371460 0.418570 0.500010 -0.462790
O12   O     O_R   0.500000 0.581420 0.288390 -0.475961
O13   O     O_R   0.500000 0.418580 0.711610 -0.457550
O14   O     O_R   0.500000 0.581420 0.711610 -0.470001
O15   O     O_R   0.500000 0.418580 0.288390 -0.458246
O16   O     O_3   0.043907 0.608442 0.297306 -0.505251

loop_
_geom_bond_atom_site_label_1
_geom_bond_atom_site_label_2
_ccdc_geom_bond_type
C40   Cl3   S    
C4    O13   A    
C29   H13   S    
C23   Cl1   S    
C14   C18   A    
C39   H37   S    
C4    C8    S    
C26   H5    S    
C7    C8    T    
C32   H22   S    
C15   C19   A    
C27   O3    S    
C1    C18   S    
C23   C42   A    
C38   H36   S    
C36   O7    S    
C5    C6    S    
C31   O5    S    
C36   C37   S    
C25   H3    S    
C3    C7    S    
C10   C15   A    
C12   O9    A    
Cu2   N1    S    
C41   N2    A    
C2    C41   A    
C26   H4    S    
C11   O3    S    
C10   O2    S    
C38   O8    S    
C33   H25   S    
C14   H1    S    
C3    O15   A    
Cu2   O9    S    
C22   H41   S    
C34   Cl2   S    
C32   H21   S    
C30   H17   S    
C29   O4    S    
C28   H11   S    
C9    O16   S    
C29   H14   S    
C37   H31   S    
C2    C6    A    
C39   H38   S    
C24   H42   S    
C44   O7    S    
Cu1   O12   S    
C28   H10   S    
C10   C21   A    
C31   H18   S    
C35   H26   S    
C38   H35   S    
C33   O6    S    
C27   H7    S    
C1    O1    A    
C32   H20   S    
C25   C26   S    
C11   C21   A    
Cu2   O13   S    
C16   H23   S    
C9    C14   A    
C29   C30   S    
C24   H44   S    
C11   C16   A    
C33   H24   S    
C9    C20   A    
C31   C32   S    
C2    O8    S    
C17   C18   A    
C22   H40   S    
C30   H16   S    
C1    O11   A    
C15   H12   S    
C5    C44   A    
C22   O16   S    
C6    C43   A    
C36   H30   S    
Cu2   O11   S    
C22   C24   S    
C37   H32   S    
C40   N1    A    
C42   O5    S    
C5    C42   A    
C28   H9    S    
C4    O14   A    
C13   C20   A    
C34   C43   A    
C34   N2    A    
C36   H29   S    
C26   H6    S    
Cu1   O10   S    
C3    O12   A    
C35   H28   S    
C13   C17   A    
C17   H34   S    
C13   O4    S    
C25   H2    S    
C31   H19   S    
C24   H43   S    
C12   O10   A    
C38   C39   S    
C27   H8    S    
C16   C19   A    
C12   C19   S    
Cu2   O15   S    
C33   C35   S    
C41   Cl4   S    
C35   H27   S    
Cu1   N2    S    
C43   O6    S    
C30   H15   S    
Cu1   O1    S    
C25   O2    S    
C40   C44   A    
C20   C21   S    
Cu1   Cu2   S    
C27   C28   S    
C23   N1    A    
C37   H33   S    
C39   H39   S    
Cu1   O14   S    
