data_str_m9_o11_o16_f0_sra.sym.187
_audit_creation_date              2012-12-11T14:17:36-0500
_audit_creation_method            fapswitch 2.2
_symmetry_space_group_name_H-M    P1
_symmetry_Int_Tables_number       1
_space_group_crystal_system       triclinic
_cell_length_a                    6.940733
_cell_length_b                    13.608261
_cell_length_c                    20.492772
_cell_angle_alpha                 102.239676
_cell_angle_beta                  90.00132
_cell_angle_gamma                 90.471883
_cell_volume                      1891.50503441

loop_
_atom_site_label
_atom_site_type_symbol
_atom_type_description
_atom_site_fract_x
_atom_site_fract_y
_atom_site_fract_z
_atom_type_partial_charge
O1    O     O_R   0.506860 0.599390 0.449240 -0.544036
O2    O     O_R   0.180220 0.594600 0.586780 -0.508810
O3    O     O_R   0.004500 0.400610 0.550760 -0.545216
C1    C     C_R   0.348018 0.615300 0.613917 0.779517
O4    O     O_R   0.177490 0.611290 0.451970 -0.547374
O5    O     O_R   0.001750 0.417420 0.414990 -0.511289
C2    C     C_R   0.346508 0.636977 0.434410 0.735518
O6    O     O_R   0.509610 0.582580 0.585010 -0.549048
O7    O     O_3   0.337420 0.436370 0.488020 -0.369778
V1    V     V_3+5 0.064680 0.511800 0.502220 1.535205
O8    O     O_R   0.671710 0.405400 0.413220 -0.546667
C3    C     C_R   0.839878 0.386244 0.385893 0.783765
O9    O     O_R   0.674440 0.388710 0.548030 -0.548916
C4    C     C_R   0.842648 0.362854 0.565436 0.753864
V2    V     V_3+5 0.564010 0.488200 0.497780 1.485284
O10   O     O_3   0.841140 0.563630 0.511980 -0.373818
C5    C     C_R   0.819794 0.106539 0.606840 0.359317
C6    C     C_R   0.848645 0.283304 0.603919 -0.201827
C7    C     C_R   0.845499 0.312170 0.924542 0.318866
C8    C     C_R   0.813121 0.384724 0.886909 -0.226799
C9    C     C_R   0.806114 0.357960 0.817768 -0.094977
C10   C     C_R   0.840607 0.258185 0.782966 0.071572
C11   C     C_R   0.850968 0.181626 0.820522 -0.076455
C12   C     C_R   0.851734 0.232705 0.711746 -0.037803
C13   C     C_R   0.830053 0.130415 0.678033 -0.085825
C14   C     C_R   0.816173 0.054808 0.715969 0.137753
C15   C     C_R   0.844089 0.079188 0.786106 0.262765
C16   C     C_R   0.886537 0.306659 0.673325 0.248495
C17   C     C_R   0.811262 0.183710 0.570949 0.119321
C18   C     C_R   0.859869 0.210723 0.891942 -0.114730
H1    H     H_    0.763970 0.416447 0.792555 0.175532
H2    H     H_    0.789796 0.462472 0.911248 0.119461
C19   C     C_2   0.004062 0.293105 0.282266 0.312664
C20   C     C_2   0.842681 0.328551 0.315883 -0.263132
H3    H     H_    0.705230 0.319420 0.289834 0.134223
C21   C     C_2   0.995231 0.244047 0.209090 0.233559
C22   C     C_2   0.865597 0.170077 0.184953 0.132792
C23   C     C_2   0.203739 0.780619 0.787193 -0.244042
C24   C     C_2   0.365024 0.820224 0.818608 -0.329489
H4    H     H_    0.068217 0.796438 0.813647 0.140030
H5    H     H_    0.504135 0.806678 0.794661 0.127527
C25   C     C_2   0.194917 0.716685 0.717671 0.387437
C26   C     C_2   0.355117 0.680956 0.682022 -0.296133
H6    H     H_    0.497630 0.697268 0.703128 0.085283
C27   C     C_R   0.419814 0.885308 0.384933 -0.178458
H7    H     H_    0.414458 0.012111 0.303116 0.144959
H8    H     H_    0.447582 0.963155 0.408863 0.131331
C28   C     C_R   0.357933 0.713084 0.393335 -0.168688
C29   C     C_R   0.367650 0.684058 0.070425 -0.220142
C30   C     C_R   0.398022 0.608244 0.105044 -0.220184
C31   C     C_R   0.414106 0.630383 0.175072 0.439196
C32   C     C_R   0.378664 0.730056 0.211539 0.068998
C33   C     C_R   0.367993 0.808350 0.175116 -0.011153
C34   C     C_R   0.370436 0.756332 0.283067 0.058308
C35   C     C_R   0.398166 0.858458 0.315499 0.022060
C36   C     C_R   0.399723 0.933614 0.278508 -0.141108
C37   C     C_R   0.375187 0.909336 0.209759 -0.175418
C38   C     C_R   0.325103 0.686194 0.323303 0.318953
C39   C     C_R   0.409194 0.812455 0.423799 0.159457
C40   C     C_R   0.359811 0.784164 0.104492 -0.070964
H9    H     H_    0.363337 0.665201 0.016330 0.125894
H10   H     H_    0.419453 0.532373 0.076735 0.133251
H11   H     H_    0.369299 0.970603 0.183694 0.113938
O11   O     O_R   0.203230 0.917310 0.915020 -0.536936
O12   O     O_R   0.535500 0.888690 0.048040 -0.548918
O13   O     O_R   0.711080 0.082610 0.085000 -0.554636
C41   C     C_R   0.366651 0.862183 0.064942 0.684248
O14   O     O_R   0.532630 0.905370 0.913230 -0.540097
O15   O     O_R   0.708190 0.099410 0.949230 -0.532360
C42   C     C_R   0.364804 0.884776 0.886398 0.772975
O16   O     O_R   0.206120 0.900510 0.050790 -0.547680
O17   O     O_3   0.375360 0.063570 0.011990 -0.366368
V3    V     V_3+5 0.648170 0.988200 0.997780 1.475788
O18   O     O_R   0.038240 0.111390 0.951940 -0.537723
C43   C     C_R   0.869730 0.136873 0.934454 0.895530
O19   O     O_R   0.041120 0.094710 0.086750 -0.520745
C44   C     C_R   0.872977 0.114014 0.114043 0.727384
V4    V     V_3+5 0.148810 0.011930 0.002180 1.513013
O20   O     O_3   0.871750 0.936430 0.988010 -0.380983
N1    N     N_3   0.779443 0.161649 0.499743 -0.652217
H12   H     H_    0.643372 0.188899 0.491248 0.226153
H13   H     H_    0.774910 0.084453 0.479715 0.273154
O21   O     O_3   0.126607 0.272508 0.165619 -0.643454
H14   H     H_    0.199130 0.332190 0.189936 0.306139
O22   O     O_3   0.733355 0.141726 0.228212 -0.670218
H15   H     H_    0.660047 0.082358 0.204023 0.284408
O23   O     O_3   0.015183 0.691687 0.689326 -0.633812
H16   H     H_    0.914094 0.724058 0.720585 0.266566
N2    N     N_3   0.440182 0.839758 0.494781 -0.651112
H17   H     H_    0.568991 0.806717 0.505098 0.250094
H18   H     H_    0.460159 0.917480 0.510208 0.262181
N3    N     N_3   0.760093 0.954189 0.683880 -0.637037
H19   H     H_    0.875398 0.905562 0.684792 0.225276
H20   H     H_    0.642098 0.931516 0.709001 0.239164
O24   O     O_3   0.231956 0.597361 0.293882 -0.619048
H21   H     H_    0.200910 0.556660 0.327103 0.297184
O25   O     O_3   0.486946 0.558992 0.207179 -0.622184
H22   H     H_    0.505984 0.494837 0.174406 0.292400
O26   O     O_3   0.821023 0.008803 0.570985 -0.634344
H23   H     H_    0.938239 0.977521 0.585041 0.314671
O27   O     O_3   0.968743 0.397865 0.704290 -0.651544
H24   H     H_    0.989744 0.442266 0.672602 0.298590
O28   O     O_3   0.854086 0.337722 0.993509 -0.650788
H25   H     H_    0.840594 0.411599 0.008383 0.292889
O29   O     O_3   0.849754 0.004112 0.822224 -0.655847
H26   H     H_    0.881193 0.938824 0.793010 0.273799
O30   O     O_3   0.180054 0.306081 0.314745 -0.632756
H27   H     H_    0.278792 0.269121 0.284376 0.295383

loop_
_geom_bond_atom_site_label_1
_geom_bond_atom_site_label_2
_ccdc_geom_bond_type
C31   O25   S    
C35   C36   A    
O27   H24   S    
C5    C17   A    
C4    C6    S    
O24   H21   S    
C19   O30   S    
C1    O6    A    
O25   H22   S    
C24   H5    S    
O22   H15   S    
C9    H1    S    
C14   C15   A    
C29   C40   A    
C22   O22   S    
C21   C22   D    
O19   V4    S    
C23   C25   S    
O5    C3    A    
C23   C24   D    
C15   O29   S    
C21   O21   S    
C14   N3    S    
V2    O10   S    
C19   C21   S    
O12   V3    S    
C36   C37   A    
C20   H3    S    
C39   N2    S    
O17   V4    S    
O8    V2    S    
C16   O27   S    
C7    C8    A    
C40   C41   S    
O12   C41   A    
O30   H27   S    
O15   V3    S    
O1    V2    S    
C11   C15   A    
N2    H18   S    
O7    V1    S    
O9    C4    A    
C7    O28   S    
C33   C40   A    
C32   C34   A    
C37   H11   S    
C27   H8    S    
C29   H9    S    
O18   C43   A    
C31   C32   A    
C11   C18   A    
C6    C16   A    
C12   C13   A    
N1    H13   S    
O4    C2    A    
C33   C37   A    
V4    O20   S    
N1    H12   S    
C30   C31   A    
O14   V3    S    
O13   V3    S    
C22   C44   S    
O2    C1    A    
C38   O24   S    
O21   H14   S    
N3    H20   S    
C19   C20   D    
V3    O20   S    
C6    C17   A    
O19   C44   A    
C5    O26   S    
O3    C4    A    
O6    V2    S    
O11   C42   A    
O9    V2    S    
C26   H6    S    
C30   H10   S    
C10   C12   A    
C25   C26   D    
C3    C20   S    
O2    V1    S    
C32   C33   A    
C28   C39   A    
C8    H2    S    
O13   C44   A    
C34   C35   A    
C27   C39   A    
O1    C2    A    
O11   V4    S    
C12   C16   A    
O17   V3    S    
O5    V1    S    
O8    C3    A    
C28   C38   A    
C1    C26   S    
O29   H26   S    
O26   H23   S    
C5    C13   A    
C2    C28   S    
C13   C14   A    
O4    V1    S    
O3    V1    S    
V1    O10   S    
C23   H4    S    
C18   C43   S    
C17   N1    S    
N3    H19   S    
C24   C42   S    
O15   C43   A    
C41   O16   A    
O7    V2    S    
C34   C38   A    
C8    C9    A    
C27   C35   A    
O23   H16   S    
O14   C42   A    
C29   C30   A    
O18   V4    S    
H7    C36   S    
O28   H25   S    
C10   C11   A    
C25   O23   S    
N2    H17   S    
C9    C10   A    
C7    C18   A    
O16   V4    S    
