data_str_m3_o12_o15_f0_pcu.sym.161
_audit_creation_date              2012-12-10T17:16:36-0500
_audit_creation_method            fapswitch 2.2
_symmetry_space_group_name_H-M    P1
_symmetry_Int_Tables_number       1
_space_group_crystal_system       triclinic
_cell_length_a                    10.358145
_cell_length_b                    10.519668
_cell_length_c                    10.781489
_cell_angle_alpha                 92.88423
_cell_angle_beta                  95.210021
_cell_angle_gamma                 79.60774
_cell_volume                      1150.06037023

loop_
_atom_site_label
_atom_site_type_symbol
_atom_type_description
_atom_site_fract_x
_atom_site_fract_y
_atom_site_fract_z
_atom_type_partial_charge
C1    C     C_R   0.444681 0.503191 0.268047 0.989191
C2    C     C_R   0.555347 0.495661 0.732040 0.994318
C3    C     C_2   0.412401 0.507353 0.136125 -0.212607
C4    C     C_2   0.587427 0.487949 0.863903 -0.251171
C5    C     C_2   0.510483 0.478098 0.063259 -0.039057
C6    C     C_2   0.488894 0.513720 0.936539 -0.059757
C7    C     C_2   0.071693 0.488477 0.486496 0.339612
C8    C     C_2   0.928664 0.510387 0.514533 0.258187
C9    C     C_R   0.506583 0.259419 0.516547 0.932710
C10   C     C_R   0.492799 0.739719 0.480808 0.922736
C11   C     C_R   0.749923 0.062643 0.484200 -0.057078
C12   C     C_R   0.246192 0.936833 0.500024 -0.074858
C13   C     C_R   0.836434 0.996338 0.401989 -0.261104
C14   C     C_R   0.155244 0.007387 0.575761 -0.157924
C15   C     C_R   0.797749 0.900039 0.322355 -0.197625
C16   C     C_R   0.191575 0.104336 0.655999 -0.155893
C17   C     C_R   0.675424 0.863513 0.329603 0.495859
C18   C     C_R   0.316615 0.137083 0.655751 0.440792
C19   C     C_R   0.591772 0.922928 0.421902 -0.041126
C20   C     C_R   0.404209 0.075671 0.567385 -0.020106
C21   C     C_R   0.621288 0.035218 0.484892 0.032404
C22   C     C_R   0.375436 0.963433 0.503889 0.032186
C23   C     C_R   0.479003 0.877164 0.452501 -0.122923
C24   C     C_R   0.518554 0.120851 0.539233 -0.130014
H1    H     H_    0.123855 0.150261 0.722456 0.163162
H2    H     H_    0.861977 0.856207 0.252164 0.208876
H3    H     H_    0.783586 0.136747 0.545555 0.176494
H4    H     H_    0.215494 0.860463 0.439650 0.167783
H5    H     H_    0.930957 0.024044 0.395106 0.200487
H6    H     H_    0.059336 0.981497 0.578510 0.178765
H7    H     H_    0.389632 0.556643 0.901198 0.211340
H8    H     H_    0.609624 0.435009 0.098888 0.198262
H9    H     H_    0.687649 0.449749 0.900134 0.176844
H10   H     H_    0.312414 0.546294 0.099738 0.176511
H11   H     H_    0.865481 0.392059 0.371513 0.240558
H12   H     H_    0.135329 0.604421 0.630686 0.246898
N1    N     N_2   0.157300 0.551390 0.551120 -0.245966
N2    N     N_2   0.842700 0.448610 0.448880 -0.220016
O1    O     O_R   0.568940 0.489660 0.307530 -0.589644
O2    O     O_R   0.431060 0.510340 0.692470 -0.572975
O3    O     O_R   0.348880 0.522640 0.340350 -0.566835
O4    O     O_R   0.651120 0.477360 0.659650 -0.569341
O5    O     O_R   0.610030 0.300280 0.483580 -0.651236
O6    O     O_R   0.389970 0.699720 0.516420 -0.648061
O7    O     O_R   0.389970 0.333270 0.516400 -0.538029
O8    O     O_R   0.610030 0.666730 0.483600 -0.553310
Zn1   Zn    Zn3+2 0.646940 0.477980 0.478080 1.059057
Zn2   Zn    Zn3+2 0.353060 0.522020 0.521920 1.066367
S1    S     S_3+6 0.620210 0.773260 0.200093 0.017312
O9    O     O_2   0.703584 0.640802 0.199815 -0.313701
O10   O     O_2   0.477048 0.765733 0.201835 -0.361628
O11   O     O_3   0.641058 0.845937 0.069766 -0.491600
H13   H     H_    0.616241 0.787254 0.000441 0.395161
S2    S     S_3+6 0.368558 0.224680 0.788902 0.027166
O12   O     O_2   0.348832 0.156504 0.903147 -0.253642
O13   O     O_2   0.511707 0.233554 0.790933 -0.325482
O14   O     O_3   0.274867 0.372697 0.791684 -0.549104
H14   H     H_    0.188402 0.359545 0.815932 0.367897
S3    S     S_3+6 0.889479 0.624213 0.644425 0.040618
O15   O     O_2   0.750450 0.668649 0.674054 -0.233661
O16   O     O_2   0.963794 0.564412 0.759579 -0.294660
O17   O     O_3   0.945959 0.760550 0.620500 -0.566655
H15   H     H_    0.932369 0.771122 0.529389 0.326599
S4    S     S_3+6 0.111416 0.371402 0.359568 0.026925
O18   O     O_2   0.249479 0.332006 0.325313 -0.237682
O19   O     O_2   0.067003 0.248911 0.390035 -0.380628
O20   O     O_3   0.021972 0.431680 0.230610 -0.558548
H16   H     H_    0.014359 0.355639 0.174166 0.392566

loop_
_geom_bond_atom_site_label_1
_geom_bond_atom_site_label_2
_ccdc_geom_bond_type
C19   C21   A    
C10   O8    A    
C2    C4    S    
C9    C24   S    
C9    O7    A    
O17   H15   S    
C12   C22   A    
C10   C23   S    
C20   C22   A    
S2    O12   D    
C19   C23   A    
C11   H3    S    
C13   H5    S    
S1    O11   S    
S4    O18   D    
C5    H8    S    
S1    O10   D    
C6    H7    S    
O14   H14   S    
C14   H6    S    
C7    C8    S    
N1    Zn2   S    
C11   C13   A    
N2    Zn1   S    
C8    N2    D    
C2    O4    A    
C16   C18   A    
H12   N1    S    
C17   C19   A    
O3    Zn2   S    
C12   H4    S    
C18   C20   A    
O4    Zn1   S    
C13   C15   A    
C8    S3    S    
C7    N1    D    
C5    C6    S    
C20   C24   A    
C14   C16   A    
C7    S4    S    
C9    O5    A    
S3    O16   D    
C18   S2    S    
C10   O6    A    
O20   H16   S    
S3    O17   S    
S4    O20   S    
C2    O2    A    
S3    O15   D    
H11   N2    S    
O11   H13   S    
C4    C6    D    
S1    O9    D    
C21   C24   A    
C1    O3    A    
C16   H1    S    
C15   C17   A    
C4    H9    S    
C1    O1    A    
C22   C23   A    
C15   H2    S    
O7    Zn2   S    
C3    H10   S    
C1    C3    S    
O8    Zn1   S    
O1    Zn1   S    
O5    Zn1   S    
O2    Zn2   S    
C11   C21   A    
C17   S1    S    
O6    Zn2   S    
C12   C14   A    
S2    O13   D    
C3    C5    D    
S2    O14   S    
S4    O19   D    
