data_str_m9_o2_o18_f0_sra.sym.17
_audit_creation_date              2012-12-11T16:27:23-0500
_audit_creation_method            fapswitch 2.2
_symmetry_space_group_name_H-M    P1
_symmetry_Int_Tables_number       1
_space_group_crystal_system       triclinic
_cell_length_a                    21.686056
_cell_length_b                    6.9082
_cell_length_c                    14.730529
_cell_angle_alpha                 89.560822
_cell_angle_beta                  105.301484
_cell_angle_gamma                 89.391968
_cell_volume                      2128.32921057

loop_
_atom_site_label
_atom_site_type_symbol
_atom_type_description
_atom_site_fract_x
_atom_site_fract_y
_atom_site_fract_z
_atom_type_partial_charge
O1    O     O_R   0.835850 0.638310 0.002120 -0.549903
O2    O     O_R   0.164150 0.361690 0.997880 -0.549903
O3    O     O_R   0.664150 0.138310 0.997880 -0.530378
O4    O     O_R   0.335850 0.861690 0.002120 -0.530378
O5    O     O_R   0.717530 0.306070 0.861970 -0.526548
O6    O     O_R   0.282470 0.693930 0.138030 -0.526548
O7    O     O_R   0.782470 0.806070 0.138030 -0.546077
O8    O     O_R   0.217530 0.193930 0.861970 -0.546077
C1    C     C_R   0.704643 0.478470 0.824517 0.770870
C2    C     C_R   0.295357 0.521530 0.175483 0.770870
C3    C     C_R   0.795547 0.975532 0.175574 0.779043
C4    C     C_R   0.204453 0.024468 0.824426 0.779042
O9    O     O_R   0.838690 0.308440 0.993250 -0.525255
O10   O     O_R   0.161310 0.691560 0.006750 -0.525255
O11   O     O_R   0.661310 0.808440 0.006750 -0.546998
O12   O     O_R   0.338690 0.191560 0.993250 -0.546998
O13   O     O_R   0.786170 0.140510 0.130090 -0.531165
O14   O     O_R   0.213830 0.859490 0.869910 -0.531165
O15   O     O_R   0.713830 0.640510 0.869910 -0.549042
O16   O     O_R   0.286170 0.359490 0.130090 -0.549042
C5    C     C_R   0.865121 0.476493 0.996676 0.808656
C6    C     C_R   0.134878 0.523507 0.003324 0.808657
C7    C     C_R   0.634908 0.978459 0.003136 0.814311
C8    C     C_R   0.365092 0.021541 0.996864 0.814311
O17   O     O_3   0.732630 0.472520 0.044740 -0.372157
O18   O     O_3   0.267370 0.527480 0.955260 -0.372157
O19   O     O_3   0.767370 0.972520 0.955260 -0.374523
O20   O     O_3   0.232630 0.027480 0.044740 -0.374523
V1    V     V_3+5 0.753220 0.196740 0.991700 1.543832
V2    V     V_3+5 0.246780 0.803260 0.008300 1.543832
V3    V     V_3+5 0.746780 0.696740 0.008300 1.490562
V4    V     V_3+5 0.253220 0.303260 0.991700 1.490562
H1    H     H_    0.609187 0.113396 0.321867 0.171086
H2    H     H_    0.390813 0.886604 0.678133 0.171086
H3    H     H_    0.895793 0.365789 0.678259 0.172622
H4    H     H_    0.104207 0.634211 0.321741 0.172622
C9    C     C_R   0.536513 0.932741 0.831654 -0.283679
C10   C     C_R   0.463487 0.067259 0.168346 -0.283679
C11   C     C_R   0.961393 0.544320 0.168265 -0.284837
C12   C     C_R   0.038607 0.455680 0.831735 -0.284837
C13   C     C_R   0.490644 0.906791 0.746822 0.589426
C14   C     C_R   0.509356 0.093209 0.253178 0.589426
C15   C     C_R   0.005892 0.582739 0.252971 0.587598
C16   C     C_R   0.994108 0.417261 0.747029 0.587598
C17   C     C_R   0.426247 0.908881 0.744269 -0.270695
C18   C     C_R   0.573752 0.091119 0.255731 -0.270695
C19   C     C_R   0.069871 0.603238 0.255603 -0.271308
C20   C     C_R   0.930129 0.396761 0.744397 -0.271307
C21   C     C_R   0.406903 0.939453 0.826152 0.489528
C22   C     C_R   0.593097 0.060547 0.173848 0.489528
C23   C     C_R   0.090262 0.583586 0.173906 0.488808
C24   C     C_R   0.909738 0.416414 0.826094 0.488808
C25   C     C_R   0.452506 0.970850 0.913738 -0.026466
C26   C     C_R   0.547494 0.029150 0.086262 -0.026466
C27   C     C_R   0.046111 0.541941 0.086180 -0.027804
C28   C     C_R   0.953889 0.458059 0.913820 -0.027804
C29   C     C_R   0.518771 0.964323 0.916373 -0.101421
C30   C     C_R   0.481229 0.035677 0.083627 -0.101421
C31   C     C_R   0.980103 0.524262 0.083546 -0.098536
C32   C     C_R   0.019897 0.475738 0.916454 -0.098536
C33   C     C_R   0.433826 0.008894 0.997644 -0.092116
C34   C     C_R   0.566174 0.991106 0.002356 -0.092117
C35   C     C_R   0.066012 0.515746 0.002290 -0.092629
C36   C     C_R   0.933988 0.484254 0.997710 -0.092629
H5    H     H_    0.586054 0.929105 0.829753 0.142252
H6    H     H_    0.413946 0.070895 0.170247 0.142252
H7    H     H_    0.912195 0.528784 0.170366 0.143999
H8    H     H_    0.087805 0.471216 0.829634 0.143999
C37   C     C_R   0.176480 0.022997 0.722369 -0.050230
C38   C     C_R   0.823520 0.977003 0.277631 -0.050230
C39   C     C_R   0.323456 0.506408 0.277201 -0.052100
C40   C     C_R   0.676543 0.493592 0.722799 -0.052101
C41   C     C_R   0.184767 0.099479 0.565877 -0.169657
C42   C     C_R   0.815233 0.900521 0.434123 -0.169658
C43   C     C_R   0.314376 0.413384 0.431299 -0.167525
C44   C     C_R   0.685623 0.586616 0.568701 -0.167524
C45   C     C_R   0.212818 0.082039 0.662020 -0.119412
C46   C     C_R   0.787182 0.917961 0.337980 -0.119412
C47   C     C_R   0.286415 0.443576 0.335804 -0.124767
C48   C     C_R   0.713584 0.556424 0.664196 -0.124767
C49   C     C_R   0.111369 0.984564 0.686257 -0.171638
C50   C     C_R   0.888631 0.015435 0.313743 -0.171637
C51   C     C_R   0.388970 0.536887 0.314182 -0.174139
C52   C     C_R   0.611030 0.463113 0.685818 -0.174139
C53   C     C_R   0.080865 0.009395 0.588911 0.137627
C54   C     C_R   0.919135 0.990605 0.411089 0.137627
C55   C     C_R   0.419155 0.501417 0.410797 0.135548
C56   C     C_R   0.580845 0.498583 0.589203 0.135548
C57   C     C_R   0.119272 0.066559 0.529058 0.134865
C58   C     C_R   0.880728 0.933441 0.470942 0.134865
C59   C     C_R   0.380219 0.439149 0.468974 0.133598
C60   C     C_R   0.619781 0.560851 0.531026 0.133597
C61   C     C_R   0.013678 0.983952 0.549414 0.101083
C62   C     C_R   0.986322 0.016048 0.450586 0.101083
C63   C     C_R   0.486476 0.521714 0.451074 0.105391
C64   C     C_R   0.513524 0.478286 0.548926 0.105391
C65   C     C_R   0.027114 0.070905 0.394486 -0.087687
C66   C     C_R   0.972886 0.929095 0.605514 -0.087687
C67   C     C_R   0.472330 0.417231 0.603303 -0.082728
C68   C     C_R   0.527670 0.582769 0.396697 -0.082728
C69   C     C_R   0.092091 0.094859 0.433092 -0.180970
C70   C     C_R   0.907909 0.905141 0.566908 -0.180970
C71   C     C_R   0.407171 0.399157 0.564030 -0.179278
C72   C     C_R   0.592829 0.600843 0.435970 -0.179278
H9    H     H_    0.121338 0.138486 0.387223 0.126057
H10   H     H_    0.878662 0.861514 0.612777 0.126057
H11   H     H_    0.377585 0.350995 0.608588 0.124056
H12   H     H_    0.622415 0.649005 0.391412 0.124056
H13   H     H_    0.914187 0.056532 0.263215 0.090387
H14   H     H_    0.085813 0.943468 0.736785 0.090387
H15   H     H_    0.585073 0.418147 0.735225 0.091183
H16   H     H_    0.414927 0.581853 0.264775 0.091183
H17   H     H_    0.737237 0.882800 0.310665 0.168136
H18   H     H_    0.262763 0.117200 0.689335 0.168136
H19   H     H_    0.763987 0.584542 0.692451 0.167215
H20   H     H_    0.236013 0.415458 0.307549 0.167214
H21   H     H_    0.214035 0.143593 0.520320 0.113024
H22   H     H_    0.785965 0.856407 0.479680 0.113024
H23   H     H_    0.284675 0.365893 0.475611 0.113108
H24   H     H_    0.715325 0.634107 0.524389 0.113108
H25   H     H_    0.010513 0.097673 0.319906 0.118247
H26   H     H_    0.989487 0.902327 0.680094 0.118247
H27   H     H_    0.488734 0.381078 0.676991 0.117897
H28   H     H_    0.511266 0.618922 0.323009 0.117897
F1    F     F_    0.508855 0.879309 0.666538 -0.678919
F2    F     F_    0.491145 0.120691 0.333462 -0.678919
F3    F     F_    0.986772 0.599618 0.333135 -0.675783
F4    F     F_    0.013228 0.400382 0.666865 -0.675783
F5    F     F_    0.343274 0.935630 0.818060 -0.728733
F6    F     F_    0.656725 0.064370 0.181940 -0.728733
F7    F     F_    0.153460 0.607044 0.182574 -0.724913
F8    F     F_    0.846540 0.392956 0.817425 -0.724913

loop_
_geom_bond_atom_site_label_1
_geom_bond_atom_site_label_2
_ccdc_geom_bond_type
O17   V3    S    
C51   C55   A    
C4    C37   S    
C56   C64   A    
O1    C5    A    
C61   C62   A    
C12   C32   A    
C27   C31   A    
O19   V1    S    
O13   V1    S    
C37   C45   A    
O3    C7    A    
C63   C64   A    
C1    C40   S    
C68   C72   A    
O15   V3    S    
C39   C47   A    
C3    C38   S    
C29   C34   A    
O7    C3    A    
C31   C36   A    
C44   H24   S    
C32   C35   A    
O9    V1    S    
C10   C14   A    
C55   C59   A    
O16   V4    S    
O4    C8    A    
C38   C46   A    
C64   C67   A    
O1    V3    S    
H4    C19   S    
O2    V4    S    
C14   C18   A    
O3    V1    S    
C41   C45   A    
C58   C70   A    
C5    C36   S    
C65   H25   S    
C22   F6    S    
C6    C35   S    
C10   C30   A    
C53   C61   A    
C1    O15   A    
C7    C34   S    
C16   F4    S    
C56   C60   A    
C2    O16   A    
C27   C35   A    
O2    C6    A    
C28   C36   A    
O14   V2    S    
C54   C62   A    
C12   C16   A    
C39   C51   A    
C43   C59   A    
C2    C39   S    
C30   C33   A    
O11   C7    A    
O12   C8    A    
C47   H20   S    
C69   H9    S    
H1    C18   S    
C25   C33   A    
O10   V2    S    
H3    C20   S    
C41   H21   S    
O5    V1    S    
O17   V1    S    
C9    C29   A    
C42   H22   S    
C52   H15   S    
O7    V3    S    
O19   V3    S    
C24   F8    S    
C50   H13   S    
C13   F1    S    
O20   V4    S    
C43   H23   S    
C67   C71   A    
C54   C58   A    
C15   F3    S    
C25   C29   A    
O18   V4    S    
C19   C23   A    
C26   C34   A    
C62   C65   A    
C66   C70   A    
C21   F5    S    
O4    V2    S    
C28   C32   A    
C55   C63   A    
C68   H28   S    
O8    V4    S    
O5    C1    A    
C60   C72   A    
C48   H19   S    
C17   C21   A    
O8    C4    A    
C11   C31   A    
O9    C5    A    
H2    C17   S    
C22   C26   A    
C40   C52   A    
C44   C60   A    
C8    C33   S    
C9    H5    S    
O6    V2    S    
O18   V2    S    
C12   H8    S    
C46   H17   S    
C44   C48   A    
C45   H18   S    
C72   H12   S    
C67   H27   S    
C26   C30   A    
C66   H26   S    
C10   H6    S    
C3    O13   A    
C53   C57   A    
C57   C69   A    
C63   C68   A    
C11   H7    S    
C52   C56   A    
C59   C71   A    
O6    C2    A    
C11   C15   A    
O11   V3    S    
O12   V4    S    
C18   C22   A    
C42   C58   A    
O20   V2    S    
C41   C57   A    
C40   C48   A    
C50   C54   A    
O10   C6    A    
C43   C47   A    
C21   C25   A    
C70   H10   S    
C23   C27   A    
C9    C13   A    
C38   C50   A    
C65   C69   A    
C37   C49   A    
C14   F2    S    
C16   C20   A    
C20   C24   A    
C49   H14   S    
C23   F7    S    
C42   C46   A    
C4    O14   A    
C13   C17   A    
C51   H16   S    
C71   H11   S    
C15   C19   A    
C61   C66   A    
C49   C53   A    
C24   C28   A    
