data_str_m4_o15_o24_f0_acs.sym.35
_audit_creation_date              2012-12-11T14:28:22-0500
_audit_creation_method            fapswitch 2.2
_symmetry_space_group_name_H-M    P1
_symmetry_Int_Tables_number       1
_space_group_crystal_system       triclinic
_cell_length_a                    10.893138
_cell_length_b                    19.186238
_cell_length_c                    18.648077
_cell_angle_alpha                 90.258765
_cell_angle_beta                  89.650581
_cell_angle_gamma                 89.724539
_cell_volume                      3897.25932025

loop_
_atom_site_label
_atom_site_type_symbol
_atom_type_description
_atom_site_fract_x
_atom_site_fract_y
_atom_site_fract_z
_atom_type_partial_charge
C1    C     C_R   0.318584 0.964167 0.644631 0.542473
C2    C     C_3   0.144338 0.762809 0.037032 -0.114861
C3    C     C_3   0.978497 0.212766 0.982628 -0.116813
C4    C     C_3   0.496135 0.294901 0.480347 -0.112580
C5    C     C_3   0.518746 0.301880 0.025446 -0.108389
C6    C     C_3   0.588768 0.691704 0.529521 -0.137826
C7    C     C_3   0.506958 0.704595 0.977240 -0.106108
C8    C     C_3   0.131047 0.798406 0.505111 -0.133462
C9    C     C_3   0.068594 0.805114 0.982906 -0.122336
C10   C     C_3   0.186866 0.229298 0.484403 -0.123792
C11   C     C_3   0.096238 0.182886 0.017101 -0.119487
C12   C     C_3   0.631039 0.298404 0.505115 -0.133335
C13   C     C_3   0.162451 0.298522 0.524109 -0.102514
C14   C     C_3   0.650056 0.293439 0.994662 -0.115623
C15   C     C_3   0.686865 0.729299 0.484402 -0.123511
C16   C     C_3   0.638475 0.711966 0.006327 -0.116826
C17   C     C_3   0.097837 0.750876 0.568366 0.048299
C18   C     C_3   0.083011 0.746153 0.928160 0.054304
C19   C     C_3   0.088326 0.249355 0.429614 0.044271
C20   C     C_3   0.097367 0.245907 0.068592 0.062397
C21   C     C_3   0.597830 0.250873 0.568369 0.048380
C22   C     C_3   0.595757 0.253080 0.931280 0.054031
C23   C     C_3   0.588324 0.749356 0.429613 0.044359
C24   C     C_3   0.176795 0.224264 0.963908 -0.150061
C25   C     C_3   0.585932 0.752231 0.070941 0.053419
C26   C     C_3   0.964604 0.747698 0.545117 -0.152244
C27   C     C_3   0.964143 0.711668 0.953674 -0.146633
C28   C     C_3   0.990137 0.211135 0.473514 -0.132138
C29   C     C_3   0.979847 0.274919 0.035955 -0.147585
C30   C     C_3   0.464597 0.247693 0.545119 -0.152351
C31   C     C_3   0.465923 0.262354 0.960037 -0.143737
C32   C     C_3   0.490136 0.711135 0.473513 -0.132144
C33   C     C_3   0.455074 0.744167 0.043348 -0.139992
C34   C     C_3   0.996987 0.682217 0.500237 -0.138801
C35   C     C_3   0.662923 0.233159 0.460555 -0.104161
C36   C     C_3   0.040969 0.669130 0.007747 -0.126577
C37   C     C_3   0.965032 0.280178 0.513967 -0.102559
C38   C     C_3   0.060197 0.316177 0.983213 -0.108092
C39   C     C_3   0.496983 0.182214 0.500237 -0.138837
C40   C     C_3   0.480663 0.192081 0.999808 -0.134657
C41   C     C_3   0.465030 0.780178 0.513966 -0.103498
C42   C     C_3   0.468956 0.814255 0.002906 -0.133574
C43   C     C_3   0.131306 0.685860 0.524382 -0.093191
C44   C     C_3   0.160066 0.703740 0.981618 -0.098483
C45   C     C_3   0.063510 0.317877 0.468930 -0.105885
C46   C     C_3   0.665274 0.223629 0.034483 -0.118043
C47   C     C_3   0.178268 0.286930 0.016165 -0.101859
C48   C     C_3   0.631301 0.185858 0.524384 -0.093205
C49   C     C_3   0.612050 0.184011 0.970245 -0.111581
C50   C     C_3   0.563508 0.817878 0.468929 -0.105896
C51   C     C_3   0.600856 0.821860 0.031757 -0.108897
C52   C     C_3   0.662448 0.798524 0.524108 -0.102656
C53   C     C_3   0.653068 0.781721 0.966681 -0.119607
C54   C     C_3   0.029107 0.729365 0.436964 0.057863
C55   C     C_3   0.026288 0.727975 0.062516 0.053740
C56   C     C_3   0.064825 0.260231 0.568093 0.061307
C57   C     C_R   0.319172 0.968722 0.854750 0.525075
C58   C     C_3   0.061066 0.254439 0.931254 0.055191
C59   C     C_3   0.529102 0.229363 0.436965 0.057885
C60   C     C_3   0.534477 0.231534 0.063750 0.061852
C61   C     C_3   0.564823 0.760232 0.568093 0.059449
C62   C     C_3   0.522425 0.774238 0.938429 0.053946
C63   C     C_R   0.320500 0.031836 0.433206 -0.025961
C64   C     C_R   0.335366 0.990889 0.079061 -0.047609
C65   C     C_R   0.320040 0.989396 0.573130 -0.023980
C66   C     C_R   0.323632 0.998065 0.928466 -0.045648
C67   C     C_R   0.820500 0.531842 0.433208 -0.026202
C68   C     C_R   0.316231 0.058856 0.362102 0.532415
C69   C     C_R   0.824033 0.495626 0.074966 -0.044005
C70   C     C_R   0.820038 0.489401 0.573132 -0.023116
C71   C     C_R   0.831649 0.505214 0.924164 -0.045030
C72   C     C_R   0.546103 0.998806 0.429112 -0.086567
C73   C     C_R   0.561754 0.997355 0.071146 -0.084306
C74   C     C_R   0.544719 0.013681 0.576693 -0.076047
C75   C     C_R   0.546334 0.015818 0.923639 -0.080474
C76   C     C_R   0.046102 0.498809 0.429115 -0.086568
C77   C     C_R   0.043938 0.471432 0.076466 -0.092490
C78   C     C_R   0.044717 0.513686 0.576696 -0.075826
C79   C     C_R   0.322059 0.029014 0.147607 0.538211
C80   C     C_R   0.059207 0.501220 0.930225 -0.096742
C81   C     C_R   0.655542 0.994869 0.466855 -0.143494
C82   C     C_R   0.667755 0.006749 0.030384 -0.139159
C83   C     C_R   0.655483 0.007125 0.540268 -0.135995
C84   C     C_R   0.659564 0.014712 0.956558 -0.135249
C85   C     C_R   0.155540 0.494872 0.466859 -0.143469
C86   C     C_R   0.156057 0.467267 0.041126 -0.136019
C87   C     C_R   0.155481 0.507128 0.540272 -0.136065
C88   C     C_R   0.164647 0.484162 0.968646 -0.144109
C89   C     C_R   0.432493 0.005644 0.539781 -0.014992
C90   C     C_R   0.818583 0.464169 0.644632 0.540183
C91   C     C_R   0.438182 0.003365 0.962970 -0.003771
C92   C     C_R   0.432927 0.010757 0.465452 -0.013503
C93   C     C_R   0.445058 0.997307 0.038499 -0.001258
C94   C     C_R   0.932491 0.505650 0.539783 -0.014748
C95   C     C_R   0.942401 0.498793 0.963560 -0.014239
C96   C     C_R   0.932926 0.510763 0.465455 -0.013738
C97   C     C_R   0.936801 0.489151 0.038886 -0.018899
C98   C     C_R   0.207616 0.990378 0.533704 0.001709
C99   C     C_R   0.215320 0.994170 0.971218 0.000948
C100  C     C_R   0.207737 0.028227 0.471788 -0.004112
C101  C     C_R   0.821047 0.470353 0.853317 0.531550
C102  C     C_R   0.225555 0.976163 0.043653 -0.004465
C103  C     C_R   0.707615 0.490383 0.533706 0.002010
C104  C     C_R   0.720752 0.515356 0.961820 0.007653
C105  C     C_R   0.707736 0.528232 0.471790 -0.004163
C106  C     C_R   0.714684 0.496728 0.034269 0.015146
C107  C     C_R   0.094556 0.956985 0.552719 -0.084165
C108  C     C_R   0.096175 0.005011 0.943861 -0.093213
C109  C     C_R   0.093109 0.055334 0.448309 -0.084667
C110  C     C_R   0.121527 0.951696 0.081334 -0.078499
C111  C     C_R   0.594554 0.456989 0.552721 -0.084093
C112  C     C_R   0.816231 0.558860 0.362102 0.532710
C113  C     C_R   0.612692 0.537611 0.927180 -0.076877
C114  C     C_R   0.593108 0.555338 0.448310 -0.084697
C115  C     C_R   0.598145 0.483853 0.064861 -0.075736
C116  C     C_R   0.984187 0.975929 0.521987 -0.139306
C117  C     C_R   0.993417 0.984880 0.983177 -0.151002
C118  C     C_R   0.982651 0.029787 0.473544 -0.132680
C119  C     C_R   0.005749 0.956539 0.051199 -0.130474
C120  C     C_R   0.484185 0.475934 0.521990 -0.139250
C121  C     C_R   0.499093 0.529908 0.960206 -0.124230
C122  C     C_R   0.482650 0.529792 0.473546 -0.132546
C123  C     C_R   0.819904 0.529785 0.146467 0.534895
C124  C     C_R   0.491966 0.502539 0.028792 -0.126342
C125  C     C_R   0.140173 0.759601 0.641356 0.545321
C126  C     C_R   0.130845 0.757125 0.855622 0.539184
C127  C     C_R   0.129627 0.242885 0.355207 0.526073
C128  C     C_R   0.133608 0.241680 0.143458 0.541527
C129  C     C_R   0.640167 0.259599 0.641358 0.544351
C130  C     C_R   0.637437 0.259512 0.857854 0.549665
C131  C     C_R   0.629625 0.742886 0.355206 0.526309
C132  C     C_R   0.634332 0.741891 0.143157 0.540323
C133  C     C_R   0.540925 0.770672 0.643831 0.549365
C134  C     C_3   0.162928 0.733160 0.460553 -0.104263
C135  C     C_R   0.495915 0.787843 0.862728 0.566204
C136  C     C_R   0.498159 0.213445 0.362894 0.547580
C137  C     C_R   0.500769 0.214117 0.136978 0.569994
C138  C     C_R   0.040925 0.270672 0.643830 0.542256
C139  C     C_R   0.039810 0.269872 0.856070 0.544661
C140  C     C_R   0.998161 0.713446 0.362894 0.547213
C141  C     C_R   0.997407 0.712797 0.137288 0.564907
C142  C     C_3   0.996143 0.794904 0.480345 -0.112695
C143  C     C_3   0.949034 0.770844 0.010128 -0.133317
C144  C     C_3   0.088768 0.191703 0.529522 -0.137984
Cr1   Cr    Cr6+3 0.488160 0.884660 0.750000 0.998432
Cr2   Cr    Cr6+3 0.333410 0.272740 0.250000 1.003729
Cr3   Cr    Cr6+3 0.833410 0.227260 0.750000 1.005740
Cr4   Cr    Cr6+3 0.833410 0.772740 0.250000 1.002036
Cr5   Cr    Cr6+3 0.488160 0.115340 0.250000 0.991277
Cr6   Cr    Cr6+3 0.988160 0.384660 0.750000 0.998082
Cr7   Cr    Cr6+3 0.988160 0.615340 0.250000 0.994313
Cr8   Cr    Cr6+3 0.173480 0.883120 0.750000 0.995429
Cr9   Cr    Cr6+3 0.173480 0.116880 0.250000 0.996678
Cr10  Cr    Cr6+3 0.673480 0.383120 0.750000 1.005804
Cr11  Cr    Cr6+3 0.673480 0.616880 0.250000 0.997828
Cr12  Cr    Cr6+3 0.333410 0.727260 0.750000 1.003408
H1    H     H_    0.191268 0.844463 0.504538 0.107750
H2    H     H_    0.905452 0.987216 0.958857 0.109325
H3    H     H_    0.897719 0.050470 0.453073 0.102871
H4    H     H_    0.926436 0.937800 0.080339 0.113002
H5    H     H_    0.401182 0.449060 0.536914 0.097235
H6    H     H_    0.417128 0.546014 0.932447 0.094715
H7    H     H_    0.397717 0.550474 0.453076 0.102903
H8    H     H_    0.405112 0.498336 0.055503 0.103572
H9    H     H_    0.886771 0.752760 0.583398 0.112875
H10   H     H_    0.891648 0.690648 0.918156 0.108082
H11   H     H_    0.919993 0.175809 0.451161 0.099977
H12   H     H_    0.085688 0.858969 0.965791 0.158397
H13   H     H_    0.901953 0.297055 0.067294 0.104609
H14   H     H_    0.386763 0.252754 0.583400 0.111899
H15   H     H_    0.392622 0.282559 0.924753 0.116876
H16   H     H_    0.419992 0.675810 0.451160 0.100028
H17   H     H_    0.380973 0.724684 0.078664 0.119503
H18   H     H_    0.935739 0.637329 0.499152 0.109116
H19   H     H_    0.031993 0.614112 0.022848 0.147567
H20   H     H_    0.875917 0.302279 0.531087 0.109223
H21   H     H_    0.037976 0.368773 0.964689 0.164839
H22   H     H_    0.435737 0.137324 0.499151 0.109116
H23   H     H_    0.273468 0.205643 0.465945 0.099248
H24   H     H_    0.411654 0.149975 0.004391 0.114260
H25   H     H_    0.375916 0.802280 0.531087 0.109156
H26   H     H_    0.397454 0.855359 0.999381 0.115786
H27   H     H_    0.190900 0.642927 0.543232 0.138840
H28   H     H_    0.245673 0.674588 0.969149 0.125052
H29   H     H_    0.048839 0.366959 0.440018 0.129039
H30   H     H_    0.258087 0.319355 0.031073 0.127020
H31   H     H_    0.690896 0.142925 0.543234 0.138796
H32   H     H_    0.658272 0.140733 0.942749 0.139732
H33   H     H_    0.548833 0.866959 0.440016 0.129071
H34   H     H_    0.110884 0.128028 0.033636 0.149613
H35   H     H_    0.644003 0.868175 0.056055 0.135114
H36   H     H_    0.241372 0.728632 0.422755 0.126920
H37   H     H_    0.210894 0.787324 0.073883 0.113170
H38   H     H_    0.232312 0.334645 0.545950 0.115749
H39   H     H_    0.249083 0.199421 0.930425 0.100863
H40   H     H_    0.741369 0.228632 0.422760 0.127006
H41   H     H_    0.744828 0.206338 0.066829 0.129410
H42   H     H_    0.732310 0.834647 0.545948 0.115923
H43   H     H_    0.731920 0.797783 0.932736 0.133573
H44   H     H_    0.739370 0.982471 0.438441 0.109360
H45   H     H_    0.691259 0.344461 0.504544 0.107744
H46   H     H_    0.755741 0.008777 0.056513 0.108965
H47   H     H_    0.740012 0.010944 0.569768 0.106501
H48   H     H_    0.738641 0.026579 0.924084 0.094056
H49   H     H_    0.239369 0.482471 0.438446 0.109501
H50   H     H_    0.234263 0.447965 0.070096 0.107051
H51   H     H_    0.240010 0.510946 0.569773 0.106490
H52   H     H_    0.251439 0.479905 0.940977 0.113691
H53   H     H_    0.552772 0.986051 0.372925 0.150207
H54   H     H_    0.573030 0.986913 0.127645 0.133343
H55   H     H_    0.548705 0.025209 0.633371 0.135714
H56   H     H_    0.719426 0.335417 0.989884 0.119343
H57   H     H_    0.544518 0.029991 0.867591 0.128899
H58   H     H_    0.052771 0.486053 0.372929 0.150488
H59   H     H_    0.040332 0.457009 0.132512 0.133554
H60   H     H_    0.048701 0.525214 0.633374 0.135892
H61   H     H_    0.069872 0.515371 0.874473 0.137293
H62   H     H_    0.086159 0.096310 0.410334 0.174487
H63   H     H_    0.129774 0.930943 0.135055 0.137354
H64   H     H_    0.087724 0.913491 0.588391 0.174725
H65   H     H_    0.081312 0.028507 0.891982 0.141523
H66   H     H_    0.586157 0.596312 0.410333 0.174337
H67   H     H_    0.773468 0.705646 0.465945 0.099193
H68   H     H_    0.588615 0.460835 0.117506 0.135490
H69   H     H_    0.587722 0.413495 0.588392 0.174472
H70   H     H_    0.615884 0.559621 0.873796 0.130358
H71   H     H_    0.939395 0.838809 0.460386 0.132941
H72   H     H_    0.867530 0.800869 0.028057 0.125208
H73   H     H_    0.101106 0.142339 0.559387 0.132072
H74   H     H_    0.898113 0.181384 0.966079 0.125660
H75   H     H_    0.439387 0.338806 0.460390 0.132956
H76   H     H_    0.479215 0.349641 0.050269 0.118490
H77   H     H_    0.601106 0.642341 0.559387 0.132465
H78   H     H_    0.708002 0.669611 0.009530 0.118751
H79   H     H_    0.462761 0.660234 0.950609 0.124058
H80   H     H_    0.901183 0.949055 0.536911 0.097406
O1    O     O_R   0.575450 0.828820 0.667950 -0.519704
O2    O     O_R   0.416860 0.942890 0.825320 -0.518174
O3    O     O_R   0.416860 0.057110 0.325320 -0.528829
O4    O     O_R   0.416860 0.057110 0.174680 -0.518477
O5    O     O_R   0.916860 0.442890 0.674680 -0.512709
O6    O     O_R   0.916860 0.442890 0.825320 -0.510945
O7    O     O_R   0.916860 0.557110 0.325320 -0.527805
O8    O     O_R   0.916860 0.557110 0.174680 -0.514694
O9    O     O_R   0.213790 0.953680 0.668330 -0.540206
O10   O     O_R   0.213790 0.953680 0.831670 -0.523965
O11   O     O_R   0.213790 0.046320 0.331670 -0.518990
O12   O     O_R   0.575450 0.828820 0.832050 -0.518328
O13   O     O_R   0.213790 0.046320 0.168330 -0.509618
O14   O     O_R   0.713790 0.453680 0.668330 -0.542607
O15   O     O_R   0.713790 0.453680 0.831670 -0.512782
O16   O     O_R   0.713790 0.546320 0.331670 -0.518143
O17   O     O_R   0.713790 0.546320 0.168330 -0.513443
O18   O     O_R   0.121360 0.817890 0.672660 -0.527798
O19   O     O_R   0.121360 0.817890 0.827340 -0.506143
O20   O     O_R   0.121360 0.182110 0.327340 -0.542119
O21   O     O_R   0.121360 0.182110 0.172660 -0.503320
O22   O     O_R   0.621360 0.317890 0.672660 -0.530027
O23   O     O_R   0.575450 0.171180 0.332050 -0.517407
O24   O     O_R   0.621360 0.317890 0.827340 -0.498806
O25   O     O_R   0.621360 0.682110 0.327340 -0.542346
O26   O     O_R   0.621360 0.682110 0.172660 -0.496205
O27   O     O_R   0.206850 0.711370 0.665820 -0.528633
O28   O     O_R   0.206850 0.711370 0.834180 -0.537125
O29   O     O_R   0.206850 0.288630 0.334180 -0.526810
O30   O     O_R   0.206850 0.288630 0.165820 -0.538818
O31   O     O_R   0.706850 0.211370 0.665820 -0.528713
O32   O     O_R   0.706850 0.211370 0.834180 -0.540786
O33   O     O_R   0.706850 0.788630 0.334180 -0.526511
O34   O     O_R   0.575450 0.171180 0.167950 -0.513248
O35   O     O_R   0.706850 0.788630 0.165820 -0.543864
O36   O     O_R   0.457710 0.733190 0.672630 -0.503042
O37   O     O_R   0.457710 0.733190 0.827370 -0.515918
O38   O     O_R   0.457710 0.266810 0.327370 -0.494511
O39   O     O_R   0.457710 0.266810 0.172630 -0.506306
O40   O     O_R   0.957710 0.233190 0.672630 -0.507086
O41   O     O_R   0.957710 0.233190 0.827370 -0.512243
O42   O     O_R   0.957710 0.766810 0.327370 -0.495171
O43   O     O_R   0.957710 0.766810 0.172630 -0.503315
O44   O     O_3   0.331690 0.831680 0.750000 -0.273932
O45   O     O_R   0.075450 0.328820 0.667950 -0.522776
O46   O     O_3   0.331690 0.168320 0.250000 -0.300541
O47   O     O_3   0.831690 0.331680 0.750000 -0.257019
O48   O     O_3   0.831690 0.668320 0.250000 -0.303198
O49   O     O_R   0.075450 0.328820 0.832050 -0.524362
O50   O     O_R   0.075450 0.671180 0.332050 -0.517119
O51   O     O_R   0.075450 0.671180 0.167950 -0.511287
O52   O     O_R   0.416860 0.942890 0.674680 -0.511842

loop_
_geom_bond_atom_site_label_1
_geom_bond_atom_site_label_2
_ccdc_geom_bond_type
C6    C32   S    
C71   C104  A    
C73   C82   A    
C73   C93   A    
C74   C83   A    
Cr9   O21   S    
C9    C143  S    
C61   C133  S    
C142  H71   S    
C65   C89   A    
C90   O14   A    
C2    C55   S    
C117  C119  A    
C86   C88   A    
C71   C95   A    
C69   C123  S    
C54   C134  S    
C109  H62   S    
C40   H24   S    
C37   C56   S    
C50   C52   S    
C28   C144  S    
Cr6   O49   S    
C41   C61   S    
C4    C12   S    
C21   C48   S    
C84   H48   S    
C32   H16   S    
C100  C109  A    
C22   C130  S    
C7    C33   S    
C88   H52   S    
C8    H1    S    
C3    H74   S    
Cr3   O41   S    
C109  C118  A    
C11   C20   S    
C111  H69   S    
C140  O42   A    
C144  H73   S    
C141  O43   A    
C82   H46   S    
C70   C103  A    
C67   C105  A    
C24   H39   S    
C137  O39   A    
C17   C43   S    
C7    C62   S    
C34   H18   S    
C18   C44   S    
C73   H54   S    
C69   C106  A    
C47   H30   S    
C94   C96   A    
Cr8   O9    S    
C35   H40   S    
C22   C49   S    
C34   C54   S    
C82   C84   A    
C13   H38   S    
C64   C79   S    
C36   C44   S    
C52   H42   S    
C37   C45   S    
C39   H22   S    
Cr10  O24   S    
C16   C25   S    
C127  O29   A    
C46   C60   S    
C139  O41   A    
Cr2   O38   S    
Cr7   O51   S    
C137  O34   A    
C130  O24   A    
C95   C97   A    
C106  C115  A    
C8    C17   S    
Cr4   O43   S    
C74   H55   S    
C52   C61   S    
C11   H34   S    
C2    H37   S    
C80   C88   A    
C36   C55   S    
C1    O9    A    
C76   C96   A    
C13   C45   S    
C45   H29   S    
C49   H32   S    
C78   C94   A    
C138  O45   A    
C43   H27   S    
Cr5   O3    S    
C116  C118  A    
Cr6   O47   S    
C101  O6    A    
C20   C47   S    
C3    C11   S    
Cr7   O7    S    
Cr11  O25   S    
C67   C112  S    
C36   H19   S    
C135  O37   A    
C76   C85   A    
C1    O52   A    
C78   C87   A    
C40   C60   S    
C57   C66   S    
C81   H44   S    
C85   H49   S    
C64   C102  A    
C99   C108  A    
C10   H23   S    
C6    C61   S    
C103  C111  A    
Cr5   O34   S    
C75   C84   A    
C40   C49   S    
C59   C136  S    
C3    C29   S    
C50   H33   S    
Cr12  O28   S    
Cr6   O5    S    
Cr5   O23   S    
C2    C44   S    
C29   C38   S    
C1    C65   S    
C32   C41   S    
C77   C97   A    
C42   C62   S    
Cr10  O22   S    
C75   C91   A    
C13   C56   S    
C38   H21   S    
C133  O1    A    
C79   O4    A    
C81   C83   A    
C55   C143  S    
C8    C134  S    
C53   H43   S    
C80   H61   S    
Cr10  O14   S    
C75   H57   S    
C51   C53   S    
Cr6   O45   S    
C62   C135  S    
Cr2   O29   S    
C19   C28   S    
C27   C143  S    
C72   H53   S    
Cr1   O2    S    
C23   C131  S    
C103  C105  A    
C10   C144  S    
C12   C35   S    
C110  H63   S    
C21   C129  S    
C51   H35   S    
C132  O26   A    
C63   C68   S    
C5    C60   S    
Cr9   O46   S    
Cr4   O33   S    
C6    H77   S    
C9    H12   S    
C34   C43   S    
C57   O10   A    
C110  C119  A    
C19   C45   S    
C80   C95   A    
C29   H13   S    
C128  O21   A    
C14   C22   S    
Cr7   O48   S    
C18   C126  S    
C108  H65   S    
C31   H15   S    
C28   C37   S    
Cr4   O42   S    
C30   C39   S    
C125  O18   A    
C107  C116  A    
C104  C113  A    
C76   H58   S    
C9    C18   S    
C113  C121  A    
C128  O30   A    
C140  O50   A    
C25   C132  S    
C141  O51   A    
C25   C33   S    
C131  O25   A    
C69   C97   A    
C117  H2    S    
C26   H9    S    
C55   C141  S    
C104  C106  A    
C118  H3    S    
C14   C46   S    
C42   H26   S    
C46   C49   S    
C70   C94   A    
C65   C98   A    
Cr12  O44   S    
C72   C92   A    
C31   C40   S    
C35   C59   S    
C30   H14   S    
C38   C58   S    
Cr8   O10   S    
C72   C81   A    
Cr2   O46   S    
C130  O32   A    
C71   C101  S    
Cr4   O35   S    
C41   H25   S    
Cr10  O47   S    
C101  O15   A    
C35   C48   S    
C108  C117  A    
C7    H79   S    
C4    H75   S    
C48   H31   S    
C83   H47   S    
Cr2   O39   S    
Cr3   O32   S    
C133  O36   A    
C98   C107  A    
C43   C134  S    
C91   C93   A    
Cr3   O47   S    
C115  H68   S    
C16   H78   S    
C10   C19   S    
C39   C59   S    
C125  O27   A    
C136  O23   A    
C5    H76   S    
C126  O28   A    
C15   C52   S    
C114  H66   S    
C5    C14   S    
C7    C16   S    
C54   C142  S    
C98   C100  A    
C102  C110  A    
C33   C42   S    
C41   C50   S    
C46   H41   S    
C77   H59   S    
C115  C124  A    
C136  O38   A    
C23   C50   S    
C68   O3    A    
Cr8   O19   S    
Cr11  O16   S    
Cr12  O36   S    
C27   C36   S    
Cr1   O52   S    
C21   C30   S    
C14   H56   S    
C23   C32   S    
C37   H20   S    
C113  H70   S    
C121  H6    S    
Cr9   O11   S    
C15   H67   S    
C123  O17   A    
C27   H10   S    
C107  H64   S    
C56   C144  S    
C3    C58   S    
Cr6   O6    S    
C99   C102  A    
C24   C58   S    
C8    C142  S    
C39   C48   S    
C124  H8    S    
C58   C139  S    
Cr11  O17   S    
C143  H72   S    
C86   H50   S    
C132  O35   A    
C17   C26   S    
C74   C89   A    
C64   C93   A    
C20   C128  S    
Cr10  O15   S    
C11   C24   S    
Cr5   O4    S    
C139  O49   A    
C134  H36   S    
Cr11  O48   S    
Cr2   O30   S    
C16   C53   S    
C121  C124  A    
Cr8   O44   S    
C28   H11   S    
C6    C15   S    
Cr11  O26   S    
C26   C34   S    
C112  O7    A    
C54   C140  S    
C119  H4    S    
Cr1   O1    S    
C63   C92   A    
Cr5   O46   S    
C126  O19   A    
C33   H17   S    
C44   H28   S    
Cr3   O40   S    
C129  O31   A    
C60   C137  S    
C15   C23   S    
Cr7   O8    S    
C79   O13   A    
C116  H80   S    
C70   C90   S    
C123  O8    A    
C120  C122  A    
C112  O16   A    
C20   C29   S    
C85   C87   A    
C68   O11   A    
C22   C31   S    
C127  O20   A    
C105  C114  A    
Cr3   O31   S    
C129  O22   A    
C78   H60   S    
Cr9   O13   S    
C12   C21   S    
C122  H7    S    
C138  O40   A    
C111  C120  A    
C66   C99   A    
C25   C51   S    
C63   C100  A    
Cr12  O27   S    
C56   C138  S    
C53   C62   S    
C131  O33   A    
Cr12  O37   S    
C12   H45   S    
C89   C92   A    
C87   H51   S    
C38   C47   S    
C120  H5    S    
Cr9   O20   S    
C77   C86   A    
C67   C96   A    
Cr1   O44   S    
Cr7   O50   S    
Cr4   O48   S    
Cr1   O12   S    
C24   C47   S    
C135  O12   A    
C18   C27   S    
C57   O2    A    
C10   C13   S    
C66   C91   A    
C42   C51   S    
Cr8   O18   S    
C2    C9    S    
C17   C125  S    
C4    C59   S    
C19   C127  S    
C114  C122  A    
C90   O5    A    
C26   C142  S    
C4    C30   S    
C5    C31   S    
