data_str_m9_o18_o18_f0_sra.sym.41
_audit_creation_date              2012-12-11T15:26:37-0500
_audit_creation_method            fapswitch 2.2
_symmetry_space_group_name_H-M    P1
_symmetry_Int_Tables_number       1
_space_group_crystal_system       monoclinic
_cell_length_a                    7.215437
_cell_length_b                    12.074795
_cell_length_c                    29.069559
_cell_angle_alpha                 90.0
_cell_angle_beta                  92.581075
_cell_angle_gamma                 90.0
_cell_volume                      2530.11366831

loop_
_atom_site_label
_atom_site_type_symbol
_atom_type_description
_atom_site_fract_x
_atom_site_fract_y
_atom_site_fract_z
_atom_type_partial_charge
O1    O     O_R   0.647170 0.849180 0.201220 -0.535009
O2    O     O_R   0.352830 0.150820 0.798780 -0.535009
O3    O     O_R   0.352830 0.150820 0.701220 -0.538440
O4    O     O_R   0.647170 0.849180 0.298780 -0.538440
O5    O     O_R   0.147170 0.650820 0.298780 -0.538440
O6    O     O_R   0.852830 0.349180 0.701220 -0.538440
O7    O     O_R   0.852830 0.349180 0.798780 -0.535009
O8    O     O_R   0.147170 0.650820 0.201220 -0.535009
O9    O     O_R   0.317430 0.862210 0.298450 -0.532291
O10   O     O_R   0.682570 0.137790 0.701550 -0.532291
O11   O     O_R   0.682570 0.137790 0.798450 -0.536349
O12   O     O_R   0.317430 0.862210 0.201550 -0.536349
O13   O     O_R   0.817430 0.637790 0.201550 -0.536349
O14   O     O_R   0.182570 0.362210 0.798450 -0.536349
O15   O     O_R   0.182570 0.362210 0.701550 -0.532291
O16   O     O_R   0.817430 0.637790 0.298450 -0.532291
H1    H     H_    0.214401 0.250762 0.460366 0.143407
H2    H     H_    0.785598 0.749238 0.539634 0.143407
H3    H     H_    0.173794 0.760670 0.960407 0.142922
H4    H     H_    0.826206 0.239330 0.039593 0.142922
H5    H     H_    0.326204 0.260669 0.039593 0.142922
H6    H     H_    0.673796 0.739331 0.960407 0.142922
H7    H     H_    0.285597 0.750762 0.539634 0.143407
H8    H     H_    0.714404 0.249237 0.460366 0.143407
C1    C     C_R   0.489088 0.888793 0.313177 0.759015
C2    C     C_R   0.510911 0.111207 0.686823 0.759016
C3    C     C_R   0.517365 0.111181 0.813295 0.757172
C4    C     C_R   0.482635 0.888818 0.186705 0.757172
C5    C     C_R   0.982635 0.611181 0.186705 0.757172
C6    C     C_R   0.017365 0.388819 0.813295 0.757172
C7    C     C_R   0.010911 0.388793 0.686823 0.759016
C8    C     C_R   0.989089 0.611207 0.313177 0.759015
H9    H     H_    0.213669 0.285385 0.378977 0.167059
H10   H     H_    0.786331 0.714615 0.621023 0.167059
H11   H     H_    0.181219 0.726581 0.879137 0.166796
H12   H     H_    0.818781 0.273419 0.120863 0.166796
H13   H     H_    0.318779 0.226581 0.120863 0.166796
H14   H     H_    0.681221 0.773419 0.879137 0.166796
H15   H     H_    0.286331 0.785385 0.621023 0.167059
H16   H     H_    0.713669 0.214615 0.378977 0.167059
H17   H     H_    0.108123 0.356181 0.602488 0.118339
H18   H     H_    0.891876 0.643819 0.397512 0.118339
H19   H     H_    0.077924 0.649798 0.102458 0.118438
H20   H     H_    0.922076 0.350201 0.897542 0.118438
H21   H     H_    0.422075 0.149798 0.897542 0.118438
H22   H     H_    0.577925 0.850202 0.102458 0.118439
H23   H     H_    0.391877 0.856180 0.397512 0.118339
H24   H     H_    0.608123 0.143819 0.602488 0.118339
O17   O     O_3   0.480630 0.680630 0.250000 -0.370755
O18   O     O_3   0.519370 0.319370 0.750000 -0.370755
O19   O     O_3   0.980630 0.819370 0.250000 -0.370755
O20   O     O_3   0.019370 0.180630 0.750000 -0.370755
V1    V     V_3+5 0.205800 0.762860 0.250000 1.571889
V2    V     V_3+5 0.794200 0.237140 0.750000 1.571889
V3    V     V_3+5 0.705800 0.737140 0.250000 1.571889
V4    V     V_3+5 0.294200 0.262860 0.750000 1.571889
H25   H     H_    0.156454 0.305043 0.536588 0.127782
H26   H     H_    0.843546 0.694957 0.463412 0.127782
H27   H     H_    0.122459 0.703033 0.036584 0.127622
H28   H     H_    0.877541 0.296966 0.963416 0.127622
H29   H     H_    0.377538 0.203033 0.963416 0.127622
H30   H     H_    0.622462 0.796967 0.036584 0.127622
H31   H     H_    0.343544 0.805044 0.463412 0.127783
H32   H     H_    0.656457 0.194956 0.536588 0.127783
C9    C     C_R   0.010356 0.531890 0.351426 -0.125780
C10   C     C_R   0.989644 0.468110 0.648574 -0.125780
C11   C     C_R   0.022383 0.468965 0.851496 -0.127098
C12   C     C_R   0.977617 0.531035 0.148504 -0.127098
C13   C     C_R   0.477617 0.968965 0.148504 -0.127098
C14   C     C_R   0.522383 0.031035 0.851496 -0.127098
C15   C     C_R   0.489644 0.031890 0.648574 -0.125780
C16   C     C_R   0.510355 0.968110 0.351426 -0.125780
C17   C     C_R   0.142390 0.363314 0.383862 -0.200972
C18   C     C_R   0.857610 0.636685 0.616138 -0.200972
C19   C     C_R   0.123404 0.644701 0.883984 -0.202709
C20   C     C_R   0.876596 0.355299 0.116016 -0.202709
C21   C     C_R   0.376595 0.144700 0.116016 -0.202709
C22   C     C_R   0.623405 0.855300 0.883984 -0.202709
C23   C     C_R   0.357610 0.863315 0.616138 -0.200972
C24   C     C_R   0.642390 0.136685 0.383862 -0.200972
C25   C     C_R   0.104012 0.431120 0.345877 0.411008
C26   C     C_R   0.895988 0.568880 0.654123 0.411008
C27   C     C_R   0.098266 0.575081 0.846034 0.414576
C28   C     C_R   0.901734 0.424919 0.153966 0.414577
C29   C     C_R   0.401733 0.075081 0.153966 0.414577
C30   C     C_R   0.598267 0.924919 0.846034 0.414576
C31   C     C_R   0.395988 0.931120 0.654123 0.411008
C32   C     C_R   0.604012 0.068880 0.345877 0.411008
C33   C     C_R   0.959955 0.564761 0.395376 -0.290164
C34   C     C_R   0.040045 0.435239 0.604624 -0.290165
C35   C     C_R   0.975948 0.433103 0.895393 -0.291778
C36   C     C_R   0.024052 0.566897 0.104607 -0.291778
C37   C     C_R   0.524052 0.933103 0.104607 -0.291778
C38   C     C_R   0.475948 0.066897 0.895393 -0.291778
C39   C     C_R   0.540045 0.064761 0.604624 -0.290164
C40   C     C_R   0.459955 0.935239 0.395376 -0.290165
C41   C     C_R   0.007214 0.499972 0.434922 0.088396
C42   C     C_R   0.992786 0.500028 0.565078 0.088396
C43   C     C_R   0.010017 0.500447 0.934936 0.089240
C44   C     C_R   0.989983 0.499553 0.065064 0.089240
C45   C     C_R   0.489983 0.000447 0.065064 0.089239
C46   C     C_R   0.510017 0.999553 0.934936 0.089240
C47   C     C_R   0.492786 0.999972 0.565078 0.088396
C48   C     C_R   0.507214 0.000028 0.434922 0.088396
C49   C     C_R   0.097292 0.397190 0.428100 0.051484
C50   C     C_R   0.902708 0.602810 0.571900 0.051484
C51   C     C_R   0.082622 0.608132 0.928150 0.051715
C52   C     C_R   0.917378 0.391868 0.071850 0.051715
C53   C     C_R   0.417377 0.108132 0.071850 0.051715
C54   C     C_R   0.582623 0.891868 0.928150 0.051715
C55   C     C_R   0.402707 0.897190 0.571900 0.051484
C56   C     C_R   0.597293 0.102810 0.428100 0.051484
C57   C     C_R   0.972705 0.534824 0.480895 0.068459
C58   C     C_R   0.027295 0.465176 0.519104 0.068459
C59   C     C_R   0.979416 0.463744 0.980898 0.068226
C60   C     C_R   0.020584 0.536256 0.019102 0.068226
C61   C     C_R   0.520584 0.963744 0.019102 0.068226
C62   C     C_R   0.479416 0.036256 0.980898 0.068226
C63   C     C_R   0.527296 0.034823 0.519104 0.068459
C64   C     C_R   0.472704 0.965176 0.480895 0.068459
C65   C     C_R   0.112590 0.362567 0.510018 -0.192751
C66   C     C_R   0.887409 0.637433 0.489982 -0.192751
C67   C     C_R   0.089056 0.643338 0.010019 -0.193417
C68   C     C_R   0.910943 0.356662 0.989981 -0.193417
C69   C     C_R   0.410942 0.143338 0.989981 -0.193417
C70   C     C_R   0.589058 0.856662 0.010019 -0.193417
C71   C     C_R   0.387408 0.862568 0.489982 -0.192752
C72   C     C_R   0.612592 0.137432 0.510018 -0.192752
C73   C     C_R   0.146532 0.329687 0.465501 -0.178794
C74   C     C_R   0.853468 0.670313 0.534499 -0.178794
C75   C     C_R   0.119028 0.678132 0.965530 -0.177210
C76   C     C_R   0.880972 0.321867 0.034470 -0.177209
C77   C     C_R   0.380970 0.178132 0.034470 -0.177209
C78   C     C_R   0.619030 0.821868 0.965530 -0.177209
C79   C     C_R   0.353466 0.829688 0.534499 -0.178794
C80   C     C_R   0.646534 0.170312 0.465501 -0.178794
Cl1   Cl    Cl    0.819404 0.611501 0.707985 -0.478434
Cl2   Cl    Cl    0.180596 0.388499 0.292015 -0.478434
Cl3   Cl    Cl    0.831107 0.377271 0.207680 -0.471594
Cl4   Cl    Cl    0.168893 0.622729 0.792320 -0.471594
Cl5   Cl    Cl    0.668894 0.877271 0.792320 -0.471594
Cl6   Cl    Cl    0.331106 0.122729 0.207680 -0.471594
Cl7   Cl    Cl    0.680595 0.111501 0.292015 -0.478434
Cl8   Cl    Cl    0.319405 0.888498 0.707985 -0.478434

loop_
_geom_bond_atom_site_label_1
_geom_bond_atom_site_label_2
_ccdc_geom_bond_type
C7    C10   S    
O14   V4    S    
C11   C27   A    
C60   C67   A    
C4    C13   S    
C44   C60   A    
C19   C27   A    
C20   C28   A    
C23   C31   A    
O4    C1    A    
C64   C71   A    
O9    C1    A    
C10   C34   A    
C9    C33   A    
H11   C19   S    
H6    C78   S    
O8    C5    A    
O5    V1    S    
C14   C38   A    
C56   C80   A    
C26   Cl1   S    
C13   C37   A    
C72   C80   A    
C43   C59   A    
C42   C58   A    
C10   C26   A    
C45   C53   A    
C59   C60   A    
C68   C76   A    
C47   C55   A    
H5    C77   S    
H28   C68   S    
H12   C20   S    
C58   C65   A    
C9    C25   A    
C57   C66   A    
C28   Cl3   S    
C39   C47   A    
H32   C72   S    
O1    C4    A    
H23   C40   S    
H16   C24   S    
O2    C3    A    
C62   C69   A    
C31   Cl8   S    
C61   C70   A    
C32   Cl7   S    
C6    C11   S    
C46   C62   A    
O5    C8    A    
C41   C49   A    
C63   C72   A    
H8    C80   S    
H17   C34   S    
C21   C29   A    
C20   C52   A    
O7    C6    A    
H3    C75   S    
C2    C15   S    
H4    C76   S    
H21   C38   S    
C17   C25   A    
C27   Cl4   S    
C16   C32   A    
O20   V2    S    
H27   C67   S    
C25   Cl2   S    
C44   C52   A    
H26   C66   S    
C53   C77   A    
C12   C28   A    
C19   C51   A    
C51   C75   A    
H24   C39   S    
C37   C45   A    
C48   C56   A    
C49   C73   A    
H14   C22   S    
O17   V3    S    
H13   C21   S    
O18   V4    S    
C33   C41   A    
O19   V1    S    
H15   C23   S    
O8    V1    S    
C18   C50   A    
C5    C12   S    
O3    V4    S    
C17   C49   A    
O11   C3    A    
C69   C77   A    
C24   C56   A    
C11   C35   A    
O10   C2    A    
C22   C54   A    
C1    C16   S    
C21   C53   A    
C3    C14   S    
C38   C46   A    
H20   C35   S    
H10   C18   S    
C15   C31   A    
H9    C17   S    
O12   C4    A    
O6    V2    S    
C40   C48   A    
O4    V3    S    
C46   C54   A    
O9    V1    S    
C41   C57   A    
C14   C30   A    
C13   C29   A    
C36   C44   A    
H30   C70   S    
C57   C58   A    
C18   C26   A    
O13   C5    A    
C50   C74   A    
C65   C73   A    
C59   C68   A    
C67   C75   A    
O3    C2    A    
C47   C63   A    
O12   V1    S    
C71   C79   A    
C29   Cl6   S    
C63   C64   A    
O15   C7    A    
H7    C79   S    
O16   C8    A    
C43   C51   A    
H19   C36   S    
C42   C50   A    
H2    C74   S    
C23   C55   A    
H18   C33   S    
C45   C61   A    
O15   V4    S    
O1    V3    S    
O16   V3    S    
O14   C6    A    
C24   C32   A    
O2    V4    S    
C61   C62   A    
C55   C79   A    
H22   C37   S    
C12   C36   A    
C34   C42   A    
O6    C7    A    
O10   V2    S    
O13   V3    S    
C52   C76   A    
C54   C78   A    
H25   C65   S    
C16   C40   A    
C15   C39   A    
C70   C78   A    
C22   C30   A    
O11   V2    S    
H29   C69   S    
O7    V2    S    
C35   C43   A    
C66   C74   A    
H1    C73   S    
H31   C71   S    
C30   Cl5   S    
C8    C9    S    
C48   C64   A    
