data_str_m4_o1_o22_f0_acs.sym.165
_audit_creation_date              2012-12-11T14:50:37-0500
_audit_creation_method            fapswitch 2.2
_symmetry_space_group_name_H-M    P1
_symmetry_Int_Tables_number       1
_space_group_crystal_system       triclinic
_cell_length_a                    11.019554
_cell_length_b                    10.917071
_cell_length_c                    18.741113
_cell_angle_alpha                 89.862018
_cell_angle_beta                  89.581821
_cell_angle_gamma                 59.826444
_cell_volume                      1949.04538474

loop_
_atom_site_label
_atom_site_type_symbol
_atom_type_description
_atom_site_fract_x
_atom_site_fract_y
_atom_site_fract_z
_atom_type_partial_charge
C1    C     C_R   0.236329 0.646813 0.610108 0.566813
C2    C     C_3   0.656389 0.605831 0.801734 -0.252540
C3    C     C_3   0.728276 0.696197 0.805999 0.022825
C4    C     C_3   0.684481 0.660104 0.671228 -0.000879
C5    C     C_3   0.846431 0.589189 0.684765 -0.077040
C6    C     C_3   0.631118 0.584067 0.723494 0.055127
C7    C     C_R   0.783161 0.152706 0.710203 -0.180398
C8    C     C_R   0.800263 0.136072 0.784045 -0.159302
C9    C     C_R   0.683896 0.171832 0.828220 -0.034041
C10   C     C_R   0.550940 0.231706 0.798835 -0.090447
C11   C     C_R   0.536718 0.225979 0.726585 0.195202
C12   C     C_R   0.657315 0.626654 0.598184 0.612302
C13   C     C_R   0.651643 0.193764 0.680312 0.012927
C14   C     C_R   0.207709 0.549134 0.724904 -0.034192
C15   C     C_R   0.208268 0.551068 0.799388 -0.074735
C16   C     C_R   0.189846 0.671422 0.835563 0.009088
C17   C     C_R   0.191065 0.781960 0.795995 0.041945
C18   C     C_R   0.177782 0.783578 0.722153 -0.094886
C19   C     C_R   0.194429 0.664083 0.685701 0.023203
C20   C     C_R   0.702656 0.497200 0.263991 0.243890
C21   C     C_R   0.710410 0.519953 0.190356 0.242503
C22   C     C_R   0.643420 0.659444 0.163564 0.030695
C23   C     C_R   0.624396 0.233326 0.604816 0.560663
C24   C     C_R   0.557588 0.773533 0.208384 -0.211297
C25   C     C_R   0.547360 0.750976 0.280585 -0.208214
C26   C     C_R   0.622739 0.613970 0.309138 0.030476
C27   C     C_R   0.518981 0.272488 0.276984 -0.102748
C28   C     C_R   0.531443 0.246938 0.204209 0.232479
C29   C     C_R   0.661060 0.143556 0.177797 0.088921
C30   C     C_R   0.775865 0.063311 0.223215 -0.189126
C31   C     C_R   0.762146 0.087628 0.295652 -0.147692
C32   C     C_R   0.634026 0.192481 0.321964 0.042484
C33   C     C_R   0.235074 0.726120 0.283073 -0.161313
C34   C     C_R   0.222195 0.649953 0.401261 0.558921
C35   C     C_R   0.222346 0.723161 0.210978 -0.134199
C36   C     C_R   0.144320 0.667428 0.183056 0.004859
C37   C     C_R   0.087660 0.604013 0.227028 -0.162970
C38   C     C_R   0.104253 0.601597 0.300635 0.008794
C39   C     C_R   0.176894 0.666294 0.328517 0.000663
C40   C     C_R   0.700831 0.105901 0.897622 0.542463
C41   C     C_R   0.755219 0.711711 0.882659 0.618953
C42   C     C_R   0.121956 0.705121 0.906464 0.572927
C43   C     C_R   0.676858 0.102889 0.104604 0.606676
C44   C     C_R   0.693028 0.687368 0.096021 0.584997
C45   C     C_R   0.616547 0.589552 0.385826 0.590211
C46   C     C_R   0.093046 0.707916 0.112290 0.555210
C47   C     C_R   0.616110 0.230108 0.395327 0.553112
C48   C     C_3   0.623744 0.842540 0.770814 -0.292123
C49   C     C_3   0.616772 0.822518 0.688803 -0.130934
C50   C     C_3   0.871056 0.625477 0.762534 0.406080
Cr1   Cr    Cr6+3 0.392930 0.397900 0.502230 1.126681
Cr2   Cr    Cr6+3 0.398240 0.708600 0.501260 1.105954
Cr3   Cr    Cr6+3 0.708800 0.393470 0.496460 1.088870
Cr4   Cr    Cr6+3 0.937620 0.938540 0.007640 1.068397
Cr5   Cr    Cr6+3 0.625150 0.937450 0.994520 1.064971
Cr6   Cr    Cr6+3 0.937990 0.625080 0.001190 1.077524
H1    H     H_    0.656878 0.921588 0.781068 0.126900
H2    H     H_    0.692272 0.467605 0.712458 0.128265
H3    H     H_    0.888501 0.472519 0.683517 0.122133
H4    H     H_    0.872735 0.128959 0.676575 0.163404
H5    H     H_    0.904017 0.088064 0.806261 0.202814
H6    H     H_    0.459871 0.259841 0.832290 0.159409
H7    H     H_    0.207862 0.462694 0.697520 0.237706
H8    H     H_    0.209851 0.464529 0.828475 0.182871
H9    H     H_    0.519099 0.887799 0.796668 0.174798
H10   H     H_    0.167205 0.873403 0.692481 0.204450
H11   H     H_    0.506629 0.881451 0.188814 0.162111
H12   H     H_    0.484561 0.841756 0.314522 0.162289
H13   H     H_    0.420341 0.356153 0.298518 0.123762
H14   H     H_    0.875408 0.979409 0.202841 0.152796
H15   H     H_    0.850389 0.026728 0.330632 0.143197
H16   H     H_    0.294293 0.772947 0.303098 0.150868
H17   H     H_    0.266153 0.772387 0.177232 0.152982
H18   H     H_    0.024057 0.563928 0.204394 0.172453
H19   H     H_    0.684012 0.859734 0.664603 0.153639
H20   H     H_    0.719743 0.501148 0.827946 0.111076
H21   H     H_    0.554946 0.659548 0.831560 0.194941
O1    O     O_R   0.507430 0.255570 0.581420 -0.467048
O2    O     O_R   0.524460 0.695920 0.424060 -0.517877
O3    O     O_R   0.736530 0.504260 0.414810 -0.438974
O4    O     O_R   0.691460 0.277160 0.422180 -0.481295
O5    O     O_3   0.499990 0.499990 0.499980 -0.314696
O6    O     O_R   0.089490 0.825610 0.930610 -0.478480
O7    O     O_R   0.818370 0.054540 0.929880 -0.492212
O8    O     O_R   0.605870 0.077310 0.915530 -0.526518
O9    O     O_R   0.646440 0.806700 0.917570 -0.500657
O10   O     O_R   0.837200 0.593290 0.915250 -0.475116
O11   O     O_R   0.065330 0.635370 0.931590 -0.486967
O12   O     O_R   0.280190 0.527390 0.578910 -0.458739
O13   O     O_R   0.068300 0.828790 0.091860 -0.521353
O14   O     O_R   0.798730 0.057480 0.079370 -0.512502
O15   O     O_R   0.584680 0.080480 0.076790 -0.473129
O16   O     O_R   0.626790 0.809640 0.067050 -0.510953
O17   O     O_R   0.816010 0.596460 0.076500 -0.473767
O18   O     O_R   0.045680 0.638310 0.081070 -0.508403
O19   O     O_3   0.833590 0.833690 0.001120 -0.301996
O20   O     O_R   0.260310 0.739740 0.584580 -0.486695
O21   O     O_R   0.532250 0.695150 0.573830 -0.417446
O22   O     O_R   0.744930 0.503430 0.576380 -0.516696
O23   O     O_R   0.699250 0.276390 0.571950 -0.513479
O24   O     O_R   0.499020 0.256400 0.419850 -0.513799
O25   O     O_R   0.272400 0.528160 0.429140 -0.477878
O26   O     O_R   0.251910 0.740570 0.423020 -0.539000
O27   O     O_3   0.972806 0.499228 0.795575 -0.649575
H22   H     H_    0.939797 0.429909 0.796684 0.307727
O28   O     O_3   0.409376 0.247895 0.704214 -0.711693
H23   H     H_    0.427356 0.172188 0.670328 0.386823
C51   C     C_2   0.212625 0.893108 0.829686 0.561157
O29   O     O_2   0.292267 0.862733 0.880278 -0.512817
O30   O     O_R   0.148041 0.030211 0.801540 -0.720018
H24   H     H_    0.173346 0.094743 0.828364 0.352487
O31   O     O_3   0.772749 0.363633 0.293903 -0.694430
H25   H     H_    0.820037 0.290889 0.256632 0.341295
O32   O     O_3   0.786361 0.408429 0.144161 -0.679907
H26   H     H_    0.883025 0.353655 0.163154 0.331153
O33   O     O_3   0.420511 0.320655 0.158303 -0.676928
H27   H     H_    0.334678 0.379290 0.186909 0.328685
C52   C     C_2   0.476020 0.919573 0.654355 0.606659
O34   O     O_2   0.473392 0.973197 0.596609 -0.468542
O35   O     O_R   0.349763 0.946168 0.684425 -0.620867
H28   H     H_    0.365613 0.885611 0.727519 0.345450
C53   C     C_2   0.042493 0.534681 0.345846 0.585509
O36   O     O_2   0.001569 0.577562 0.406465 -0.472983
O37   O     O_R   0.029800 0.422692 0.318402 -0.700360
H29   H     H_    0.991426 0.381898 0.354806 0.378604
O38   O     O_3   0.924037 0.719106 0.763162 -0.675658
H30   H     H_    0.868969 0.800911 0.731664 0.325728
C54   C     C_2   0.929222 0.611623 0.625431 0.583053
O39   O     O_2   0.021678 0.508270 0.593993 -0.463754
O40   O     O_R   0.898081 0.747151 0.604173 -0.737234
H31   H     H_    0.956999 0.745555 0.562012 0.354904
O41   O     O_3   0.489077 0.629658 0.712701 -0.709678
H32   H     H_    0.471583 0.557415 0.735157 0.319294

loop_
_geom_bond_atom_site_label_1
_geom_bond_atom_site_label_2
_ccdc_geom_bond_type
C8    C9    A    
Cr6   O18   S    
C37   H18   S    
Cr2   O26   S    
C50   O27   S    
O38   H30   S    
C47   O24   A    
C51   O29   D    
C40   O7    A    
C35   C36   A    
Cr5   O16   S    
C54   O39   D    
Cr4   O7    S    
O32   H26   S    
C7    C8    A    
C10   H6    S    
Cr3   O22   S    
Cr1   O25   S    
Cr6   O17   S    
C41   O9    A    
C33   C39   A    
C36   C37   A    
Cr4   O13   S    
C38   C39   A    
Cr6   O11   S    
O28   H23   S    
Cr4   O6    S    
C15   C16   A    
C3    C48   S    
O33   H27   S    
C13   C23   S    
Cr3   O4    S    
C18   C19   A    
C6    H2    S    
O30   H24   S    
O31   H25   S    
C12   O22   A    
C44   O16   A    
C28   O33   S    
C24   H11   S    
C20   O31   S    
C22   C44   S    
C46   O18   A    
C31   C32   A    
O41   H32   S    
C26   C45   S    
C15   H8    S    
C49   H19   S    
C36   C46   S    
C50   O38   S    
C48   H9    S    
C4    C12   S    
Cr2   O2    S    
C35   H17   S    
C9    C10   A    
Cr4   O19   S    
C33   H16   S    
C8    H5    S    
C31   H15   S    
C23   O23   A    
C21   C22   A    
C29   C43   S    
C2    C6    S    
C25   H12   S    
O27   H22   S    
C30   H14   S    
C3    C50   S    
C17   C18   A    
Cr3   O23   S    
C41   O10   A    
C1    C19   S    
C5    H3    S    
C34   C39   S    
C48   H1    S    
Cr3   O3    S    
C44   O17   A    
C24   C25   A    
C4    C6    S    
C17   C51   S    
C1    O20   A    
C16   C17   A    
Cr6   O10   S    
C25   C26   A    
C9    C40   S    
C43   O14   A    
C54   O40   S    
Cr3   O5    S    
C40   O8    A    
Cr5   O8    S    
C37   C38   A    
C21   O32   S    
Cr2   O20   S    
C49   C52   S    
C7    C13   A    
C11   O28   S    
C52   O34   D    
C45   O2    A    
C34   O25   A    
Cr2   O5    S    
Cr1   O5    S    
C38   C53   S    
C6    O41   S    
C48   C49   S    
Cr5   O15   S    
C32   C47   S    
C22   C24   A    
C5    C50   S    
C42   O11   A    
C53   O37   S    
C16   C42   S    
C7    H4    S    
C2    H20   S    
O35   H28   S    
Cr6   O19   S    
C28   C29   A    
C1    O12   A    
C27   C32   A    
C12   O21   A    
C14   C19   A    
C42   O6    A    
C43   O15   A    
Cr5   O19   S    
C27   H13   S    
C46   O13   A    
C18   H10   S    
C34   O26   A    
C4    C49   S    
Cr5   O9    S    
O40   H31   S    
Cr1   O1    S    
Cr4   O14   S    
C2    H21   S    
Cr1   O12   S    
C11   C13   A    
C30   C31   A    
C20   C26   A    
C14   H7    S    
C5    C54   S    
Cr2   O21   S    
C33   C35   A    
C51   O30   S    
C2    C3    S    
C45   O3    A    
C47   O4    A    
C23   O1    A    
C52   O35   S    
C3    C41   S    
C10   C11   A    
C29   C30   A    
C4    C5    S    
C20   C21   A    
C27   C28   A    
C14   C15   A    
C53   O36   D    
Cr1   O24   S    
O37   H29   S    
