data_str_m2_o11_o18_f0_pcu.sym.14
_audit_creation_date              2012-10-26T19:18:36-0400
_audit_creation_method            fapswitch 2.2
_symmetry_space_group_name_H-M    P1
_symmetry_Int_Tables_number       1
_space_group_crystal_system       triclinic
_cell_length_a                    9.790403
_cell_length_b                    10.960575
_cell_length_c                    15.452622
_cell_angle_alpha                 88.62133
_cell_angle_beta                  73.799047
_cell_angle_gamma                 89.78607
_cell_volume                      1591.87965412

loop_
_atom_site_label
_atom_site_type_symbol
_atom_type_description
_atom_site_fract_x
_atom_site_fract_y
_atom_site_fract_z
_atom_type_partial_charge
C1    C     C_R   0.002389 0.265688 0.493349 0.581201
C2    C     C_R   0.226197 0.501725 0.040138 0.051063
C3    C     C_R   0.322578 0.469238 0.090356 0.031837
C4    C     C_R   0.916843 0.497538 0.672133 0.537223
C5    C     C_R   0.083106 0.525828 0.084079 -0.142168
C6    C     C_R   0.034950 0.522569 0.177739 -0.145954
C7    C     C_R   0.271021 0.466735 0.185073 -0.144182
C8    C     C_2   0.873357 0.934364 0.522697 -0.028462
C9    C     C_2   0.991386 0.866070 0.516084 -0.158713
C10   C     C_2   0.884038 0.068113 0.498565 0.248129
C11   C     C_2   0.007876 0.134185 0.473798 -0.015210
C12   C     C_R   0.666435 0.462963 0.905671 0.033337
C13   C     C_2   0.400550 0.430119 0.553155 0.087096
C14   C     C_2   0.549672 0.443731 0.559187 0.019400
C15   C     C_R   0.996426 0.733889 0.506533 0.556659
C16   C     C_R   0.083032 0.498711 0.327844 0.533983
C17   C     C_R   0.868965 0.481904 0.770730 -0.002638
C18   C     C_R   0.129101 0.494957 0.228813 -0.007570
C19   C     C_R   0.907293 0.410139 0.911195 -0.143774
C20   C     C_R   0.960822 0.439700 0.819745 -0.144478
C21   C     C_R   0.724278 0.497095 0.814532 -0.136488
C22   C     C_3   0.723036 0.880816 0.562046 -0.208154
C23   C     C_R   0.761248 0.421138 0.954372 0.051536
C24   C     C_3   0.699995 0.828429 0.658361 -0.277890
C25   C     C_3   0.552623 0.770731 0.694006 -0.455718
C26   C     C_3   0.715904 0.103436 0.423452 -0.010370
C27   C     C_3   0.745478 0.214879 0.359980 -0.240876
C28   C     C_3   0.678096 0.202006 0.282905 -0.510670
C29   C     C_3   0.142572 0.086145 0.407047 -0.309206
C30   C     C_3   0.202443 0.173618 0.325794 -0.293103
C31   C     C_3   0.309095 0.109512 0.249127 -0.463277
C32   C     C_3   0.317583 0.327633 0.612019 -0.207040
C33   C     C_3   0.369588 0.203055 0.573347 -0.307809
C34   C     C_R   0.517787 0.470262 0.949726 0.034217
C35   C     C_3   0.275763 0.099551 0.625375 -0.465711
C36   C     C_3   0.639638 0.583641 0.429349 -0.079022
C37   C     C_3   0.612877 0.521630 0.347172 -0.307509
C38   C     C_3   0.568588 0.615689 0.285803 -0.469921
C39   C     C_R   0.468217 0.446797 0.044417 0.031079
C40   C     C_R   0.565800 0.401447 0.089717 -0.153581
C41   C     C_R   0.709388 0.389175 0.045333 -0.140321
C42   C     C_R   0.416804 0.498051 0.902093 -0.145000
C43   C     C_R   0.273829 0.512293 0.946624 -0.142279
Cu1   Cu    Cu3+1 0.138640 0.500020 0.499980 0.878673
Cu2   Cu    Cu3+1 0.861360 0.499980 0.500020 0.897523
H1    H     H_    0.780878 0.355062 0.082588 0.104063
H2    H     H_    0.072858 0.426380 0.787052 0.113576
H3    H     H_    0.658809 0.535882 0.775538 0.115789
H4    H     H_    0.533886 0.371761 0.159418 0.095930
H5    H     H_    0.443958 0.507022 0.829727 0.095421
H6    H     H_    0.468680 0.838861 0.693142 0.145298
H7    H     H_    0.541928 0.692261 0.652157 0.162190
H8    H     H_    0.537135 0.737435 0.764518 0.140216
H9    H     H_    0.780624 0.758247 0.661124 0.185286
H10   H     H_    0.710384 0.903228 0.703473 0.158216
H11   H     H_    0.639532 0.950833 0.567447 0.168627
H12   H     H_    0.009157 0.550838 0.046000 0.111079
H13   H     H_    0.698198 0.813393 0.516529 0.146445
H14   H     H_    0.599977 0.084244 0.443708 0.123978
H15   H     H_    0.767383 0.021575 0.386160 0.111446
H16   H     H_    0.700984 0.296297 0.398813 0.208688
H17   H     H_    0.861976 0.227721 0.331905 0.161149
H18   H     H_    0.713691 0.116555 0.246174 0.150486
H19   H     H_    0.710287 0.280518 0.235120 0.137506
H20   H     H_    0.560457 0.201894 0.309569 0.141325
H21   H     H_    0.393790 0.065348 0.273839 0.147657
H22   H     H_    0.254404 0.038864 0.220498 0.157538
H23   H     H_    0.092019 0.907997 0.513306 0.077926
H24   H     H_    0.358716 0.177114 0.194876 0.149544
H25   H     H_    0.114964 0.209992 0.299901 0.154708
H26   H     H_    0.257541 0.251462 0.346395 0.190833
H27   H     H_    0.225947 0.069600 0.441986 0.134538
H28   H     H_    0.118658 0.999214 0.378699 0.145578
H29   H     H_    0.275995 0.098656 0.697228 0.155620
H30   H     H_    0.164897 0.110412 0.621238 0.157960
H31   H     H_    0.317367 0.010853 0.595881 0.131728
H32   H     H_    0.370196 0.201083 0.501390 0.171570
H33   H     H_    0.479728 0.188086 0.577600 0.187621
H34   H     H_    0.382844 0.585394 0.487812 0.224772
H35   H     H_    0.332462 0.333399 0.680598 0.085318
H36   H     H_    0.202690 0.335060 0.622968 0.219779
H37   H     H_    0.464450 0.656390 0.321054 0.168309
H38   H     H_    0.649866 0.689178 0.265259 0.136688
H39   H     H_    0.558440 0.571489 0.224211 0.152548
H40   H     H_    0.712520 0.477724 0.308286 0.153024
H41   H     H_    0.531704 0.448455 0.366024 0.179831
H42   H     H_    0.573228 0.663608 0.455844 0.061883
H43   H     H_    0.742696 0.630477 0.402021 0.192255
H44   H     H_    0.577989 0.390410 0.611702 0.138045
H45   H     H_    0.340541 0.447511 0.226659 0.118356
H46   H     H_    0.925435 0.545720 0.209944 0.119243
H47   H     H_    0.200517 0.534923 0.907517 0.106494
H48   H     H_    0.979710 0.376108 0.947827 0.107913
N1    N     N_2   0.346430 0.498660 0.500980 -0.359227
N2    N     N_2   0.652550 0.498630 0.501000 -0.261030
O1    O     O_R   0.117050 0.321960 0.499980 -0.522999
O2    O     O_R   0.882890 0.321920 0.500020 -0.439407
O3    O     O_R   0.052910 0.500040 0.629810 -0.515968
O4    O     O_R   0.818750 0.499990 0.629840 -0.506887
O5    O     O_R   0.117110 0.678080 0.499980 -0.501053
O6    O     O_R   0.882950 0.678040 0.500020 -0.516282
O7    O     O_R   0.181250 0.500010 0.370160 -0.501268
O8    O     O_R   0.947090 0.499960 0.370190 -0.528246
O9    O     O_3   0.757129 0.127578 0.502628 -0.567488

loop_
_geom_bond_atom_site_label_1
_geom_bond_atom_site_label_2
_ccdc_geom_bond_type
C31   H21   S    
C35   H29   S    
C4    O3    A    
C38   H38   S    
C13   C32   S    
C19   C20   A    
C34   C42   A    
C15   O5    A    
C30   H26   S    
C36   H43   S    
C24   H10   S    
C31   H22   S    
C32   H36   S    
C12   C23   A    
C35   H30   S    
C26   C27   S    
C37   C38   S    
C37   H40   S    
C36   C37   S    
C25   H8    S    
C3    C7    A    
C30   C31   S    
C33   H33   S    
C29   H28   S    
C24   H9    S    
C40   H4    S    
C17   C20   A    
Cu2   O8    S    
C26   O9    S    
Cu1   O3    S    
C8    C9    D    
C1    C11   S    
C8    C22   S    
C41   H1    S    
C27   H16   S    
C26   H14   S    
C19   H48   S    
C21   H3    S    
C3    C39   A    
C13   C14   S    
C38   H37   S    
C30   H25   S    
C36   H42   S    
C6    C18   A    
C35   H31   S    
C34   C39   A    
C37   H41   S    
C24   C25   S    
H34   N1    S    
Cu2   O4    S    
C1    O2    A    
C39   C40   A    
Cu1   O7    S    
C22   H11   S    
C7    H45   S    
C12   C21   A    
C17   C21   A    
C19   C23   A    
C25   H6    S    
C14   H44   S    
C29   C30   S    
Cu1   O1    S    
C27   H17   S    
C32   H35   S    
C16   O8    A    
C2    C43   A    
C7    C18   A    
C16   C18   S    
C15   O6    A    
Cu2   O6    S    
C42   H5    S    
C4    C17   S    
C28   H19   S    
C16   O7    A    
C40   C41   A    
C22   C24   S    
C2    C5    A    
C42   C43   A    
C12   C34   A    
Cu2   N2    S    
C14   N2    D    
Cu1   Cu2   S    
C38   H39   S    
C22   H13   S    
C43   H47   S    
C23   C41   A    
C5    H12   S    
C13   N1    D    
C32   C33   S    
C29   H27   S    
C10   O9    S    
C2    C3    A    
C9    C15   S    
C25   H7    S    
Cu2   O2    S    
Cu1   O5    S    
C36   N2    S    
C33   H32   S    
C5    C6    A    
C1    O1    A    
C33   C35   S    
C28   H20   S    
C9    H23   S    
C20   H2    S    
Cu1   N1    S    
C10   C11   D    
C28   H18   S    
C31   H24   S    
C11   C29   S    
C8    C10   S    
C4    O4    A    
C27   C28   S    
C26   H15   S    
C6    H46   S    
