data_str_m3_o5_o29_f0_pcu.sym.1
_audit_creation_date              2012-12-10T20:50:54-0500
_audit_creation_method            fapswitch 2.2
_symmetry_space_group_name_H-M    P1
_symmetry_Int_Tables_number       1
_space_group_crystal_system       triclinic
_cell_length_a                    27.772108
_cell_length_b                    8.916377
_cell_length_c                    8.097991
_cell_angle_alpha                 90.036681
_cell_angle_beta                  89.999787
_cell_angle_gamma                 90.000151
_cell_volume                      2005.27744583

loop_
_atom_site_label
_atom_site_type_symbol
_atom_type_description
_atom_site_fract_x
_atom_site_fract_y
_atom_site_fract_z
_atom_type_partial_charge
C1    C     C_R   0.500000 0.217994 0.499967 0.946714
C2    C     C_R   0.050721 0.499997 0.500008 0.070388
C3    C     C_R   0.947384 0.231866 0.559371 -0.220265
C4    C     C_R   0.052616 0.768122 0.440637 -0.220266
C5    C     C_R   0.947381 0.768115 0.440632 -0.220267
C6    C     C_R   0.052618 0.231874 0.559384 -0.220268
C7    C     C_1   0.500000 0.065221 0.499952 -0.182741
C8    C     C_1   0.500000 0.934779 0.500048 -0.182741
C9    C     C_R   0.405759 0.500000 0.500000 0.872004
C10   C     C_R   0.594241 0.499999 0.500000 0.872005
C11   C     C_R   0.177779 0.368869 0.529054 0.506352
C12   C     C_R   0.500000 0.782005 0.500033 0.946715
C13   C     C_R   0.822220 0.631118 0.470951 0.506355
C14   C     C_R   0.177778 0.631141 0.470960 0.506352
C15   C     C_R   0.822222 0.368846 0.529043 0.506355
C16   C     C_R   0.277827 0.491524 0.649585 -0.096182
C17   C     C_R   0.722173 0.508390 0.350412 -0.096190
C18   C     C_R   0.277826 0.508490 0.350423 -0.096182
C19   C     C_R   0.722174 0.491575 0.649583 -0.096195
C20   C     C_R   0.327844 0.491718 0.649825 -0.205711
C21   C     C_R   0.672156 0.508201 0.350171 -0.205703
C22   C     C_R   0.327844 0.508290 0.350179 -0.205713
C23   C     C_R   0.353172 0.500002 0.500001 -0.040849
C24   C     C_R   0.672156 0.491779 0.649826 -0.205704
C25   C     C_R   0.252897 0.500008 0.500004 0.319418
C26   C     C_R   0.747103 0.499979 0.499998 0.319443
C27   C     C_R   0.101798 0.500000 0.500009 -0.050191
C28   C     C_R   0.898202 0.499987 0.500000 -0.050191
C29   C     C_R   0.127423 0.366377 0.529662 -0.021213
C30   C     C_R   0.872576 0.633610 0.470347 -0.021216
C31   C     C_R   0.127422 0.633627 0.470355 -0.021213
C32   C     C_R   0.872577 0.366360 0.529650 -0.021216
C33   C     C_R   0.102479 0.233493 0.559017 -0.137806
C34   C     C_R   0.646829 0.499994 0.499999 -0.040851
C35   C     C_R   0.897520 0.766495 0.440996 -0.137806
C36   C     C_R   0.102477 0.766509 0.441003 -0.137807
C37   C     C_R   0.897523 0.233478 0.559002 -0.137807
C38   C     C_R   0.974462 0.363868 0.530125 0.048467
C39   C     C_R   0.025537 0.636120 0.469886 0.048467
C40   C     C_R   0.974461 0.636116 0.469883 0.048467
C41   C     C_R   0.025539 0.363872 0.530129 0.048467
C42   C     C_R   0.949279 0.499990 0.500003 0.070389
H1    H     H_    0.346598 0.514871 0.233138 0.164335
H2    H     H_    0.878561 0.870598 0.417795 0.191330
H3    H     H_    0.121435 0.870614 0.417803 0.191329
H4    H     H_    0.878564 0.129373 0.582200 0.191327
H5    H     H_    0.963278 0.124189 0.583483 0.136538
H6    H     H_    0.036721 0.875798 0.416523 0.136539
H7    H     H_    0.963275 0.875792 0.416517 0.136540
H8    H     H_    0.036725 0.124197 0.583503 0.136541
H9    H     H_    0.653402 0.485261 0.766871 0.164335
H10   H     H_    0.346598 0.485135 0.766866 0.164335
H11   H     H_    0.653402 0.514726 0.233127 0.164334
H12   H     H_    0.258366 0.514864 0.234742 0.138369
H13   H     H_    0.741634 0.485260 0.765267 0.138353
H14   H     H_    0.258366 0.485151 0.765266 0.138368
H15   H     H_    0.741634 0.514702 0.234728 0.138353
H16   H     H_    0.121439 0.129390 0.582221 0.191331
N1    N     N_R   0.201645 0.500006 0.500006 -0.360851
N2    N     N_R   0.798354 0.499981 0.499996 -0.360855
N3    N     N_1   0.500000 0.500000 0.073640 -0.035334
N4    N     N_1   0.500000 0.500000 0.926360 -0.035334
O1    O     O_R   0.500000 0.285350 0.636850 -0.614035
O2    O     O_2   0.797198 0.758548 0.443676 -0.534201
O3    O     O_2   0.202798 0.758574 0.443684 -0.534210
O4    O     O_2   0.797201 0.241413 0.556317 -0.534202
O5    O     O_R   0.500000 0.714650 0.363150 -0.614035
O6    O     O_R   0.500000 0.714650 0.636850 -0.613611
O7    O     O_R   0.500000 0.285350 0.363150 -0.613611
O8    O     O_R   0.428760 0.500000 0.636860 -0.623818
O9    O     O_R   0.571240 0.500000 0.363140 -0.623819
O10   O     O_R   0.571240 0.500000 0.636860 -0.623818
O11   O     O_R   0.428760 0.500000 0.363140 -0.623818
O12   O     O_2   0.202801 0.241438 0.556328 -0.534209
Zn1   Zn    Zn3+2 0.500000 0.500000 0.682780 0.996721
Zn2   Zn    Zn3+2 0.500000 0.500000 0.317220 0.996721

loop_
_geom_bond_atom_site_label_1
_geom_bond_atom_site_label_2
_ccdc_geom_bond_type
C4    C36   A    
C33   H16   S    
C27   C29   A    
C15   N2    A    
C14   C31   A    
C7    C8    T    
C13   N2    A    
O6    Zn1   S    
C14   N1    A    
C12   O6    A    
C30   C35   A    
C17   C26   A    
C38   C42   A    
O9    Zn2   S    
C2    C41   A    
C29   C33   A    
O7    Zn2   S    
C3    H5    S    
C19   C26   A    
C2    C39   A    
C3    C38   A    
C6    C41   A    
C20   C23   A    
C2    C27   A    
C16   C20   A    
C10   O9    A    
C24   H9    S    
C40   C42   A    
C1    C7    S    
C1    O7    A    
C5    H7    S    
C18   C25   A    
C9    O11   A    
O10   Zn1   S    
C11   N1    A    
C1    O1    A    
C22   C23   A    
N3    Zn2   S    
C12   O5    A    
C27   C31   A    
C13   C30   A    
C28   C32   A    
C9    O8    A    
C38   C41   A    
C39   C40   A    
C9    C23   S    
C21   C34   A    
C15   O4    S    
C24   C34   A    
C16   H14   S    
C22   H1    S    
C4    C39   A    
C8    C12   S    
C36   H3    S    
C10   C34   S    
C32   C37   A    
C6    H8    S    
C35   H2    S    
C3    C37   A    
O11   Zn2   S    
N4    Zn1   S    
C4    H6    S    
C19   H13   S    
C16   C25   A    
C18   C22   A    
C11   O12   S    
C15   C32   A    
C6    C33   A    
C28   C30   A    
C19   C24   A    
C20   H10   S    
C21   H11   S    
C13   O2    S    
O1    Zn1   S    
C5    C35   A    
C28   C42   A    
C14   O3    S    
N3    N4    T    
C17   C21   A    
C18   H12   S    
C11   C29   A    
C5    C40   A    
O8    Zn1   S    
C31   C36   A    
O5    Zn2   S    
C25   N1    S    
C37   H4    S    
C26   N2    S    
C17   H15   S    
C10   O10   A    
