data_str_m9_o11_o2_f0_sra.sym.217
_audit_creation_date              2013-03-05T15:42:48-0500
_audit_creation_method            fapswitch 2.2
_symmetry_space_group_name_H-M    P1
_symmetry_Int_Tables_number       1
_space_group_crystal_system       triclinic
_cell_length_a                    6.936348
_cell_length_b                    14.804682
_cell_length_c                    16.218018
_cell_angle_alpha                 90.266541
_cell_angle_beta                  89.977759
_cell_angle_gamma                 90.107986
_cell_volume                      1665.41408468

loop_
_atom_site_label
_atom_site_type_symbol
_atom_site_description
_atom_site_fract_x
_atom_site_fract_y
_atom_site_fract_z
_atom_type_partial_charge
O1    O     O_R   0.494400 0.416610 0.413880 -0.533302
O2    O     O_R   0.823920 0.406790 0.585520 -0.553597
O3    O     O_R   0.994250 0.583390 0.586120 -0.565001
C1    C     C_R   0.654417 0.385770 0.614091 0.867633
O4    O     O_R   0.824110 0.405730 0.414490 -0.540356
O5    O     O_R   0.994440 0.582310 0.413870 -0.569067
C2    C     C_R   0.655486 0.386659 0.384749 0.940980
O6    O     O_R   0.494210 0.417690 0.586130 -0.563833
O7    O     O_3   0.660810 0.557940 0.500000 -0.292281
V1    V     V_3+5 0.935650 0.489250 0.500000 1.189176
O8    O     O_R   0.324160 0.593210 0.414480 -0.552691
C3    C     C_R   0.155539 0.614888 0.386237 0.863954
O9    O     O_R   0.323970 0.594270 0.585510 -0.566022
C4    C     C_R   0.155500 0.615367 0.614554 0.791324
V2    V     V_3+5 0.435660 0.510750 0.500000 1.183996
O10   O     O_3   0.160630 0.442060 0.500000 -0.260982
H1    H     H_    0.161649 0.913091 0.492162 0.070905
C5    C     C_R   0.177639 0.566589 0.786487 -0.050512
C6    C     C_R   0.188156 0.538256 0.868747 -0.070593
C7    C     C_R   0.166366 0.602487 0.932656 -0.092466
C8    C     C_R   0.138605 0.693682 0.912218 -0.035312
C9    C     C_R   0.134881 0.723543 0.829408 0.016956
C10   C     C_R   0.151585 0.658188 0.765452 -0.002178
C11   C     C_R   0.118490 0.817165 0.810456 -0.134185
C12   C     C_R   0.122103 0.845492 0.725574 -0.031538
C13   C     C_R   0.138233 0.777860 0.662073 0.039846
C14   C     C_R   0.146657 0.684815 0.681809 -0.120710
C15   C     C_R   0.116429 0.938537 0.699947 -0.047588
C16   C     C_R   0.134970 0.960743 0.616316 -0.039672
C17   C     C_R   0.150616 0.894469 0.556484 -0.089247
C18   C     C_R   0.149720 0.804368 0.578555 -0.054002
H2    H     H_    0.131377 0.030631 0.596662 0.115400
H3    H     H_    0.161524 0.755671 0.528887 0.038985
C19   C     C_2   0.985292 0.709928 0.283278 -0.064153
C20   C     C_2   0.150495 0.682601 0.319362 -0.176889
H4    H     H_    0.849232 0.681959 0.304449 0.100897
C21   C     C_2   0.972780 0.777477 0.215361 -0.044941
C22   C     C_2   0.126016 0.815275 0.177730 -0.149936
C23   C     C_2   0.777818 0.233993 0.800896 -0.051796
C24   C     C_2   0.620675 0.181890 0.818087 -0.179046
H5    H     H_    0.495439 0.184393 0.778405 0.122138
C25   C     C_2   0.790890 0.290991 0.725299 -0.131331
C26   C     C_2   0.637461 0.321800 0.683368 -0.163898
H6    H     H_    0.492526 0.304833 0.702963 0.120375
C27   C     C_2   0.770266 0.214852 0.213874 -0.155178
C28   C     C_2   0.614443 0.169865 0.184782 -0.295200
H7    H     H_    0.482526 0.171358 0.221101 0.122820
C29   C     C_2   0.755010 0.258056 0.296222 -0.068957
C30   C     C_2   0.647540 0.334257 0.307254 -0.189778
O11   O     O_R   0.770210 0.079270 0.910680 -0.553855
O12   O     O_R   0.440150 0.091160 0.082270 -0.553132
O13   O     O_R   0.269970 0.914530 0.082860 -0.565378
C31   C     C_R   0.609228 0.112547 0.110517 0.851476
O14   O     O_R   0.440480 0.090100 0.911240 -0.538947
O15   O     O_R   0.270310 0.913460 0.910610 -0.551159
C32   C     C_R   0.610389 0.114359 0.885273 0.876407
O16   O     O_R   0.769870 0.080340 0.082930 -0.574758
O17   O     O_3   0.603660 0.938980 0.996790 -0.278414
V3    V     V_3+5 0.328750 0.007610 0.996740 1.178646
O18   O     O_R   0.940600 0.902510 0.911180 -0.570248
C33   C     C_R   0.109059 0.883469 0.880388 0.777973
O19   O     O_R   0.940270 0.903570 0.082200 -0.564316
C34   C     C_R   0.109421 0.882137 0.110579 0.830088
V4    V     V_3+5 0.828770 0.986010 0.996670 1.155885
O20   O     O_3   0.103730 0.054750 0.996710 -0.258726
H8    H     H_    0.288291 0.709772 0.300198 0.071817
H9    H     H_    0.828733 0.795902 0.195405 0.090309
H10   H     H_    0.271192 0.797516 0.195869 0.074932
C35   C     C_2   0.947747 0.238972 0.856264 0.543264
H11   H     H_    0.090923 0.245152 0.830061 0.077254
O21   O     O_2   0.928858 0.241644 0.931087 -0.593245
H12   H     H_    0.933707 0.313643 0.706924 0.108685
C36   C     C_2   0.952383 0.226882 0.166647 0.504015
H13   H     H_    0.959801 0.212489 0.101253 0.093854
O22   O     O_2   0.096599 0.256481 0.200527 -0.594057
C37   C     C_2   0.859276 0.211310 0.364061 0.549751
H14   H     H_    0.971782 0.163140 0.348880 0.011921
O23   O     O_2   0.815614 0.222026 0.436387 -0.597677
H15   H     H_    0.191631 0.515802 0.738618 0.097997
C38   C     C_2   0.535203 0.375001 0.237951 0.512143
H16   H     H_    0.532049 0.344221 0.177256 0.033722
O24   O     O_2   0.445529 0.445174 0.247738 -0.554381
C39   C     C_2   0.220481 0.440979 0.885727 0.448494
H17   H     H_    0.175309 0.411050 0.943411 0.021241
O25   O     O_2   0.298885 0.392559 0.834662 -0.606385
C40   C     C_2   0.180691 0.576930 0.021109 0.496503
H18   H     H_    0.237825 0.512041 0.039377 0.008404
O26   O     O_2   0.130005 0.629003 0.075502 -0.572829
H19   H     H_    0.124851 0.741709 0.962325 0.099311
C41   C     C_2   0.081074 0.016011 0.755345 0.453901
H20   H     H_    0.962148 0.014520 0.797955 0.021540
O27   O     O_2   0.179190 0.084293 0.750442 -0.611173

loop_
_geom_bond_atom_site_label_1
_geom_bond_atom_site_label_2
_geom_bond_distance
_ccdc_geom_bond_type
C11   C33   1.497991 S    
O15   V3    2.009620 S    
C19   C21   1.493830 S    
O11   V4    2.009134 S    
C36   H13   1.082006 S    
C29   C37   1.490654 S    
C6    C7    1.411603 A    
C1    O6    1.291585 A    
C8    H19   1.081597 S    
C27   C28   1.352475 D    
C12   C15   1.441297 A    
C13   C14   1.416957 A    
C21   C22   1.347518 D    
C15   C16   1.402890 A    
C37   O23   1.221045 D    
C19   C20   1.350447 D    
C16   H2    1.084402 S    
O5    C3    1.296809 A    
C17   C18   1.382711 A    
C40   O26   1.220882 D    
V2    O10   2.160134 S    
C21   H9    1.086083 S    
C27   C36   1.487878 S    
C5    C6    1.402312 A    
C35   O21   1.220944 D    
O19   V4    2.007993 S    
O8    V2    2.008060 S    
C5    H15   1.082705 S    
C24   C32   1.483823 S    
C7    C40   1.488698 S    
C18   H3    1.081700 S    
O1    V2    2.010669 S    
C10   C14   1.414842 A    
C4    C14   1.496779 S    
C16   C17   1.381130 A    
O7    V1    2.162352 S    
C13   C18   1.414145 A    
O9    C4    1.297909 A    
H1    C17   1.082876 S    
C36   O22   1.221119 D    
C6    C39   1.484969 S    
C23   C25   1.494228 S    
O14   V3    2.006530 S    
O17   V4    1.708449 S    
O14   C32   1.301820 A    
C5    C10   1.411845 A    
C37   H14   1.085580 S    
C2    C30   1.474893 S    
C38   O24   1.221553 D    
C23   C24   1.363613 D    
O4    C2    1.295511 A    
C31   O16   1.291803 A    
C40   H18   1.082531 S    
C20   H8    1.082341 S    
O17   V3    2.162365 S    
O11   C32   1.293485 A    
O18   C33   1.301421 A    
O12   C31   1.297386 A    
O2    C1    1.301316 A    
C26   H6    1.083647 S    
O19   C34   1.300885 A    
O13   V3    2.007807 S    
C41   O27   1.220447 D    
C39   H17   1.082975 S    
C25   H12   1.087230 S    
C23   C35   1.483560 S    
C11   C12   1.441141 A    
C3    C20   1.480807 S    
O3    C4    1.297751 A    
C29   C30   1.364389 D    
C39   O25   1.221094 D    
C22   H10   1.082426 S    
O6    V2    2.008663 S    
O9    V2    2.009758 S    
C9    C11   1.425874 A    
O12   V3    2.008100 S    
C25   C26   1.344752 D    
O2    V1    2.006485 S    
O16   V4    2.014407 S    
C22   C34   1.479764 S    
C27   C29   1.481933 S    
C28   H7    1.088226 S    
C24   H5    1.082087 S    
O1    C2    1.291436 A    
C38   H16   1.082998 S    
O13   C34   1.292991 A    
O5    V1    2.007728 S    
O8    C3    1.297685 A    
C1    C26   1.477321 S    
C30   C38   1.497685 S    
O18   V4    2.009731 S    
V4    O20   2.160052 S    
C12   C13   1.437496 A    
O4    V1    2.007980 S    
O3    V1    2.009628 S    
V1    O10   1.710988 S    
V3    O20   1.710939 S    
C41   H20   1.076175 S    
O15   C33   1.298053 A    
C28   C31   1.470522 S    
C19   H4    1.086106 S    
O7    V2    1.709661 S    
C35   H11   1.083946 S    
C7    C8    1.405329 A    
C9    C10   1.420008 A    
C15   C41   1.474526 S    
C8    C9    1.416113 A    
