data_str_m9_o10_o29_f0_sra.sym.90
_audit_creation_date              2013-03-05T15:41:01-0500
_audit_creation_method            fapswitch 2.2
_symmetry_space_group_name_H-M    P1
_symmetry_Int_Tables_number       1
_space_group_crystal_system       triclinic
_cell_length_a                    28.127531
_cell_length_b                    7.193021
_cell_length_c                    17.168472
_cell_angle_alpha                 90.025269
_cell_angle_beta                  101.305721
_cell_angle_gamma                 90.175312
_cell_volume                      3406.13628436

loop_
_atom_site_label
_atom_site_type_symbol
_atom_site_description
_atom_site_fract_x
_atom_site_fract_y
_atom_site_fract_z
_atom_type_partial_charge
O1    O     O_R   0.000700 0.436510 0.857920 -0.551046
O2    O     O_R   0.999300 0.563490 0.142080 -0.562459
O3    O     O_R   0.999300 0.936510 0.642080 -0.539101
O4    O     O_R   0.000700 0.063490 0.357920 -0.562569
O5    O     O_R   0.930080 0.766380 0.721890 -0.525474
O6    O     O_R   0.069920 0.233620 0.278110 -0.558136
O7    O     O_R   0.069920 0.266380 0.778110 -0.514260
O8    O     O_R   0.930080 0.733620 0.221890 -0.557800
C1    C     C_R   0.910654 0.597821 0.708361 0.857141
C2    C     C_R   0.089283 0.402669 0.292073 0.860074
C3    C     C_R   0.089407 0.097693 0.789712 0.826492
C4    C     C_R   0.910512 0.901650 0.209025 0.850297
O9    O     O_R   0.996180 0.766230 0.862310 -0.558126
O10   O     O_R   0.003820 0.233770 0.137690 -0.539184
O11   O     O_R   0.003820 0.266230 0.637690 -0.555539
O12   O     O_R   0.996180 0.733770 0.362310 -0.533720
O13   O     O_R   0.065870 0.936460 0.783500 -0.553195
O14   O     O_R   0.934130 0.063540 0.216500 -0.517457
O15   O     O_R   0.934130 0.436460 0.716500 -0.555179
O16   O     O_R   0.065870 0.563540 0.283500 -0.527703
C5    C     C_R   0.998480 0.596503 0.894495 0.869493
C6    C     C_R   0.001534 0.403484 0.105508 0.883944
C7    C     C_R   0.001570 0.096464 0.605523 0.877101
C8    C     C_R   0.998534 0.903502 0.394510 0.875747
O17   O     O_3   0.022790 0.603020 0.723980 -0.266058
O18   O     O_3   0.977210 0.396980 0.276020 -0.273630
O19   O     O_3   0.977210 0.103020 0.776020 -0.281515
O20   O     O_3   0.022790 0.896980 0.223980 -0.283684
V1    V     V_3+5 0.995770 0.877900 0.754830 1.236169
V2    V     V_3+5 0.004230 0.122100 0.245170 1.235546
V3    V     V_3+5 0.004230 0.377900 0.745170 1.242136
V4    V     V_3+5 0.995770 0.622100 0.254830 1.239220
C9    C     C_2   0.001782 0.082671 0.519544 -0.201125
C10   C     C_2   0.998495 0.917216 0.480542 -0.153538
C11   C     C_2   0.998293 0.582659 0.980499 -0.211361
C12   C     C_2   0.001712 0.417271 0.019498 -0.176024
H1    H     H_    0.004433 0.211595 0.487727 0.116786
H2    H     H_    0.995900 0.788266 0.512368 0.132189
H3    H     H_    0.995500 0.711466 0.012319 0.111871
H4    H     H_    0.004497 0.288453 0.987681 0.115021
C13   C     C_R   0.683166 0.934001 0.027273 0.570979
C14   C     C_R   0.315818 0.021181 0.969920 0.572730
C15   C     C_R   0.316667 0.455628 0.475700 0.570074
C16   C     C_R   0.683150 0.557496 0.528241 0.574432
O21   O     O_2   0.713430 0.941192 0.975276 -0.525506
O22   O     O_2   0.286004 0.035285 0.022393 -0.526099
O23   O     O_2   0.288035 0.407902 0.527079 -0.529819
O24   O     O_2   0.713153 0.530081 0.476872 -0.524609
N1    N     N_R   0.701655 0.916781 0.107085 -0.440909
N2    N     N_R   0.296929 0.020955 0.889860 -0.440632
N3    N     N_R   0.296733 0.479722 0.396770 -0.441482
N4    N     N_R   0.702112 0.587997 0.607087 -0.442896
C17   C     C_R   0.671065 0.897981 0.159883 0.562127
C18   C     C_R   0.326791 0.996504 0.836263 0.559962
C19   C     C_R   0.325553 0.524915 0.343656 0.564192
C20   C     C_R   0.672166 0.614945 0.660201 0.563387
C21   C     C_R   0.776262 0.771184 0.182336 -0.007833
C22   C     C_R   0.218518 0.917876 0.808775 -0.003967
C23   C     C_R   0.225696 0.325857 0.312870 -0.013291
C24   C     C_R   0.777439 0.456691 0.686532 -0.006556
C25   C     C_R   0.826637 0.767553 0.208353 -0.121220
C26   C     C_R   0.168523 0.939311 0.781971 -0.122577
C27   C     C_R   0.175371 0.303922 0.287814 -0.138597
C28   C     C_R   0.828129 0.455601 0.710477 -0.128469
C29   C     C_R   0.833400 0.053822 0.134635 0.314055
C30   C     C_R   0.170448 0.215469 0.864964 0.313738
C31   C     C_R   0.162433 0.547829 0.380461 0.312823
C32   C     C_R   0.833033 0.726826 0.626740 0.313964
C33   C     C_R   0.782590 0.059837 0.113676 -0.048094
C34   C     C_R   0.220798 0.195191 0.888681 -0.038921
C35   C     C_R   0.212877 0.570965 0.402522 -0.045504
C36   C     C_R   0.782209 0.727164 0.605225 -0.045314
C37   C     C_R   0.753746 0.916930 0.135278 0.205922
C38   C     C_R   0.245182 0.045149 0.862078 0.204529
C39   C     C_R   0.244803 0.459784 0.369912 0.208408
C40   C     C_R   0.754201 0.592026 0.634002 0.213568
C41   C     C_R   0.600915 0.925124 0.051901 -0.071163
C42   C     C_R   0.397177 0.979152 0.944240 -0.070855
C43   C     C_R   0.397189 0.519122 0.449885 -0.069692
C44   C     C_R   0.601259 0.574467 0.554223 -0.070405
C45   C     C_R   0.632726 0.942566 0.998713 -0.042706
C46   C     C_R   0.366167 0.004789 0.998205 -0.044118
C47   C     C_R   0.366941 0.478296 0.503709 -0.042350
C48   C     C_R   0.632544 0.552277 0.500397 -0.043636
C49   C     C_R   0.613877 0.973090 0.918375 -0.070753
C50   C     C_R   0.385889 0.018247 0.079181 -0.069468
C51   C     C_R   0.387398 0.456810 0.584129 -0.071692
C52   C     C_R   0.612918 0.519993 0.420302 -0.068645
C53   C     C_R   0.620399 0.897112 0.133030 -0.039385
C54   C     C_R   0.376983 0.969923 0.862553 -0.038028
C55   C     C_R   0.376194 0.543564 0.369044 -0.041025
C56   C     C_R   0.621329 0.607943 0.634853 -0.040813
C57   C     C_R   0.856422 0.907676 0.183746 -0.191125
C58   C     C_R   0.143349 0.086089 0.811503 -0.191916
C59   C     C_R   0.142871 0.415491 0.321069 -0.185347
C60   C     C_R   0.856830 0.591264 0.680940 -0.184906
H5    H     H_    0.765397 0.172919 0.077115 0.135363
H6    H     H_    0.241001 0.296264 0.929006 0.129092
H7    H     H_    0.227566 0.672955 0.447317 0.137520
H8    H     H_    0.764256 0.830200 0.563726 0.132901
H9    H     H_    0.638340 0.994668 0.877513 0.143243
H10   H     H_    0.362381 0.046816 0.120879 0.138794
H11   H     H_    0.364468 0.419221 0.625701 0.142131
H12   H     H_    0.636846 0.495521 0.378883 0.141254
C61   C     C_R   0.479016 0.945150 0.915421 0.024060
C62   C     C_R   0.518491 0.926356 0.080033 0.020895
C63   C     C_R   0.519225 0.569515 0.584170 0.021541
C64   C     C_R   0.478613 0.558913 0.420092 0.022280
C65   C     C_R   0.467884 0.963017 0.054696 0.000930
C66   C     C_R   0.530488 0.954347 0.941495 0.002729
C67   C     C_R   0.530072 0.546140 0.445086 0.001450
C68   C     C_R   0.468620 0.529446 0.559426 -0.000037
C69   C     C_R   0.448229 0.962651 0.971680 0.052314
C70   C     C_R   0.549770 0.935513 0.024242 0.052667
C71   C     C_R   0.550017 0.563068 0.527637 0.053854
C72   C     C_R   0.448321 0.535496 0.476679 0.053080
C73   C     C_R   0.456877 0.912324 0.835328 -0.066724
C74   C     C_R   0.539024 0.873909 0.158743 -0.067786
C75   C     C_R   0.540197 0.622439 0.662727 -0.066963
C76   C     C_R   0.456136 0.601289 0.341095 -0.067517
C77   C     C_R   0.407117 0.930304 0.809001 -0.044468
C78   C     C_R   0.588947 0.865144 0.185315 -0.039521
C79   C     C_R   0.590222 0.638260 0.687888 -0.039419
C80   C     C_R   0.406033 0.591236 0.315819 -0.044352
O25   O     O_2   0.308281 0.000802 0.757588 -0.543632
O26   O     O_2   0.689417 0.883216 0.238360 -0.542230
O27   O     O_2   0.691407 0.649282 0.737212 -0.535600
O28   O     O_2   0.305360 0.553220 0.266605 -0.537586
C81   C     C_R   0.563981 0.984372 0.889597 -0.062918
C82   C     C_R   0.435747 0.003295 0.107752 -0.060858
C83   C     C_R   0.437136 0.480529 0.612524 -0.061585
C84   C     C_R   0.562803 0.514245 0.392272 -0.062420
H13   H     H_    0.236905 0.801146 0.787939 0.114012
H14   H     H_    0.754254 0.659506 0.198921 0.111702
H15   H     H_    0.755787 0.351458 0.708616 0.103151
H16   H     H_    0.250275 0.238668 0.287808 0.111569
H17   H     H_    0.392283 0.909814 0.746415 0.124259
H18   H     H_    0.602752 0.830417 0.247000 0.121381
H19   H     H_    0.604377 0.675289 0.749254 0.121166
H20   H     H_    0.390802 0.621538 0.254181 0.125305
H21   H     H_    0.477049 0.864523 0.792074 0.073173
H22   H     H_    0.517120 0.831083 0.200423 0.074864
H23   H     H_    0.518467 0.661400 0.705174 0.073219
H24   H     H_    0.476503 0.651410 0.298353 0.075134
N5    N     N_R   0.860787 0.190911 0.101253 0.098431
O29   O     O_R   0.846669 0.363354 0.096277 -0.370880
O30   O     O_R   0.893703 0.138465 0.062220 -0.355557
N6    N     N_R   0.147271 0.363161 0.898984 0.085907
O31   O     O_R   0.147614 0.362578 0.974850 -0.343807
O32   O     O_R   0.135898 0.515203 0.858784 -0.359749
N7    N     N_R   0.131798 0.654246 0.421565 0.093447
O33   O     O_R   0.143311 0.824662 0.443044 -0.361301
O34   O     O_R   0.096814 0.573050 0.448299 -0.362132
N8    N     N_R   0.859861 0.859928 0.590049 0.095355
O35   O     O_R   0.895969 0.805681 0.558564 -0.372877
O36   O     O_R   0.843740 0.028736 0.577026 -0.357365
C85   C     C_1   0.144407 0.811181 0.722023 0.398017
N9    N     N_1   0.125211 0.708649 0.673915 -0.206461
C86   C     C_1   0.846132 0.619076 0.261792 0.394776
N10   N     N_1   0.861599 0.499974 0.304561 -0.233194
C87   C     C_1   0.849446 0.316357 0.767218 0.364588
N11   N     N_1   0.866455 0.204663 0.812671 -0.223987
C88   C     C_1   0.158238 0.169558 0.226050 0.363959
N12   N     N_1   0.144549 0.061874 0.176554 -0.227418
C89   C     C_1   0.550406 0.048499 0.808493 0.266222
N13   N     N_1   0.540268 0.099462 0.743412 -0.284505
C90   C     C_1   0.451595 0.052404 0.190486 0.267423
N14   N     N_1   0.463659 0.091645 0.256844 -0.283893
C91   C     C_1   0.453697 0.433153 0.695198 0.270106
N15   N     N_1   0.466276 0.395521 0.761584 -0.285093
C92   C     C_1   0.547775 0.453148 0.310895 0.266079
N16   N     N_1   0.536351 0.404476 0.245604 -0.283421

loop_
_geom_bond_atom_site_label_1
_geom_bond_atom_site_label_2
_geom_bond_distance
_ccdc_geom_bond_type
O17   V3    1.759774 S    
C47   C51   1.396610 A    
C61   C66   1.430417 A    
N1    C17   1.373122 A    
O1    C5    1.318256 A    
C89   N13   1.157675 T    
C79   H19   1.083566 S    
O19   V1    1.762417 S    
O13   V1    1.980323 S    
C63   C68   1.431754 A    
C64   C76   1.413285 A    
O3    C7    1.318205 A    
C88   N12   1.157421 T    
C14   C46   1.409520 A    
C92   N16   1.157619 T    
O15   V3    1.982980 S    
C36   H8    1.083326 S    
C87   N11   1.157516 T    
O4    V2    2.002629 S    
C42   C54   1.407571 A    
O7    C3    1.331864 A    
C41   C53   1.408069 A    
C32   C60   1.423135 A    
C62   C70   1.423355 A    
O9    V1    2.010812 S    
N3    C39   1.449610 S    
C18   C54   1.408995 A    
C32   N8    1.437139 S    
N2    C38   1.451122 S    
C74   C78   1.390443 A    
O4    C8    1.318288 A    
C25   C57   1.424862 A    
C31   C35   1.404316 A    
C53   C78   1.396991 A    
C21   C37   1.398934 A    
C27   C59   1.419289 A    
C23   H16   1.084190 S    
O1    V3    2.002398 S    
C75   H23   1.076434 S    
C66   C81   1.433905 A    
O2    V4    2.002398 S    
C14   O22   1.349722 S    
C20   O27   1.349199 S    
C77   H17   1.083552 S    
O3    V1    2.002629 S    
C73   C77   1.390342 A    
C34   C38   1.403817 A    
C19   C55   1.411464 A    
N5    O30   1.301436 A    
C76   C80   1.392556 A    
C82   C90   1.446177 S    
C1    O15   1.330930 A    
C85   N9    1.157495 T    
C83   C91   1.445664 S    
C11   C12   1.359760 D    
C2    O16   1.327076 A    
C7    C9    1.480595 S    
C76   H24   1.077239 S    
O2    C6    1.318373 A    
N7    O33   1.301462 A    
C33   C37   1.402006 A    
O14   V2    1.980323 S    
C84   C92   1.445866 S    
C66   C70   1.424520 A    
C30   N6    1.430978 S    
C65   C69   1.424088 A    
C30   C58   1.417786 A    
C49   C81   1.396160 A    
C16   N4    1.371471 A    
O11   C7    1.336188 A    
O12   C8    1.336086 A    
C43   C72   1.426014 A    
C62   C74   1.413400 A    
C31   C59   1.422882 A    
C61   C73   1.413308 A    
O10   V2    2.010813 S    
C63   C75   1.413550 A    
C52   H12   1.085329 S    
N5    O29   1.301293 A    
O5    V1    1.989496 S    
C22   H13   1.084139 S    
C73   H21   1.076015 S    
C18   O25   1.349403 S    
O7    V3    1.994254 S    
C31   N7    1.438207 S    
C44   C48   1.404772 A    
O8    V4    1.994251 S    
C91   N15   1.157674 T    
C12   H4    1.086214 S    
N6    O31   1.300662 A    
C78   H18   1.083674 S    
C56   C79   1.398405 A    
C90   N14   1.157716 T    
O18   V4    1.759775 S    
C50   C82   1.396463 A    
C16   C48   1.410291 A    
C46   C50   1.395361 A    
C35   H7    1.083241 S    
C24   C40   1.400627 A    
C8    C10   1.480507 S    
C32   C36   1.404664 A    
C44   C56   1.409048 A    
C11   H3    1.086212 S    
O5    C1    1.329840 A    
C43   C55   1.409049 A    
C42   C46   1.403884 A    
C86   N10   1.157558 T    
C24   H15   1.084244 S    
C44   C71   1.426083 A    
C41   C45   1.403560 A    
O8    C4    1.330109 A    
C13   C45   1.408861 A    
C9    C10   1.359282 D    
C26   C85   1.445836 S    
O9    C5    1.336811 A    
C36   C40   1.399270 A    
N2    C18   1.373663 A    
O11   V3    2.010133 S    
C1    C60   1.495313 S    
C63   C71   1.422713 A    
N8    O35   1.301298 A    
C51   C83   1.398224 A    
C22   C26   1.400258 A    
C14   N2    1.373039 A    
C51   H11   1.085406 S    
C3    C58   1.492376 S    
O6    V2    1.989496 S    
C55   C80   1.398658 A    
C26   C58   1.420559 A    
C17   C53   1.409187 A    
C54   C77   1.397059 A    
N1    C37   1.450187 S    
C21   H14   1.084350 S    
C42   C69   1.426122 A    
C52   C84   1.397835 A    
C27   C88   1.444525 S    
C29   N5    1.436378 S    
C41   C70   1.425979 A    
C50   H10   1.085469 S    
C23   C39   1.401985 A    
C68   C72   1.424177 A    
C49   H9    1.085543 S    
C22   C38   1.401428 A    
O16   V4    1.982981 S    
C61   C69   1.423796 A    
C3    O13   1.327481 A    
C10   H2    1.086221 S    
N8    O36   1.301479 A    
C80   H20   1.083470 S    
C48   C52   1.396742 A    
N6    O32   1.300369 A    
C28   C87   1.444723 S    
C74   H22   1.076297 S    
O6    C2    1.333108 A    
C21   C25   1.399993 A    
C5    C11   1.480989 S    
C75   C79   1.392847 A    
O12   V4    2.010134 S    
C13   N1    1.372786 A    
C6    C12   1.481012 S    
C23   C27   1.404813 A    
C64   C67   1.429982 A    
C81   C89   1.445889 S    
N4    C40   1.447495 S    
C24   C28   1.404341 A    
C64   C72   1.421973 A    
C25   C86   1.445773 S    
C35   C39   1.400191 A    
C15   C47   1.410432 A    
O10   C6    1.336712 A    
C30   C34   1.402845 A    
N4    C20   1.371365 A    
C2    C59   1.494379 S    
C15   N3    1.372447 A    
C29   C33   1.404501 A    
O20   V2    1.762417 S    
C29   C57   1.423445 A    
C28   C60   1.420286 A    
N3    C19   1.372159 A    
N7    O34   1.301478 A    
C68   C83   1.433159 A    
C4    C57   1.498811 S    
C9    H1    1.086245 S    
C17   O26   1.349379 S    
C43   C47   1.403912 A    
C16   O24   1.349665 S    
C67   C84   1.432060 A    
C20   C56   1.411422 A    
C19   O28   1.349201 S    
C4    O14   1.332480 A    
C65   C82   1.433508 A    
C13   O21   1.349799 S    
C67   C71   1.423337 A    
C15   O23   1.349695 S    
C45   C49   1.394975 A    
C34   H6    1.083308 S    
C62   C65   1.429917 A    
C33   H5    1.083206 S    
