data_str_m4_o1_o24_f0_acs.sym.113
_audit_creation_date              2012-12-11T14:52:24-0500
_audit_creation_method            fapswitch 2.2
_symmetry_space_group_name_H-M    P1
_symmetry_Int_Tables_number       1
_space_group_crystal_system       triclinic
_cell_length_a                    19.142453
_cell_length_b                    11.112157
_cell_length_c                    18.826448
_cell_angle_alpha                 90.049991
_cell_angle_beta                  91.565913
_cell_angle_gamma                 90.097348
_cell_volume                      4003.14498162

loop_
_atom_site_label
_atom_site_type_symbol
_atom_type_description
_atom_site_fract_x
_atom_site_fract_y
_atom_site_fract_z
_atom_type_partial_charge
C1    C     C_R   0.271881 0.045731 0.851918 0.543838
C2    C     C_R   0.728689 0.046190 0.148510 0.537281
C3    C     C_R   0.771881 0.545732 0.851918 0.543837
C4    C     C_R   0.228689 0.546190 0.148510 0.537281
C5    C     C_3   0.540781 0.732028 0.962620 -0.170401
C6    C     C_3   0.491771 0.723661 0.026573 -0.163858
C7    C     C_3   0.040783 0.232029 0.962620 -0.170401
C8    C     C_3   0.991773 0.223660 0.026573 -0.163858
C9    C     C_R   0.315884 0.567913 0.973480 -0.073986
C10   C     C_R   0.685545 0.567863 0.027121 -0.071047
C11   C     C_R   0.815884 0.067911 0.973480 -0.073983
C12   C     C_R   0.185546 0.067861 0.027121 -0.071047
C13   C     C_R   0.310906 0.566340 0.047924 -0.151097
C14   C     C_R   0.691281 0.566903 0.952723 -0.154134
C15   C     C_R   0.810906 0.066339 0.047924 -0.151099
C16   C     C_R   0.191282 0.066900 0.952724 -0.154134
C17   C     C_R   0.248216 0.594678 0.079434 -0.027539
C18   C     C_R   0.754220 0.593026 0.921793 -0.028224
C19   C     C_R   0.748216 0.094677 0.079434 -0.027540
C20   C     C_R   0.254221 0.093024 0.921794 -0.028225
C21   C     C_R   0.195593 0.647907 0.038554 -0.122195
C22   C     C_R   0.808180 0.641394 0.963577 -0.116970
C23   C     C_R   0.695593 0.147906 0.038554 -0.122194
C24   C     C_R   0.308181 0.141390 0.963577 -0.116974
C25   C     C_R   0.198171 0.650002 0.965270 0.280303
C26   C     C_R   0.805157 0.641799 0.036797 0.276973
C27   C     C_R   0.698171 0.150001 0.965270 0.280305
C28   C     C_R   0.305158 0.141795 0.036798 0.276979
C29   C     C_R   0.258106 0.610147 0.930833 0.043502
C30   C     C_R   0.743576 0.606690 0.070359 0.044571
C31   C     C_R   0.758106 0.110146 0.930832 0.043502
C32   C     C_R   0.243577 0.106688 0.070360 0.044570
C33   C     C_R   0.499489 0.723324 0.536345 -0.195162
C34   C     C_R   0.500253 0.723324 0.463539 -0.195584
C35   C     C_R   0.999489 0.223324 0.536345 -0.195162
C36   C     C_R   0.000253 0.223324 0.463539 -0.195583
C37   C     C_R   0.504440 0.831254 0.425706 0.008641
C38   C     C_R   0.495549 0.831253 0.574296 0.009780
C39   C     C_R   0.004440 0.331254 0.425706 0.008641
C40   C     C_R   0.995549 0.331253 0.574296 0.009780
C41   C     C_R   0.501517 0.941768 0.462506 0.261602
C42   C     C_R   0.498710 0.941762 0.537617 0.261921
C43   C     C_R   0.001516 0.441768 0.462506 0.261601
C44   C     C_R   0.998710 0.441762 0.537617 0.261920
C45   C     C_R   0.468239 0.821108 0.855998 0.564319
C46   C     C_R   0.558840 0.817359 0.137902 0.557287
C47   C     C_R   0.968239 0.321108 0.855998 0.564318
C48   C     C_R   0.058841 0.317359 0.137902 0.557289
C49   C     C_R   0.218445 0.697288 0.522577 -0.144325
C50   C     C_R   0.782059 0.696609 0.477362 -0.144158
C51   C     C_R   0.718446 0.197288 0.522577 -0.144325
C52   C     C_R   0.282058 0.196609 0.477362 -0.144158
C53   C     C_R   0.218583 0.688158 0.449970 -0.163900
C54   C     C_R   0.781953 0.687555 0.549954 -0.164179
C55   C     C_R   0.718583 0.188158 0.449970 -0.163900
C56   C     C_R   0.281953 0.187555 0.549954 -0.164179
C57   C     C_R   0.256306 0.597251 0.418679 0.015444
C58   C     C_R   0.743884 0.596965 0.581256 0.015242
C59   C     C_R   0.756306 0.097251 0.418679 0.015444
C60   C     C_R   0.243884 0.096965 0.581256 0.015241
C61   C     C_R   0.306337 0.532868 0.458514 -0.108602
C62   C     C_R   0.693639 0.532675 0.541414 -0.108993
C63   C     C_R   0.806338 0.032868 0.458514 -0.108602
C64   C     C_R   0.193639 0.032675 0.541414 -0.108993
C65   C     C_R   0.309425 0.543936 0.532059 -0.009676
C66   C     C_R   0.690515 0.543687 0.467861 -0.009858
C67   C     C_R   0.809425 0.043936 0.532059 -0.009676
C68   C     C_R   0.190515 0.043687 0.467861 -0.009858
C69   C     C_R   0.261022 0.621898 0.564728 0.053470
C70   C     C_R   0.739119 0.621484 0.435192 0.053324
C71   C     C_R   0.761022 0.121898 0.564728 0.053470
C72   C     C_R   0.239118 0.121484 0.435192 0.053324
C73   C     C_R   0.263196 0.642695 0.854502 0.574256
C74   C     C_R   0.737381 0.641048 0.146109 0.568563
C75   C     C_R   0.763196 0.142694 0.854502 0.574255
C76   C     C_R   0.237381 0.141047 0.146109 0.568563
C77   C     C_R   0.269729 0.048160 0.647931 0.539312
C78   C     C_R   0.730294 0.048201 0.352048 0.541270
C79   C     C_R   0.769729 0.548160 0.647931 0.539312
C80   C     C_R   0.230294 0.548201 0.352048 0.541269
C81   C     C_R   0.469670 0.823601 0.646964 0.576737
C82   C     C_R   0.530332 0.823573 0.353039 0.585220
C83   C     C_R   0.969671 0.323601 0.646964 0.576737
C84   C     C_R   0.030332 0.323573 0.353039 0.585220
C85   C     C_R   0.262667 0.645721 0.640451 0.559679
C86   C     C_R   0.737375 0.645512 0.359505 0.562527
C87   C     C_R   0.762667 0.145721 0.640451 0.559679
C88   C     C_R   0.237375 0.145512 0.359505 0.562526
C89   C     C_3   0.486412 0.919004 0.030183 0.284115
C90   C     C_3   0.533216 0.927353 0.966096 0.269160
C91   C     C_3   0.986412 0.419003 0.030184 0.284117
C92   C     C_3   0.033215 0.427354 0.966096 0.269160
C93   C     C_3   0.442706 0.819649 0.993090 -0.128290
C94   C     C_3   0.583897 0.833857 0.999524 -0.149616
C95   C     C_3   0.942707 0.319647 0.993090 -0.128291
C96   C     C_3   0.083897 0.333859 0.999523 -0.149616
C97   C     C_3   0.492283 0.827229 0.929745 0.011736
C98   C     C_3   0.534814 0.824386 0.063335 0.009983
C99   C     C_3   0.992284 0.327229 0.929745 0.011735
C100  C     C_3   0.034814 0.324385 0.063335 0.009983
Cr1   Cr    Cr6+3 0.229630 0.835900 0.747350 1.030708
Cr2   Cr    Cr6+3 0.770370 0.835900 0.252650 1.021768
Cr3   Cr    Cr6+3 0.729630 0.335900 0.747350 1.030708
Cr4   Cr    Cr6+3 0.270370 0.335900 0.252650 1.021772
Cr5   Cr    Cr6+3 0.387410 0.989850 0.750850 1.008087
Cr6   Cr    Cr6+3 0.612590 0.989850 0.249150 1.011530
Cr7   Cr    Cr6+3 0.887410 0.489850 0.750850 1.008086
Cr8   Cr    Cr6+3 0.112590 0.489850 0.249150 1.011530
Cr9   Cr    Cr6+3 0.385800 0.677120 0.749340 0.986747
Cr10  Cr    Cr6+3 0.614200 0.677120 0.250660 0.985383
Cr11  Cr    Cr6+3 0.885800 0.177120 0.749340 0.986747
Cr12  Cr    Cr6+3 0.114200 0.177120 0.250660 0.985383
H1    H     H_    0.384769 0.815757 0.989010 0.126983
H2    H     H_    0.641758 0.841025 0.003108 0.119177
H3    H     H_    0.884769 0.315754 0.989010 0.126983
H4    H     H_    0.141759 0.341028 0.003108 0.119177
H5    H     H_    0.183972 0.762818 0.545488 0.137126
H6    H     H_    0.816758 0.761957 0.454481 0.137039
H7    H     H_    0.683972 0.262818 0.545488 0.137126
H8    H     H_    0.316758 0.261957 0.454481 0.137038
H9    H     H_    0.182123 0.740655 0.418797 0.113613
H10   H     H_    0.818664 0.739871 0.581111 0.113210
H11   H     H_    0.682123 0.240655 0.418797 0.113613
H12   H     H_    0.318664 0.239871 0.581111 0.113210
H13   H     H_    0.339465 0.467915 0.432927 0.125421
H14   H     H_    0.660298 0.467951 0.567014 0.124735
H15   H     H_    0.839465 0.967915 0.432927 0.125421
H16   H     H_    0.160298 0.967952 0.567014 0.124735
H17   H     H_    0.558913 0.655466 0.930779 0.132996
H18   H     H_    0.474381 0.639962 0.052812 0.132767
H19   H     H_    0.058915 0.155468 0.930778 0.132996
H20   H     H_    0.974383 0.139960 0.052812 0.132766
H21   H     H_    0.354576 0.537404 0.081374 0.118299
H22   H     H_    0.648780 0.535852 0.918596 0.111011
H23   H     H_    0.854577 0.037405 0.081373 0.118297
H24   H     H_    0.148781 0.035851 0.918597 0.111011
H25   H     H_    0.149814 0.682897 0.063172 0.117183
H26   H     H_    0.855218 0.673148 0.939857 0.119537
H27   H     H_    0.649814 0.182897 0.063171 0.117183
H28   H     H_    0.355218 0.173145 0.939858 0.119538
H29   H     H_    0.499231 0.636906 0.562615 0.144586
H30   H     H_    0.500330 0.636903 0.437171 0.144727
H31   H     H_    0.999231 0.136906 0.562615 0.144586
H32   H     H_    0.000330 0.136903 0.437171 0.144727
O1    O     O_R   0.214270 0.709000 0.827470 -0.448147
O2    O     O_R   0.785730 0.709000 0.172530 -0.458856
O3    O     O_R   0.714270 0.209000 0.827470 -0.448147
O4    O     O_R   0.285730 0.209000 0.172530 -0.458848
O5    O     O_R   0.445950 0.919440 0.676520 -0.458414
O6    O     O_R   0.554050 0.919440 0.323480 -0.453634
O7    O     O_R   0.945950 0.419440 0.676520 -0.458414
O8    O     O_R   0.054050 0.419440 0.323480 -0.453635
O9    O     O_R   0.456730 0.717630 0.669840 -0.544132
O10   O     O_R   0.543270 0.717630 0.330160 -0.540612
O11   O     O_R   0.956730 0.217630 0.669840 -0.544132
O12   O     O_R   0.043270 0.217630 0.330160 -0.540612
O13   O     O_R   0.320620 0.625640 0.672920 -0.514238
O14   O     O_R   0.679380 0.625640 0.327080 -0.513876
O15   O     O_R   0.820620 0.125640 0.672920 -0.514237
O16   O     O_R   0.179380 0.125640 0.327080 -0.513876
O17   O     O_3   0.334280 0.834290 0.749180 -0.267500
O18   O     O_3   0.665720 0.834290 0.250820 -0.284413
O19   O     O_3   0.834280 0.334290 0.749180 -0.267499
O20   O     O_3   0.165720 0.334290 0.250820 -0.284413
O21   O     O_R   0.236160 0.958490 0.823130 -0.507418
O22   O     O_R   0.763840 0.958490 0.176870 -0.514288
O23   O     O_R   0.736160 0.458490 0.823130 -0.507419
O24   O     O_R   0.263840 0.458490 0.176870 -0.514281
O25   O     O_R   0.332080 0.075470 0.831280 -0.552332
O26   O     O_R   0.667920 0.075470 0.168720 -0.558802
O27   O     O_R   0.832080 0.575470 0.831280 -0.552332
O28   O     O_R   0.167920 0.575470 0.168720 -0.558803
O29   O     O_R   0.446300 0.918110 0.826620 -0.512861
O30   O     O_R   0.553700 0.918110 0.173380 -0.489759
O31   O     O_R   0.946300 0.418110 0.826620 -0.512860
O32   O     O_R   0.053700 0.418110 0.173380 -0.489757
O33   O     O_R   0.457110 0.716200 0.831760 -0.547691
O34   O     O_R   0.542890 0.716200 0.168240 -0.534698
O35   O     O_R   0.957110 0.216200 0.831760 -0.547691
O36   O     O_R   0.042890 0.216200 0.168240 -0.534697
O37   O     O_R   0.320980 0.624310 0.823030 -0.528420
O38   O     O_R   0.679020 0.624310 0.176970 -0.539405
O39   O     O_R   0.820980 0.124310 0.823030 -0.528420
O40   O     O_R   0.179020 0.124310 0.176970 -0.539406
O41   O     O_R   0.213890 0.710430 0.665540 -0.516711
O42   O     O_R   0.786110 0.710430 0.334460 -0.514236
O43   O     O_R   0.713890 0.210430 0.665540 -0.516711
O44   O     O_R   0.286110 0.210430 0.334460 -0.514236
O45   O     O_R   0.235810 0.959820 0.673020 -0.514228
O46   O     O_R   0.764190 0.959820 0.326980 -0.511841
O47   O     O_R   0.735810 0.459820 0.673020 -0.514228
O48   O     O_R   0.264190 0.459820 0.326980 -0.511841
O49   O     O_R   0.331700 0.076900 0.669350 -0.548253
O50   O     O_R   0.668300 0.076900 0.330650 -0.547522
O51   O     O_R   0.831700 0.576900 0.669350 -0.548254
O52   O     O_R   0.168300 0.576900 0.330650 -0.547523
C101  C     C_3   0.363136 0.470592 0.573029 -0.385893
H33   H     H_    0.338412 0.423704 0.617807 0.139578
H34   H     H_    0.388665 0.402786 0.539044 0.080197
H35   H     H_    0.404831 0.529951 0.594739 0.171641
C102  C     C_3   0.636483 0.470591 0.426887 -0.385991
H36   H     H_    0.660903 0.423779 0.381908 0.140099
H37   H     H_    0.610911 0.402679 0.460802 0.080244
H38   H     H_    0.594896 0.530149 0.405460 0.171277
C103  C     C_3   0.863136 0.970592 0.573030 -0.385893
H39   H     H_    0.838412 0.923704 0.617807 0.139579
H40   H     H_    0.888665 0.902786 0.539044 0.080197
H41   H     H_    0.904830 0.029951 0.594739 0.171641
C104  C     C_3   0.136483 0.970591 0.426887 -0.385991
H42   H     H_    0.160903 0.923780 0.381908 0.140099
H43   H     H_    0.110911 0.902679 0.460802 0.080244
H44   H     H_    0.094896 0.030149 0.405460 0.171277
O53   O     O_3   0.457406 0.014559 0.068316 -0.509394
C105  C     C_3   0.509104 0.100815 0.087163 -0.003047
H45   H     H_    0.504016 0.180938 0.053347 0.095499
H46   H     H_    0.563147 0.067571 0.083017 0.131946
H47   H     H_    0.501344 0.130213 0.142721 0.157806
O54   O     O_3   0.552838 0.031970 0.930267 -0.518378
C106  C     C_3   0.494157 0.102597 0.909819 -0.015315
H48   H     H_    0.495491 0.190436 0.936781 0.089120
H49   H     H_    0.443283 0.060667 0.921406 0.137639
H50   H     H_    0.496286 0.121949 0.852125 0.159094
O55   O     O_3   0.957406 0.514556 0.068318 -0.509389
C107  C     C_3   0.009103 0.600814 0.087163 -0.003047
H51   H     H_    0.004012 0.680937 0.053348 0.095503
H52   H     H_    0.063146 0.567572 0.083017 0.131945
H53   H     H_    0.001343 0.630212 0.142722 0.157804
O56   O     O_3   0.052836 0.531972 0.930268 -0.518378
C108  C     C_3   0.994154 0.602597 0.909820 -0.015317
H54   H     H_    0.995488 0.690437 0.936782 0.089117
H55   H     H_    0.943281 0.560666 0.921407 0.137641
H56   H     H_    0.996284 0.621949 0.852126 0.159095
C109  C     C_3   0.381830 0.520575 0.942336 -0.393918
H57   H     H_    0.419677 0.488888 0.983524 0.078517
H58   H     H_    0.369802 0.445395 0.905064 0.138728
H59   H     H_    0.408878 0.593312 0.915511 0.201984
C110  C     C_3   0.619618 0.518554 0.057786 -0.400304
H60   H     H_    0.580099 0.494354 0.016223 0.082044
H61   H     H_    0.631609 0.438419 0.091104 0.131756
H62   H     H_    0.594042 0.586719 0.089191 0.198563
C111  C     C_3   0.881830 0.020576 0.942336 -0.393914
H63   H     H_    0.919678 0.988891 0.983524 0.078517
H64   H     H_    0.869804 0.945396 0.905063 0.138728
H65   H     H_    0.908878 0.093313 0.915511 0.201984
C112  C     C_3   0.119619 0.018552 0.057786 -0.400304
H66   H     H_    0.080099 0.994352 0.016223 0.082043
H67   H     H_    0.131609 0.938417 0.091105 0.131755
H68   H     H_    0.094043 0.086718 0.089191 0.198562
O57   O     O_3   0.140394 0.687165 0.925640 -0.488711
C113  C     C_3   0.119984 0.802572 0.945516 -0.104908
H69   H     H_    0.165792 0.854876 0.963816 0.133953
H70   H     H_    0.081806 0.797264 0.988437 0.078989
H71   H     H_    0.094687 0.847529 0.898980 0.132009
O58   O     O_3   0.864125 0.672208 0.076704 -0.497935
C114  C     C_3   0.880969 0.793217 0.065026 -0.105671
H72   H     H_    0.912727 0.827143 0.110993 0.126570
H73   H     H_    0.833034 0.847976 0.060300 0.139908
H74   H     H_    0.912458 0.801033 0.016853 0.076105
O59   O     O_3   0.640394 0.187166 0.925640 -0.488714
C115  C     C_3   0.619986 0.302574 0.945516 -0.104911
H75   H     H_    0.665795 0.354877 0.963815 0.133955
H76   H     H_    0.581808 0.297268 0.988437 0.078988
H77   H     H_    0.594689 0.347531 0.898979 0.132009
O60   O     O_3   0.364125 0.172212 0.076705 -0.497931
C116  C     C_3   0.380969 0.293219 0.065019 -0.105669
H78   H     H_    0.412716 0.327160 0.110991 0.126582
H79   H     H_    0.333035 0.347977 0.060273 0.139886
H80   H     H_    0.412470 0.301023 0.016852 0.076104
O61   O     O_3   0.496563 0.048060 0.424394 -0.567204
C117  C     C_3   0.558163 0.115873 0.434866 -0.064584
H81   H     H_    0.564582 0.173801 0.387590 0.147536
H82   H     H_    0.605050 0.057780 0.442165 0.150394
H83   H     H_    0.554889 0.177144 0.481024 0.127935
O62   O     O_3   0.503859 0.048050 0.575848 -0.568369
C118  C     C_3   0.442341 0.115744 0.565526 -0.064502
H84   H     H_    0.436016 0.173566 0.612908 0.147086
H85   H     H_    0.395373 0.057566 0.558161 0.151460
H86   H     H_    0.445671 0.177088 0.519459 0.127830
O63   O     O_3   0.996563 0.548060 0.424394 -0.567203
C119  C     C_3   0.058163 0.615873 0.434866 -0.064584
H87   H     H_    0.064582 0.673801 0.387590 0.147535
H88   H     H_    0.105050 0.557778 0.442164 0.150394
H89   H     H_    0.054890 0.677143 0.481025 0.127935
O64   O     O_3   0.003860 0.548050 0.575848 -0.568369
C120  C     C_3   0.942342 0.615745 0.565527 -0.064499
H90   H     H_    0.936016 0.673565 0.612909 0.147087
H91   H     H_    0.895373 0.557566 0.558160 0.151459
H92   H     H_    0.945672 0.677091 0.519459 0.127829

loop_
_geom_bond_atom_site_label_1
_geom_bond_atom_site_label_2
_ccdc_geom_bond_type
C58   C62   A    
Cr12  O12   S    
C114  H73   S    
Cr3   O23   S    
Cr6   O6    S    
C55   C59   A    
C34   C37   A    
C80   O48   A    
C41   C42   A    
C14   C18   A    
C19   C23   A    
C35   C36   A    
C78   O46   A    
C119  H89   S    
C21   H25   S    
C6    H18   S    
C75   O39   A    
C107  H51   S    
C26   C30   A    
Cr7   O51   S    
C5    C94   S    
Cr10  O18   S    
C81   O9    A    
C7    C8    S    
Cr12  O40   S    
Cr7   O27   S    
O53   C105  S    
C24   H28   S    
C15   C19   A    
C7    C96   S    
Cr8   O20   S    
Cr1   O1    S    
O57   C113  S    
C50   C54   A    
Cr5   O25   S    
Cr10  O10   S    
C64   C68   A    
Cr9   O17   S    
C23   H27   S    
O64   C120  S    
C118  H85   S    
C119  H88   S    
C39   C84   S    
C38   C42   A    
C108  H56   S    
Cr1   O45   S    
C54   C58   A    
C5    C6    S    
C30   C74   S    
C109  H58   S    
C95   C99   S    
C83   O11   A    
Cr10  O34   S    
C113  H70   S    
C12   C112  S    
C44   O64   S    
C96   C100  S    
C92   C96   S    
C104  H44   S    
C79   O51   A    
C51   C55   A    
C3    C18   S    
C111  H63   S    
C78   O50   A    
C107  H52   S    
C101  H34   S    
C46   O34   A    
Cr3   O19   S    
C9    C13   A    
Cr2   O46   S    
Cr8   O8    S    
C66   C102  S    
C11   C15   A    
C8    C100  S    
C49   H5    S    
O55   C107  S    
C15   H23   S    
C95   H3    S    
O60   C116  S    
C64   H16   S    
Cr4   O48   S    
C8    H20   S    
C47   C99   S    
C47   O35   A    
O63   C119  S    
C46   O30   A    
C92   O56   S    
C41   O61   S    
O62   C118  S    
C65   C101  S    
C23   C27   A    
C91   C100  S    
Cr8   O52   S    
C18   C22   A    
Cr9   O9    S    
C109  H57   S    
C2    O22   A    
C90   C97   S    
C7    H19   S    
C67   C103  S    
C9    C29   A    
Cr12  O36   S    
C63   H15   S    
Cr7   O7    S    
C49   C69   A    
C113  H71   S    
C5    H17   S    
C46   C98   S    
C114  H74   S    
C11   C31   A    
Cr2   O22   S    
C79   O47   A    
O61   C117  S    
C12   C32   A    
Cr4   O44   S    
Cr11  O35   S    
C102  H37   S    
C57   C80   S    
C40   C83   S    
C8    C95   S    
C85   O13   A    
C115  H77   S    
Cr1   O41   S    
C68   C104  S    
C59   C78   S    
O56   C108  S    
C72   C88   S    
C108  H54   S    
C74   O2    A    
Cr9   O13   S    
C90   C94   S    
C83   O7    A    
Cr5   O5    S    
C81   O5    A    
C25   C29   A    
Cr12  O20   S    
C55   H11   S    
C60   C77   S    
C62   C66   A    
C27   C31   A    
C94   H2    S    
C12   C16   A    
C28   C32   A    
C48   C100  S    
Cr3   O43   S    
C119  H87   S    
C115  H76   S    
C26   O58   S    
C106  H48   S    
C62   H14   S    
C112  H66   S    
C53   C57   A    
C105  H45   S    
C39   C43   A    
C14   H22   S    
C87   O43   A    
C75   O3    A    
C113  H69   S    
C103  H39   S    
Cr6   O50   S    
C9    C109  S    
C89   C93   S    
C17   C21   A    
C56   C60   A    
C73   O1    A    
C68   C72   A    
C111  H64   S    
C82   O10   A    
C101  H35   S    
Cr5   O49   S    
C43   C44   A    
C63   C67   A    
C32   C76   S    
C120  H90   S    
C52   C72   A    
C45   O29   A    
C106  H49   S    
C73   O37   A    
C109  H59   S    
C10   C30   A    
C51   H7    S    
C104  H42   S    
C1    O21   A    
C16   C20   A    
C6    C93   S    
C77   O49   A    
C25   O57   S    
C118  H86   S    
Cr11  O39   S    
C33   C34   A    
Cr6   O30   S    
Cr11  O19   S    
C28   O60   S    
Cr2   O42   S    
C10   C110  S    
C88   O16   A    
Cr1   O21   S    
C86   O14   A    
Cr10  O38   S    
C82   O6    A    
C7    C99   S    
C58   C79   S    
C2    O26   A    
C71   C87   S    
C4    C17   S    
C52   H8    S    
C6    C98   S    
C118  H84   S    
C5    C97   S    
C86   O42   A    
C66   C70   A    
C112  H67   S    
C38   C81   S    
C22   C26   A    
C11   C111  S    
C102  H38   S    
C117  H82   S    
C37   C82   S    
C112  H68   S    
Cr3   O47   S    
C88   O44   A    
C91   O55   S    
C114  H72   S    
C70   C86   S    
C107  H53   S    
C93   C97   S    
C31   C75   S    
C48   O36   A    
C69   C85   S    
Cr2   O18   S    
C52   C56   A    
C89   O53   S    
C116  H78   S    
C103  H41   S    
Cr9   O37   S    
C65   C69   A    
C21   C25   A    
C34   H30   S    
C1    C20   S    
C4    O28   A    
C85   O41   A    
C2    C19   S    
C50   H6    S    
C4    O24   A    
C13   H21   S    
C84   O8    A    
C36   C39   A    
C96   H4    S    
C24   C28   A    
Cr11  O15   S    
C115  H75   S    
C105  H47   S    
Cr10  O14   S    
Cr4   O20   S    
C61   H13   S    
Cr4   O24   S    
C51   C71   A    
C57   C61   A    
C74   O38   A    
C45   O33   A    
C120  H92   S    
C27   O59   S    
C22   H26   S    
C35   H31   S    
C59   C63   A    
C33   C38   A    
C102  H36   S    
C13   C17   A    
C89   C98   S    
C60   C64   A    
C80   O52   A    
C77   O45   A    
C111  H65   S    
O58   C114  S    
C110  H61   S    
C35   C40   A    
C36   H32   S    
C105  H46   S    
Cr4   O4    S    
C108  H55   S    
C116  H79   S    
C45   C97   S    
Cr2   O2    S    
C106  H50   S    
C84   O12   A    
C3    O27   A    
O54   C106  S    
C50   C70   A    
Cr7   O31   S    
Cr8   O28   S    
C49   C53   A    
Cr8   O32   S    
Cr1   O17   S    
C104  H43   S    
C87   O15   A    
C93   H1    S    
C67   C71   A    
Cr6   O18   S    
C37   C41   A    
C101  H33   S    
C116  H80   S    
C110  H60   S    
C90   O54   S    
C117  H83   S    
C53   H9    S    
C33   H29   S    
C42   O62   S    
C61   C65   A    
C3    O23   A    
C54   H10   S    
C29   C73   S    
Cr12  O16   S    
C76   O4    A    
C91   C95   S    
C120  H91   S    
Cr6   O26   S    
C110  H62   S    
C1    O25   A    
C40   C44   A    
Cr9   O33   S    
C94   C98   S    
C117  H81   S    
C56   H12   S    
Cr5   O17   S    
Cr5   O29   S    
Cr7   O19   S    
C89   C90   S    
C76   O40   A    
C103  H40   S    
Cr11  O11   S    
C20   C24   A    
C47   O31   A    
C91   C92   S    
O59   C115  S    
C92   C99   S    
C10   C14   A    
Cr3   O3    S    
C48   O32   A    
C43   O63   S    
C16   H24   S    
