data_str_m4_o1_o24_f0_acs.sym.191
_audit_creation_date              2013-03-05T15:45:45-0500
_audit_creation_method            fapswitch 2.2
_symmetry_space_group_name_H-M    P1
_symmetry_Int_Tables_number       1
_space_group_crystal_system       triclinic
_cell_length_a                    18.884133
_cell_length_b                    10.988087
_cell_length_c                    18.835893
_cell_angle_alpha                 90.040256
_cell_angle_beta                  91.194931
_cell_angle_gamma                 90.026404
_cell_volume                      3907.60577681

loop_
_atom_site_label
_atom_site_type_symbol
_atom_site_description
_atom_site_fract_x
_atom_site_fract_y
_atom_site_fract_z
_atom_type_partial_charge
O1    O     O_R   0.214270 0.709000 0.827470 -0.523666
O2    O     O_R   0.785730 0.709000 0.172530 -0.523767
O3    O     O_R   0.714270 0.209000 0.827470 -0.523451
O4    O     O_R   0.285730 0.209000 0.172530 -0.524570
O5    O     O_R   0.236160 0.958490 0.823130 -0.511067
O6    O     O_R   0.763840 0.958490 0.176870 -0.510784
O7    O     O_R   0.736160 0.458490 0.823130 -0.511238
O8    O     O_R   0.263840 0.458490 0.176870 -0.510851
C1    C     C_R   0.272828 0.041031 0.854184 0.541570
C2    C     C_R   0.727723 0.041788 0.146304 0.542080
C3    C     C_R   0.773410 0.539821 0.854742 0.541368
C4    C     C_R   0.227626 0.541713 0.146231 0.542659
O9    O     O_R   0.332080 0.075470 0.831280 -0.519318
O10   O     O_R   0.667920 0.075470 0.168720 -0.517072
O11   O     O_R   0.832080 0.575470 0.831280 -0.519837
O12   O     O_R   0.167920 0.575470 0.168720 -0.517641
O13   O     O_R   0.446300 0.918110 0.826620 -0.506135
O14   O     O_R   0.553700 0.918110 0.173380 -0.505461
O15   O     O_R   0.946300 0.418110 0.826620 -0.507714
O16   O     O_R   0.053700 0.418110 0.173380 -0.505511
C5    C     C_R   0.470412 0.821697 0.855651 0.536999
C6    C     C_R   0.529228 0.821727 0.144584 0.535835
C7    C     C_R   0.970443 0.321684 0.855630 0.536399
C8    C     C_R   0.029331 0.321706 0.144531 0.536372
O17   O     O_R   0.457110 0.716200 0.831760 -0.521643
O18   O     O_R   0.542890 0.716200 0.168240 -0.522329
O19   O     O_R   0.957110 0.216200 0.831760 -0.521384
O20   O     O_R   0.042890 0.216200 0.168240 -0.521718
O21   O     O_R   0.320980 0.624310 0.823030 -0.498937
O22   O     O_R   0.679020 0.624310 0.176970 -0.501449
O23   O     O_R   0.820980 0.124310 0.823030 -0.498493
O24   O     O_R   0.179020 0.124310 0.176970 -0.500280
C9    C     C_R   0.261816 0.640781 0.853360 0.546901
C10   C     C_R   0.739011 0.637173 0.147914 0.545876
C11   C     C_R   0.762051 0.141625 0.853628 0.546852
C12   C     C_R   0.238725 0.138546 0.147388 0.546181
O25   O     O_R   0.213890 0.710430 0.665540 -0.509612
O26   O     O_R   0.786110 0.710430 0.334460 -0.511490
O27   O     O_R   0.713890 0.210430 0.665540 -0.509991
O28   O     O_R   0.286110 0.210430 0.334460 -0.513338
O29   O     O_R   0.235810 0.959820 0.673020 -0.516665
O30   O     O_R   0.764190 0.959820 0.326980 -0.517887
O31   O     O_R   0.735810 0.459820 0.673020 -0.516994
O32   O     O_R   0.264190 0.459820 0.326980 -0.516871
C13   C     C_R   0.270780 0.045400 0.646193 0.560937
C14   C     C_R   0.729318 0.045646 0.353705 0.560240
C15   C     C_R   0.770623 0.545775 0.646341 0.561421
C16   C     C_R   0.229306 0.545579 0.353753 0.560740
O33   O     O_R   0.331700 0.076900 0.669350 -0.455577
O34   O     O_R   0.668300 0.076900 0.330650 -0.453687
O35   O     O_R   0.831700 0.576900 0.669350 -0.456056
O36   O     O_R   0.168300 0.576900 0.330650 -0.456150
O37   O     O_R   0.445950 0.919440 0.676520 -0.457836
O38   O     O_R   0.554050 0.919440 0.323480 -0.458641
O39   O     O_R   0.945950 0.419440 0.676520 -0.458947
O40   O     O_R   0.054050 0.419440 0.323480 -0.457723
C17   C     C_R   0.471125 0.823343 0.647036 0.552924
C18   C     C_R   0.528381 0.823743 0.352584 0.552410
C19   C     C_R   0.971971 0.323499 0.647750 0.553789
C20   C     C_R   0.029204 0.323205 0.353198 0.553495
O41   O     O_R   0.456730 0.717630 0.669840 -0.477266
O42   O     O_R   0.543270 0.717630 0.330160 -0.474477
O43   O     O_R   0.956730 0.217630 0.669840 -0.475786
O44   O     O_R   0.043270 0.217630 0.330160 -0.478590
O45   O     O_R   0.320620 0.625640 0.672920 -0.442564
O46   O     O_R   0.679380 0.625640 0.327080 -0.442187
O47   O     O_R   0.820620 0.125640 0.672920 -0.441989
O48   O     O_R   0.179380 0.125640 0.327080 -0.442224
C21   C     C_R   0.260302 0.638001 0.643142 0.586746
C22   C     C_R   0.739547 0.638345 0.357011 0.584845
C23   C     C_R   0.760455 0.138475 0.642980 0.586684
C24   C     C_R   0.239643 0.138162 0.356873 0.584521
Cr1   Cr    Cr6+3 0.229630 0.835900 0.747350 1.053434
Cr2   Cr    Cr6+3 0.770370 0.835900 0.252650 1.051518
Cr3   Cr    Cr6+3 0.729630 0.335900 0.747350 1.052337
Cr4   Cr    Cr6+3 0.270370 0.335900 0.252650 1.051170
Cr5   Cr    Cr6+3 0.387410 0.989850 0.750850 1.101729
Cr6   Cr    Cr6+3 0.612590 0.989850 0.249150 1.101439
Cr7   Cr    Cr6+3 0.887410 0.489850 0.750850 1.100829
Cr8   Cr    Cr6+3 0.112590 0.489850 0.249150 1.101406
Cr9   Cr    Cr6+3 0.385800 0.677120 0.749340 1.102701
Cr10  Cr    Cr6+3 0.614200 0.677120 0.250660 1.102379
Cr11  Cr    Cr6+3 0.885800 0.177120 0.749340 1.103919
Cr12  Cr    Cr6+3 0.114200 0.177120 0.250660 1.101301
O49   O     O_3   0.334280 0.834290 0.749180 -0.290212
O50   O     O_3   0.665720 0.834290 0.250820 -0.288009
O51   O     O_3   0.834280 0.334290 0.749180 -0.290538
O52   O     O_3   0.165720 0.334290 0.250820 -0.288600
C25   C     C_3   0.474807 0.933860 0.027332 -0.119448
C26   C     C_3   0.534048 0.924663 0.971726 -0.122919
C27   C     C_3   0.976122 0.434608 0.027140 -0.120374
C28   C     C_3   0.035250 0.423501 0.971507 -0.124292
C29   C     C_3   0.430543 0.838200 0.985441 -0.107332
C30   C     C_3   0.569026 0.820130 0.014860 -0.107290
C31   C     C_3   0.930873 0.340024 0.985419 -0.108210
C32   C     C_3   0.069255 0.318131 0.014760 -0.106639
H1    H     H_    0.373143 0.845707 0.971835 0.124361
H2    H     H_    0.626426 0.812682 0.028464 0.124049
H3    H     H_    0.873516 0.349033 0.971867 0.124463
H4    H     H_    0.126607 0.309158 0.028347 0.124486
H5    H     H_    0.453643 0.018739 0.050838 0.118694
H6    H     H_    0.562708 0.001829 0.947347 0.123941
H7    H     H_    0.956090 0.520246 0.050721 0.114734
H8    H     H_    0.064592 0.499814 0.946998 0.122944
C33   C     C_3   0.490348 0.828772 0.931181 0.053013
C34   C     C_3   0.509211 0.829023 0.069130 0.053700
C35   C     C_3   0.990564 0.328687 0.931115 0.052671
C36   C     C_3   0.009522 0.328942 0.069040 0.054175
C37   C     C_3   0.524861 0.724497 0.973339 -0.114669
C38   C     C_3   0.465512 0.733657 0.028284 -0.117868
C39   C     C_3   0.024131 0.223549 0.973383 -0.112885
C40   C     C_3   0.964871 0.234620 0.028357 -0.117361
H9    H     H_    0.546106 0.639348 0.950232 0.120597
H10   H     H_    0.436945 0.656317 0.052553 0.124561
H11   H     H_    0.044653 0.137690 0.950410 0.122619
H12   H     H_    0.935545 0.158170 0.052724 0.125510
C41   C     C_R   0.302862 0.532397 0.963506 -0.143853
C42   C     C_R   0.693341 0.539974 0.036057 -0.147809
C43   C     C_R   0.801577 0.030226 0.963192 -0.143621
C44   C     C_R   0.194672 0.036986 0.036062 -0.147353
H13   H     H_    0.343933 0.485385 0.934909 0.129815
H14   H     H_    0.645199 0.510890 0.061497 0.130952
H15   H     H_    0.840702 0.979703 0.933911 0.131226
H16   H     H_    0.149282 0.999755 0.062868 0.129847
C45   C     C_R   0.298229 0.516607 0.036784 -0.147669
C46   C     C_R   0.698866 0.526546 0.962650 -0.150312
C47   C     C_R   0.796964 0.013659 0.036384 -0.147398
C48   C     C_R   0.199597 0.023013 0.962634 -0.148270
H17   H     H_    0.333800 0.452922 0.063213 0.128023
H18   H     H_    0.656527 0.481712 0.932920 0.119803
H19   H     H_    0.830588 0.946153 0.062048 0.132548
H20   H     H_    0.159766 0.969898 0.934242 0.122209
C49   C     C_R   0.245854 0.578890 0.074652 0.027831
C50   C     C_R   0.759188 0.570440 0.928419 0.030031
C51   C     C_R   0.746640 0.079516 0.075031 0.026260
C52   C     C_R   0.256748 0.075275 0.926855 0.029156
C53   C     C_R   0.200152 0.659642 0.039111 -0.137839
C54   C     C_R   0.814156 0.625125 0.968421 -0.142410
C55   C     C_R   0.703469 0.165217 0.040484 -0.137248
C56   C     C_R   0.308156 0.141832 0.964997 -0.140906
H21   H     H_    0.159409 0.709360 0.066698 0.137883
H22   H     H_    0.862215 0.658038 0.944326 0.140087
H23   H     H_    0.664538 0.217804 0.068862 0.138266
H24   H     H_    0.353212 0.182889 0.939446 0.139493
C57   C     C_R   0.202983 0.671700 0.966649 -0.142100
C58   C     C_R   0.809998 0.633759 0.040865 -0.145175
C59   C     C_R   0.706480 0.178761 0.968038 -0.140492
C60   C     C_R   0.304989 0.151012 0.037468 -0.144241
H25   H     H_    0.165564 0.733730 0.941451 0.135291
H26   H     H_    0.853860 0.676885 0.069254 0.132097
H27   H     H_    0.671184 0.244883 0.943417 0.137222
H28   H     H_    0.346636 0.202300 0.064401 0.133534
C61   C     C_R   0.254047 0.608129 0.927855 0.027076
C62   C     C_R   0.748926 0.594711 0.075422 0.029391
C63   C     C_R   0.754858 0.110612 0.928405 0.026234
C64   C     C_R   0.247840 0.100637 0.073905 0.027856
C65   C     C_R   0.503619 0.719600 0.534990 0.113240
C66   C     C_R   0.490096 0.721198 0.462436 0.115379
C67   C     C_R   0.010977 0.219974 0.538437 0.110779
C68   C     C_R   0.999323 0.218567 0.465657 0.107802
C69   C     C_R   0.498320 0.831200 0.424467 -0.081781
C70   C     C_R   0.499124 0.829487 0.574238 -0.082430
C71   C     C_R   0.002445 0.328614 0.426474 -0.081415
C72   C     C_R   0.002765 0.330076 0.576308 -0.077960
C73   C     C_R   0.499552 0.941987 0.462638 0.157979
C74   C     C_R   0.499603 0.941071 0.537181 0.159235
C75   C     C_R   0.001289 0.440050 0.463727 0.157247
C76   C     C_R   0.001818 0.440736 0.538318 0.158910
C77   C     C_R   0.207120 0.674389 0.528561 -0.120470
C78   C     C_R   0.792078 0.675967 0.471808 -0.118283
C79   C     C_R   0.708819 0.177824 0.528041 -0.117606
C80   C     C_R   0.291610 0.176834 0.471725 -0.120877
H29   H     H_    0.171281 0.739868 0.551062 0.207209
H30   H     H_    0.827907 0.741366 0.449279 0.205488
H31   H     H_    0.673790 0.244634 0.550478 0.203103
H32   H     H_    0.326310 0.244180 0.449377 0.204355
C81   C     C_R   0.206900 0.666451 0.456827 -0.097316
C82   C     C_R   0.792561 0.667835 0.543569 -0.095157
C83   C     C_R   0.708113 0.168865 0.456293 -0.095700
C84   C     C_R   0.292644 0.167422 0.543401 -0.095447
H33   H     H_    0.168170 0.717860 0.427319 0.260187
H34   H     H_    0.831461 0.719224 0.573032 0.258549
H35   H     H_    0.669631 0.220875 0.426720 0.256881
H36   H     H_    0.331354 0.219092 0.572949 0.258879
C85   C     C_R   0.249941 0.583088 0.424079 -0.023987
C86   C     C_R   0.749680 0.584063 0.576251 -0.024035
C87   C     C_R   0.750204 0.083629 0.423839 -0.023525
C88   C     C_R   0.250276 0.082630 0.575863 -0.024044
C89   C     C_R   0.299051 0.514067 0.463834 -0.120978
C90   C     C_R   0.700300 0.515450 0.536512 -0.122865
C91   C     C_R   0.798755 0.013756 0.463742 -0.122481
C92   C     C_R   0.201788 0.012554 0.535901 -0.120694
H37   H     H_    0.332686 0.448839 0.437974 0.178279
H38   H     H_    0.666804 0.449905 0.562281 0.176592
H39   H     H_    0.831400 0.946718 0.438180 0.174983
H40   H     H_    0.168936 0.945840 0.561489 0.176987
C93   C     C_R   0.301239 0.522340 0.537506 0.174338
C94   C     C_R   0.697814 0.524087 0.462877 0.173402
C95   C     C_R   0.801387 0.023035 0.537293 0.174102
C96   C     C_R   0.199341 0.021481 0.462295 0.175730
C97   C     C_R   0.253177 0.602480 0.570013 0.019439
C98   C     C_R   0.746151 0.603744 0.430324 0.019626
C99   C     C_R   0.753872 0.104294 0.569646 0.020599
C100  C     C_R   0.246542 0.103333 0.430053 0.017721
N1    N     N_R   0.351147 0.449069 0.577550 0.066679
O53   O     O_R   0.334455 0.404151 0.638958 -0.342704
O54   O     O_R   0.409425 0.412746 0.548501 -0.261343
N2    N     N_R   0.647186 0.451802 0.422984 0.067610
O55   O     O_R   0.663400 0.405669 0.361722 -0.343008
O56   O     O_R   0.588320 0.418208 0.451932 -0.259620
N3    N     N_R   0.851392 0.949933 0.577296 0.066684
O57   O     O_R   0.834738 0.904508 0.638581 -0.342163
O58   O     O_R   0.910107 0.915132 0.548485 -0.263354
N4    N     N_R   0.149914 0.947334 0.422123 0.066584
O59   O     O_R   0.166846 0.903158 0.360569 -0.343542
O60   O     O_R   0.092138 0.908998 0.451370 -0.266483
N5    N     N_R   0.518887 0.603556 0.567237 -0.105709
O61   O     O_R   0.566621 0.593612 0.618141 -0.000249
O62   O     O_R   0.566633 0.593491 0.618171 -0.000249
N6    N     N_R   0.471424 0.607938 0.428620 -0.120133
O63   O     O_R   0.425895 0.604246 0.375811 -0.000427
O64   O     O_R   0.425908 0.604025 0.375797 -0.000427
N7    N     N_R   0.024884 0.104803 0.572527 -0.113721
O65   O     O_R   0.073237 0.095272 0.623135 -0.000558
O66   O     O_R   0.073173 0.095002 0.623113 -0.000558
N8    N     N_R   0.989493 0.101260 0.433071 -0.096568
O67   O     O_R   0.936741 0.082358 0.387266 -0.000810
O68   O     O_R   0.936939 0.082432 0.387426 -0.000811
N9    N     N_R   0.495776 0.056070 0.426329 0.122764
O69   O     O_R   0.554211 0.112454 0.410866 -0.262817
O70   O     O_R   0.436547 0.118055 0.427462 -0.304934
N10   N     N_R   0.505954 0.053840 0.574768 0.125621
O71   O     O_R   0.449120 0.115870 0.589329 -0.257976
O72   O     O_R   0.567924 0.107496 0.578574 -0.312405
N11   N     N_R   0.995245 0.552830 0.426338 0.124421
O73   O     O_R   0.052148 0.615946 0.413906 -0.263909
O74   O     O_R   0.932872 0.605260 0.420289 -0.313989
N12   N     N_R   0.005515 0.554390 0.575135 0.127221
O75   O     O_R   0.948129 0.617715 0.584034 -0.260067
O76   O     O_R   0.067097 0.605815 0.585894 -0.317468

loop_
_geom_bond_atom_site_label_1
_geom_bond_atom_site_label_2
_geom_bond_distance
_ccdc_geom_bond_type
C18   O42   1.273385 A    
Cr11  O51   1.982555 S    
O4    C12   1.262070 A    
O47   Cr11  1.957376 S    
C73   C74   1.404109 A    
C26   C30   1.547693 S    
O39   C19   1.287340 A    
O20   Cr12  2.078990 S    
C93   N1    1.441278 S    
N7    O65   1.310481 A    
C38   H10   1.110218 S    
O8    Cr4   1.965358 S    
C52   C56   1.401062 A    
C43   H15   1.084060 S    
C56   C60   1.371252 A    
O26   C22   1.263487 A    
O1    C9    1.260462 A    
O27   Cr3   2.083554 S    
N1    O53   1.302576 A    
N4    O60   1.302416 A    
C49   C53   1.399205 A    
C55   C59   1.375140 A    
C65   C66   1.385147 A    
C78   C82   1.354524 A    
C92   H40   1.080326 S    
C53   C57   1.373534 A    
C91   C95   1.388928 A    
C23   C99   1.434090 S    
O25   C21   1.262985 A    
C31   C40   1.545331 S    
C48   C52   1.406791 A    
C67   C68   1.383970 A    
O30   C14   1.261021 A    
C44   C48   1.396492 A    
O45   C21   1.266530 A    
O47   C23   1.265835 A    
C83   C87   1.379425 A    
C80   C84   1.353847 A    
C75   N11   1.429236 S    
C81   C85   1.378760 A    
C89   C93   1.390339 A    
C47   H19   1.084074 S    
O21   C9    1.278304 A    
C44   C64   1.405051 A    
C20   C71   1.480844 S    
O23   Cr11  1.957807 S    
O32   Cr4   1.957596 S    
C42   H14   1.084611 S    
C80   C100  1.401182 A    
C1    O9    1.265409 A    
C74   N10   1.430423 S    
O44   Cr12  2.077957 S    
C42   C46   1.396494 A    
C5    O17   1.266352 A    
C19   C72   1.478834 S    
C84   C88   1.379335 A    
C66   C69   1.415013 A    
C29   C33   1.542364 S    
C58   H26   1.085063 S    
C3    O11   1.263543 A    
C67   N7    1.441251 S    
O11   Cr7   2.082521 S    
C17   C70   1.481448 S    
C4    O12   1.268213 A    
O33   Cr5   2.077003 S    
N2    O55   1.302426 A    
C25   C34   1.532822 S    
C94   C98   1.413729 A    
C96   N4    1.441013 S    
N11   O73   1.304047 A    
O6    Cr2   1.965358 S    
C8    C36   1.464983 S    
C7    O19   1.266199 A    
C14   C87   1.432552 S    
C59   C63   1.407459 A    
Cr4   O52   1.975877 S    
C87   C91   1.402765 A    
O2    Cr2   2.078847 S    
C89   H37   1.080396 S    
C37   H9    1.110333 S    
C29   C38   1.544886 S    
C24   C100  1.434127 S    
C57   C61   1.407494 A    
Cr6   O50   1.982347 S    
C10   C62   1.458458 S    
O42   Cr10  2.077957 S    
Cr5   O49   1.981512 S    
O18   Cr10  2.078990 S    
C70   C74   1.411398 A    
Cr7   O51   1.981512 S    
Cr8   O52   1.982347 S    
C73   N9    1.429499 S    
N11   O74   1.314277 A    
C79   C83   1.354737 A    
C55   H23   1.084617 S    
C95   C99   1.412974 A    
C48   H20   1.083870 S    
C77   C81   1.353845 A    
N6    O63   1.301745 A    
Cr9   O49   1.982555 S    
O7    C3    1.276406 A    
C90   H38   1.080410 S    
O35   Cr7   2.077003 S    
N1    O54   1.301950 A    
C28   C32   1.548183 S    
O31   Cr3   1.958889 S    
C21   C97   1.435008 S    
O24   Cr12  1.957562 S    
C32   C39   1.544015 S    
N12   O76   1.304668 A    
O30   Cr2   1.957596 S    
O4    Cr4   2.078847 S    
C65   N5    1.439476 S    
O22   C10   1.276216 A    
C94   N2    1.441549 S    
O48   Cr12  1.958286 S    
C68   C71   1.418921 A    
C60   H28   1.084453 S    
C72   C76   1.411245 A    
O32   C16   1.260963 A    
C2    C51   1.456855 S    
C2    O10   1.269122 A    
C3    C50   1.458145 S    
C27   H7    1.110222 S    
C75   C76   1.404821 A    
C46   H18   1.084491 S    
O16   Cr8   1.956128 S    
N4    O59   1.302654 A    
C92   C96   1.389782 A    
C15   O35   1.270308 A    
C91   H39   1.080160 S    
N5    O61   1.306900 A    
Cr10  O50   1.981770 S    
C79   H31   1.080172 S    
C22   C98   1.435492 S    
O13   C5    1.272612 A    
O40   C20   1.289570 A    
C44   H16   1.083989 S    
O48   C24   1.265722 A    
O12   Cr8   2.083045 S    
C83   H35   1.071880 S    
Cr12  O52   1.981770 S    
C86   C90   1.402734 A    
O37   Cr5   1.960783 S    
O5    C1    1.275156 A    
N9    O69   1.303612 A    
C45   H17   1.084299 S    
C96   C100  1.412398 A    
O46   Cr10  1.958286 S    
O39   Cr7   1.960783 S    
O3    C11   1.259994 A    
C28   C35   1.532187 S    
O45   Cr9   1.957376 S    
N3    O57   1.302454 A    
C58   C62   1.403242 A    
C12   C64   1.458798 S    
C13   O33   1.269657 A    
C71   C75   1.411248 A    
O8    C4    1.273509 A    
C7    C35   1.466015 S    
O13   Cr5   1.957347 S    
C53   H21   1.084945 S    
Cr2   O50   1.975877 S    
C15   C86   1.433703 S    
O15   Cr7   1.957347 S    
Cr1   O49   1.975894 S    
C82   H34   1.071734 S    
C31   C35   1.542845 S    
C85   C89   1.403017 A    
O23   C11   1.278091 A    
Cr3   O51   1.975894 S    
O14   Cr6   1.956128 S    
N3    O58   1.302051 A    
O21   Cr9   1.957807 S    
N8    O68   1.315637 A    
C4    C49   1.457098 S    
C79   C99   1.401593 A    
C41   C61   1.403166 A    
C43   C63   1.401904 A    
C19   O43   1.270669 A    
O24   C12   1.277628 A    
C77   C97   1.401298 A    
C40   H12   1.110738 S    
C84   H36   1.071777 S    
O3    Cr3   2.080090 S    
C90   C94   1.390119 A    
C8    O20   1.266978 A    
O38   C18   1.285545 A    
C76   N12   1.429014 S    
C45   C49   1.408802 A    
C33   C37   1.532494 S    
N12   O75   1.301827 A    
C30   C34   1.542230 S    
O37   C17   1.288433 A    
O22   Cr10  1.957562 S    
O28   C24   1.262562 A    
C39   C40   1.545200 S    
C25   H5    1.110298 S    
N10   O72   1.310748 A    
O14   C6    1.271876 A    
C35   C39   1.533376 S    
C27   C36   1.532954 S    
O5    Cr1   1.963904 S    
C31   H3    1.112102 S    
C56   H24   1.084486 S    
C26   C33   1.531743 S    
C11   C63   1.458444 S    
O17   Cr9   2.078283 S    
C50   C54   1.404435 A    
O7    Cr3   1.963904 S    
N7    O66   1.309607 A    
C13   C88   1.432374 S    
C17   O41   1.270021 A    
C78   H30   1.079904 S    
C41   H13   1.084401 S    
N5    O62   1.307584 A    
O26   Cr2   2.085169 S    
C14   O34   1.270417 A    
C30   C37   1.543465 S    
O25   Cr1   2.083554 S    
O40   Cr8   1.961157 S    
C93   C97   1.413248 A    
C20   O44   1.268468 A    
N6    O64   1.301873 A    
C88   C92   1.402749 A    
C51   C55   1.397955 A    
O1    Cr1   2.080090 S    
C26   H6    1.110500 S    
O19   Cr11  2.078283 S    
C9    C61   1.458902 S    
C16   C85   1.433160 S    
N9    O70   1.310344 A    
N2    O56   1.301722 A    
O29   C13   1.260838 A    
C37   C38   1.544570 S    
O9    Cr5   2.082521 S    
C39   H11   1.110962 S    
C77   H29   1.080422 S    
O2    C10   1.264132 A    
O46   C22   1.265430 A    
O31   C15   1.261203 A    
C54   C58   1.371674 A    
C81   H33   1.070893 S    
C59   H27   1.084086 S    
C32   H4    1.112106 S    
O34   Cr6   2.075562 S    
C54   H22   1.085140 S    
N10   O71   1.305512 A    
C29   H1    1.111728 S    
C68   N8    1.437564 S    
C42   C62   1.407006 A    
C95   N3    1.441022 S    
O10   Cr6   2.083045 S    
C25   C29   1.548133 S    
C47   C51   1.409056 A    
C5    C33   1.466033 S    
C78   C98   1.401004 A    
C6    C34   1.465286 S    
O6    C2    1.272531 A    
C28   H8    1.110896 S    
O29   Cr1   1.958889 S    
C82   C86   1.379467 A    
C1    C52   1.457447 S    
C36   C40   1.530837 S    
O15   C7    1.272763 A    
C16   O36   1.270699 A    
C57   H25   1.084461 S    
C46   C50   1.405896 A    
C27   C31   1.548520 S    
C34   C38   1.530546 S    
N8    O67   1.320455 A    
C6    O18   1.267214 A    
O28   Cr4   2.085169 S    
O43   Cr11  2.078142 S    
C66   N6    1.438038 S    
C30   H2    1.111674 S    
C67   C72   1.414251 A    
C32   C36   1.542682 S    
O41   Cr9   2.078142 S    
C60   C64   1.404635 A    
C25   C26   1.551646 S    
O36   Cr8   2.075562 S    
C18   C69   1.481277 S    
C41   C45   1.395794 A    
C65   C70   1.418846 A    
O16   C8    1.271798 A    
C69   C73   1.413314 A    
C27   C28   1.551929 S    
C80   H32   1.079673 S    
O38   Cr6   1.961157 S    
O27   C23   1.262804 A    
C43   C47   1.395252 A    
