data_str_m2_o10_o17_f0_pcu.sym.131
_audit_creation_date              2012-12-10T16:44:39-0500
_audit_creation_method            fapswitch 2.2
_symmetry_space_group_name_H-M    P1
_symmetry_Int_Tables_number       1
_space_group_crystal_system       triclinic
_cell_length_a                    15.002921
_cell_length_b                    8.755598
_cell_length_c                    7.441227
_cell_angle_alpha                 103.035426
_cell_angle_beta                  94.101427
_cell_angle_gamma                 91.820281
_cell_volume                      948.694077083

loop_
_atom_site_label
_atom_site_type_symbol
_atom_type_description
_atom_site_fract_x
_atom_site_fract_y
_atom_site_fract_z
_atom_type_partial_charge
C1    C     C_R   0.496719 0.200261 0.453884 0.840499
C2    C     C_R   0.503281 0.799739 0.546116 0.840499
C3    C     C_R   0.040060 0.252703 0.604934 -0.171828
C4    C     C_R   0.959940 0.747296 0.395065 -0.171828
C5    C     C_2   0.483119 0.034221 0.432554 -0.268711
C6    C     C_2   0.516881 0.965778 0.567446 -0.268711
C7    C     C_R   0.329159 0.497421 0.502520 0.805375
C8    C     C_R   0.670841 0.502578 0.497480 0.805375
C9    C     C_R   0.814353 0.632799 0.448501 -0.064649
C10   C     C_R   0.185647 0.367200 0.551499 -0.064649
C11   C     C_R   0.767075 0.505476 0.491387 -0.133087
C12   C     C_R   0.232925 0.494523 0.508613 -0.133087
C13   C     C_R   0.811453 0.381748 0.540075 -0.211747
C14   C     C_R   0.188547 0.618252 0.459925 -0.211747
C15   C     C_R   0.903862 0.379805 0.546012 0.098914
C16   C     C_R   0.096138 0.620194 0.453988 0.098913
C17   C     C_R   0.953089 0.502462 0.498528 0.042254
C18   C     C_R   0.046911 0.497538 0.501472 0.042255
C19   C     C_R   0.908686 0.629588 0.447997 0.097342
C20   C     C_R   0.091314 0.370412 0.552003 0.097342
C21   C     C_R   0.947476 0.256772 0.599984 -0.203927
C22   C     C_R   0.052524 0.743227 0.400015 -0.203927
Cu1   Cu    Cu3+1 0.510010 0.517380 0.684380 1.013098
Cu2   Cu    Cu3+1 0.489990 0.482620 0.315620 1.013099
H1    H     H_    0.773509 0.286396 0.573854 0.205581
H2    H     H_    0.226491 0.713604 0.426147 0.205581
H3    H     H_    0.909877 0.163795 0.640131 0.197258
H4    H     H_    0.090123 0.836205 0.359869 0.197257
H5    H     H_    0.070367 0.157560 0.653323 0.197203
H6    H     H_    0.929633 0.842439 0.346676 0.197203
H7    H     H_    0.430766 0.378286 0.948066 0.228236
H8    H     H_    0.569234 0.621714 0.051934 0.228236
N1    N     N_2   0.474890 0.456420 0.038520 -0.200451
N2    N     N_2   0.525110 0.543580 0.961480 -0.200452
O1    O     O_R   0.506510 0.286130 0.619770 -0.590690
O2    O     O_R   0.493490 0.713870 0.380230 -0.590689
O3    O     O_R   0.489600 0.256770 0.308360 -0.537080
O4    O     O_R   0.510400 0.743230 0.691640 -0.537081
O5    O     O_R   0.378710 0.514640 0.655720 -0.601070
O6    O     O_R   0.621290 0.485360 0.344280 -0.601070
O7    O     O_R   0.361800 0.485290 0.344300 -0.566187
O8    O     O_R   0.638200 0.514710 0.655700 -0.566188
C23   C     C_2   0.764119 0.768830 0.413764 0.333373
H9    H     H_    0.700009 0.749669 0.333040 0.081103
O9    O     O_2   0.791383 0.903497 0.483462 -0.548693
C24   C     C_2   0.235881 0.231169 0.586235 0.333373
H10   H     H_    0.299991 0.250330 0.666959 0.081103
O10   O     O_2   0.208617 0.096502 0.516536 -0.548694
C25   C     C_2   0.418988 0.952995 0.274430 0.906855
O11   O     O_2   0.430966 0.963878 0.116901 -0.529390
O12   O     O_R   0.344099 0.867491 0.307010 -0.750799
H11   H     H_    0.305671 0.818648 0.189059 0.331220
C26   C     C_2   0.581011 0.047006 0.725571 0.906852
O13   O     O_2   0.569031 0.036125 0.883100 -0.529388
O14   O     O_R   0.655901 0.132509 0.692990 -0.750798
H12   H     H_    0.694327 0.181356 0.810943 0.331219

loop_
_geom_bond_atom_site_label_1
_geom_bond_atom_site_label_2
_ccdc_geom_bond_type
C10   C24   S    
O14   H12   S    
H7    N1    S    
C15   C17   A    
Cu1   O4    S    
C4    C22   A    
C2    O4    A    
Cu1   O1    S    
Cu2   N1    S    
C1    C5    S    
C1    O3    A    
Cu1   Cu2   S    
Cu1   N2    S    
C5    C25   S    
C26   O14   S    
Cu2   O3    S    
C21   H3    S    
C3    C20   A    
C22   H4    S    
C26   O13   D    
C14   H2    S    
Cu2   O7    S    
C23   O9    D    
C13   H1    S    
Cu2   O2    S    
Cu1   O8    S    
C10   C12   A    
C8    C11   S    
Cu1   O5    S    
C9    C11   A    
C17   C19   A    
C12   C14   A    
C17   C18   A    
C18   C20   A    
C13   C15   A    
C23   H9    S    
C5    C6    D    
C14   C16   A    
C7    C12   S    
C9    C23   S    
C11   C13   A    
C3    C21   A    
C6    C26   S    
C8    O8    A    
O12   H11   S    
C24   O10   D    
C15   C21   A    
N1    N2    D    
C1    O1    A    
C16   C18   A    
C25   O11   D    
C2    O2    A    
C3    H5    S    
C7    O5    A    
C24   H10   S    
C16   C22   A    
C8    O6    A    
Cu2   O6    S    
C4    C19   A    
C9    C19   A    
C4    H6    S    
C2    C6    S    
C7    O7    A    
C10   C20   A    
C25   O12   S    
H8    N2    S    
