data_str_m2_o1_o13_f0_pcu.sym.213
_audit_creation_date              2012-12-10T17:56:20-0500
_audit_creation_method            fapswitch 2.2
_symmetry_space_group_name_H-M    P1
_symmetry_Int_Tables_number       1
_space_group_crystal_system       triclinic
_cell_length_a                    12.906437
_cell_length_b                    10.776768
_cell_length_c                    9.570869
_cell_angle_alpha                 91.228882
_cell_angle_beta                  97.373876
_cell_angle_gamma                 90.733346
_cell_volume                      1319.73368206

loop_
_atom_site_label
_atom_site_type_symbol
_atom_type_description
_atom_site_fract_x
_atom_site_fract_y
_atom_site_fract_z
_atom_type_partial_charge
C1    C     C_R   0.501036 0.262793 0.498957 0.788352
C2    C     C_R   0.498964 0.737207 0.501043 0.788350
C3    C     C_R   0.498700 0.871356 0.503092 -0.161906
C4    C     C_R   0.501300 0.128643 0.496908 -0.161906
C5    C     C_R   0.444222 0.411295 0.059855 0.240709
C6    C     C_R   0.555778 0.588705 0.940145 0.240704
C7    C     C_R   0.444651 0.412864 0.911898 -0.038937
C8    C     C_R   0.555348 0.587136 0.088101 -0.038935
C9    C     C_R   0.300218 0.511189 0.472404 0.785540
C10   C     C_R   0.699782 0.488811 0.527596 0.785541
C11   C     C_R   0.814302 0.468440 0.545246 -0.214016
C12   C     C_R   0.185698 0.531561 0.454754 -0.214014
C13   C     C_R   0.014316 0.540315 0.314208 0.235184
C14   C     C_R   0.985684 0.459688 0.685792 0.235183
C15   C     C_R   0.124654 0.544639 0.321067 0.134985
C16   C     C_R   0.875346 0.455364 0.678933 0.134984
C17   C     C_R   0.134975 0.542451 0.576289 -0.095646
C18   C     C_R   0.865025 0.457550 0.423711 -0.095651
C19   C     C_R   0.030448 0.501329 0.566864 0.045942
C20   C     C_R   0.969552 0.498672 0.433136 0.045938
C21   C     C_R   0.595204 0.066488 0.541441 0.145469
C22   C     C_R   0.404796 0.933512 0.458560 0.145467
C23   C     C_R   0.593440 0.936090 0.546474 -0.050333
C24   C     C_R   0.406560 0.063910 0.453525 -0.050337
Cu1   Cu    Cu3+1 0.500000 0.500020 0.640660 0.928386
Cu2   Cu    Cu3+1 0.500000 0.499980 0.359340 0.928387
H1    H     H_    0.401254 0.343149 0.844330 0.141338
H2    H     H_    0.598745 0.656851 0.155669 0.141338
N1    N     N_R   0.500030 0.500030 0.852080 -0.176161
N2    N     N_R   0.499970 0.499970 0.147920 -0.176160
O1    O     O_R   0.499990 0.319660 0.618740 -0.574809
O2    O     O_R   0.500010 0.680340 0.381260 -0.574810
O3    O     O_R   0.499990 0.319630 0.381170 -0.585580
O4    O     O_R   0.500010 0.680370 0.618830 -0.585580
O5    O     O_R   0.349000 0.499990 0.599490 -0.599927
O6    O     O_R   0.651000 0.500010 0.400510 -0.599924
O7    O     O_R   0.348990 0.499960 0.361920 -0.575844
O8    O     O_R   0.651010 0.500040 0.638080 -0.575847
C25   C     C_2   0.818220 0.375632 0.302829 0.383961
H3    H     H_    0.739456 0.338505 0.298252 0.105273
O9    O     O_2   0.869984 0.339585 0.212194 -0.542741
C26   C     C_2   0.181780 0.624369 0.697172 0.383949
H4    H     H_    0.260546 0.661488 0.701756 0.105279
O10   O     O_2   0.130012 0.660424 0.787798 -0.542736
C27   C     C_3   0.823990 0.429720 0.809729 -0.754095
H5    H     H_    0.788007 0.515487 0.845579 0.240920
H6    H     H_    0.764099 0.354744 0.787136 0.238347
H7    H     H_    0.878185 0.398214 0.900278 0.240841
C28   C     C_3   0.176010 0.570283 0.190272 -0.754103
H8    H     H_    0.211993 0.484516 0.154420 0.240920
H9    H     H_    0.121815 0.601789 0.099723 0.240839
H10   H     H_    0.235901 0.645258 0.212865 0.238347
C29   C     C_3   0.945911 0.590929 0.187941 -0.774710
H11   H     H_    0.950047 0.530900 0.093578 0.248492
H12   H     H_    0.862902 0.599009 0.205201 0.222526
H13   H     H_    0.972414 0.686483 0.167409 0.229875
C30   C     C_3   0.054089 0.409075 0.812061 -0.774718
H14   H     H_    0.137098 0.400995 0.794802 0.222523
H15   H     H_    0.049953 0.469107 0.906422 0.248492
H16   H     H_    0.027587 0.313522 0.832595 0.229876
C31   C     C_3   0.697911 0.137681 0.576642 -0.731943
H17   H     H_    0.693316 0.236002 0.546879 0.175660
H18   H     H_    0.723929 0.135069 0.691608 0.262158
H19   H     H_    0.758379 0.096503 0.517881 0.241346
C32   C     C_3   0.302088 0.862319 0.423361 -0.731928
H20   H     H_    0.276068 0.864930 0.308394 0.262156
H21   H     H_    0.306685 0.763998 0.453126 0.175659
H22   H     H_    0.241620 0.903499 0.482125 0.241348
C33   C     C_2   0.690215 0.864884 0.592178 0.363858
H23   H     H_    0.701220 0.774076 0.545664 0.058766
O11   O     O_2   0.756601 0.904152 0.685539 -0.529954
C34   C     C_2   0.309784 0.135116 0.407819 0.363856
H24   H     H_    0.298782 0.225928 0.454326 0.058768
O12   O     O_2   0.243394 0.095844 0.314464 -0.529954
C35   C     C_3   0.385570 0.304959 0.114370 -0.746933
H25   H     H_    0.326459 0.264238 0.030740 0.192352
H26   H     H_    0.440684 0.230046 0.148359 0.239489
H27   H     H_    0.341848 0.333664 0.200497 0.263772
C36   C     C_3   0.614430 0.695041 0.885630 -0.746925
H28   H     H_    0.559316 0.769957 0.851647 0.239487
H29   H     H_    0.673545 0.735756 0.969258 0.192353
H30   H     H_    0.658146 0.666337 0.799496 0.263777

loop_
_geom_bond_atom_site_label_1
_geom_bond_atom_site_label_2
_ccdc_geom_bond_type
Cu1   O1    S    
C11   C18   A    
Cu2   O2    S    
C7    N1    A    
C23   C33   S    
C3    C23   A    
C19   C20   A    
C18   C25   S    
C30   H14   S    
C1    O3    A    
C25   O9    D    
C29   H11   S    
C4    C24   A    
C30   H15   S    
C1    O1    A    
C7    H1    S    
C2    O2    A    
C33   O11   D    
C17   C26   S    
C28   H9    S    
C12   C17   A    
C18   C20   A    
Cu1   O4    S    
C2    O4    A    
C29   H12   S    
C31   H17   S    
C26   O10   D    
C35   H27   S    
C13   C29   S    
C27   H6    S    
Cu1   N1    S    
C34   O12   D    
C25   H3    S    
C36   H29   S    
C30   H16   S    
C6    C8    A    
C27   H7    S    
C32   H21   S    
Cu1   Cu2   S    
C27   H5    S    
C5    C35   S    
C31   H19   S    
C35   H25   S    
C22   C32   S    
Cu1   O8    S    
C11   C16   A    
Cu2   O3    S    
C12   C15   A    
C32   H22   S    
C9    O7    A    
C35   H26   S    
Cu1   O5    S    
Cu2   O6    S    
Cu2   N2    S    
C13   C15   A    
C8    H2    S    
C28   H8    S    
C14   C16   A    
C26   H4    S    
C24   C34   S    
C5    C7    A    
C5    N2    A    
C29   H13   S    
C14   C30   S    
C13   C20   A    
C21   C31   S    
C14   C19   A    
C31   H18   S    
C28   H10   S    
C34   H24   S    
C16   C27   S    
C36   H30   S    
Cu2   O7    S    
C10   O8    A    
C1    C4    S    
C8    N2    A    
C21   C23   A    
C2    C3    S    
C4    C21   A    
C6    C36   S    
C17   C19   A    
C22   C24   A    
C15   C28   S    
C33   H23   S    
C9    C12   S    
C10   C11   S    
C36   H28   S    
C6    N1    A    
C32   H20   S    
C9    O5    A    
C3    C22   A    
C10   O6    A    
