data_str_m9_o4_o16_f0_sra.sym.21
_audit_creation_date              2012-12-11T17:00:17-0500
_audit_creation_method            fapswitch 2.2
_symmetry_space_group_name_H-M    P1
_symmetry_Int_Tables_number       1
_space_group_crystal_system       triclinic
_cell_length_a                    6.96127
_cell_length_b                    13.576102
_cell_length_c                    20.240747
_cell_angle_alpha                 103.024067
_cell_angle_beta                  89.514766
_cell_angle_gamma                 90.951762
_cell_volume                      1863.40326464

loop_
_atom_site_label
_atom_site_type_symbol
_atom_type_description
_atom_site_fract_x
_atom_site_fract_y
_atom_site_fract_z
_atom_type_partial_charge
O1    O     O_R   0.506770 0.599700 0.449550 -0.538145
O2    O     O_R   0.179980 0.595740 0.587960 -0.544938
O3    O     O_R   0.004580 0.400300 0.550450 -0.539944
C1    C     C_R   0.347991 0.616821 0.615380 0.693611
O4    O     O_R   0.177380 0.611700 0.452380 -0.540517
O5    O     O_R   0.001970 0.416370 0.413900 -0.542075
C2    C     C_R   0.347805 0.638447 0.435850 0.696277
O6    O     O_R   0.509390 0.583630 0.586100 -0.537493
O7    O     O_3   0.337530 0.435890 0.487530 -0.371139
V1    V     V_3+5 0.064660 0.511890 0.502310 1.409177
O8    O     O_R   0.671950 0.404260 0.412040 -0.541359
C3    C     C_R   0.840640 0.383035 0.384682 0.693117
O9    O     O_R   0.674540 0.388300 0.547620 -0.540570
C4    C     C_R   0.841434 0.361228 0.564234 0.693943
V2    V     V_3+5 0.564030 0.488110 0.497690 1.412795
O10   O     O_3   0.841030 0.564110 0.512470 -0.369331
C5    C     C_R   0.672385 0.133347 0.622373 -0.151396
H1    H     H_    0.680219 0.176285 0.527074 0.105455
H2    H     H_    0.509845 0.057193 0.717214 0.156848
H3    H     H_    0.579854 0.068490 0.602799 0.111431
C6    C     C_R   0.837707 0.282801 0.603663 -0.044027
C7    C     C_R   0.998455 0.304287 0.924310 -0.152332
C8    C     C_R   0.067789 0.366873 0.883636 -0.097644
C9    C     C_R   0.021170 0.347106 0.815180 -0.148558
C10   C     C_R   0.889785 0.268667 0.786953 0.070176
C11   C     C_R   0.803293 0.211264 0.830845 0.021045
C12   C     C_R   0.840759 0.245434 0.716670 0.074022
C13   C     C_R   0.717833 0.160960 0.691463 0.123264
C14   C     C_R   0.622487 0.112219 0.736286 -0.259834
C15   C     C_R   0.647073 0.145961 0.806143 -0.086225
C16   C     C_R   0.900215 0.305846 0.671164 -0.215960
C17   C     C_R   0.730537 0.194316 0.579001 -0.163148
C18   C     C_R   0.874925 0.222456 0.898058 -0.050365
H4    H     H_    0.978207 0.376191 0.688137 0.097715
H5    H     H_    0.051407 0.315949 0.975743 0.097300
H6    H     H_    0.091913 0.393888 0.785587 0.104644
H7    H     H_    0.167784 0.427685 0.904435 0.119514
C19   C     C_R   0.708184 0.181783 0.227528 0.103308
C20   C     C_R   0.865800 0.183651 0.184303 -0.105324
C21   C     C_R   0.022234 0.247435 0.210180 -0.181342
H8    H     H_    0.145675 0.252334 0.178362 0.133657
C22   C     C_R   0.015443 0.310774 0.275646 -0.177390
H9    H     H_    0.134022 0.362538 0.292367 0.127486
C23   C     C_R   0.851626 0.312531 0.317178 -0.107414
C24   C     C_R   0.701373 0.244749 0.292389 0.098471
C25   C     C_3   0.494853 0.267136 0.285665 -0.409159
C26   C     C_3   0.502247 0.199464 0.215079 -0.411787
H10   H     H_    0.471812 0.347998 0.285693 0.166825
H11   H     H_    0.402438 0.236036 0.321396 0.175542
H12   H     H_    0.484513 0.241051 0.174108 0.170491
H13   H     H_    0.411345 0.130296 0.210017 0.170744
C27   C     C_R   0.500907 0.756725 0.703554 0.086158
C28   C     C_R   0.351132 0.686770 0.683186 -0.109407
C29   C     C_R   0.194221 0.689679 0.728208 -0.168423
H14   H     H_    0.074166 0.637799 0.714410 0.123996
C30   C     C_R   0.196515 0.754469 0.793319 -0.188065
H15   H     H_    0.078731 0.750662 0.827839 0.123865
C31   C     C_R   0.356161 0.817882 0.815375 -0.093114
C32   C     C_R   0.503501 0.820420 0.768038 0.138772
C33   C     C_3   0.714708 0.809728 0.774562 -0.409514
C34   C     C_3   0.711700 0.740169 0.704267 -0.405573
H16   H     H_    0.750274 0.770343 0.815311 0.166790
H17   H     H_    0.794052 0.882076 0.776503 0.183972
H18   H     H_    0.745256 0.660390 0.704143 0.168351
H19   H     H_    0.789511 0.772256 0.665566 0.179019
C35   C     C_R   0.467386 0.882254 0.386481 -0.159073
H20   H     H_    0.462541 0.832746 0.479880 0.103701
H21   H     H_    0.530599 0.001741 0.301360 0.126633
H22   H     H_    0.520747 0.957002 0.410764 0.109654
C36   C     C_R   0.364206 0.715411 0.395991 -0.033317
C37   C     C_R   0.283017 0.687371 0.070848 -0.165463
C38   C     C_R   0.249890 0.613316 0.107206 -0.114730
C39   C     C_R   0.278108 0.634645 0.177093 -0.159047
C40   C     C_R   0.342733 0.731564 0.212600 0.076897
C41   C     C_R   0.382289 0.806159 0.174537 0.069644
C42   C     C_R   0.368638 0.757144 0.284477 0.072820
C43   C     C_R   0.437141 0.855682 0.316186 0.143184
C44   C     C_R   0.477436 0.926710 0.277570 -0.208415
C45   C     C_R   0.450686 0.902409 0.207945 -0.202187
C46   C     C_R   0.330479 0.688270 0.326190 -0.216976
C47   C     C_R   0.433240 0.812082 0.425988 -0.170709
C48   C     C_R   0.349428 0.783467 0.103701 -0.074676
H23   H     H_    0.279670 0.612097 0.306067 0.091482
H24   H     H_    0.255481 0.669933 0.016804 0.098641
H25   H     H_    0.247594 0.573492 0.201615 0.104592
H26   H     H_    0.199333 0.538954 0.081135 0.116069
H27   H     H_    0.485561 0.959766 0.180280 0.123713
O11   O     O_R   0.203450 0.916320 0.913910 -0.529547
O12   O     O_R   0.535520 0.888300 0.047620 -0.543468
O13   O     O_R   0.710860 0.083650 0.086100 -0.539718
C49   C     C_R   0.365183 0.861428 0.064120 0.677133
O14   O     O_R   0.532860 0.904250 0.912040 -0.547914
O15   O     O_R   0.708190 0.099710 0.949550 -0.529927
C50   C     C_R   0.364408 0.882227 0.884974 0.752023
O16   O     O_R   0.206120 0.900260 0.050460 -0.538857
O17   O     O_3   0.375280 0.064080 0.012470 -0.374639
V3    V     V_3+5 0.648180 0.988110 0.997690 1.428113
O18   O     O_R   0.038220 0.111740 0.952370 -0.542133
C51   C     C_R   0.871064 0.138597 0.934732 0.700643
O19   O     O_R   0.040880 0.095790 0.087940 -0.547224
C52   C     C_R   0.872300 0.117731 0.115069 0.690568
V4    V     V_3+5 0.148800 0.011950 0.002300 1.429180
O20   O     O_3   0.871820 0.935920 0.987530 -0.373522
C53   C     C_2   0.478784 0.139338 0.850236 0.794869
O21   O     O_2   0.359206 0.071374 0.834178 -0.576823
O22   O     O_R   0.450600 0.216278 0.908214 -0.663985
H28   H     H_    0.335442 0.203537 0.935867 0.306524

loop_
_geom_bond_atom_site_label_1
_geom_bond_atom_site_label_2
_ccdc_geom_bond_type
O17   V4    S    
C1    C28   S    
C39   C40   A    
C1    O6    A    
C2    C36   S    
C53   O22   S    
C28   C29   A    
C27   C28   A    
C7    H5    S    
C6    C16   A    
C25   H11   S    
C9    H6    S    
C40   C42   A    
C33   H17   S    
C4    C6    S    
C13   C14   A    
C37   H24   S    
C27   C34   S    
O5    C3    A    
C19   C20   A    
C35   H22   S    
O22   H28   S    
V2    O10   S    
C5    H3    S    
C30   H15   S    
C33   H16   S    
C35   C43   A    
C36   C47   A    
C19   C24   A    
C29   H14   S    
O8    V2    S    
C8    C9    A    
O1    V2    S    
O12   C49   A    
O7    V1    S    
O15   C51   A    
O13   V3    S    
O16   V4    S    
C43   C44   A    
C37   C48   A    
C21   C22   A    
C32   C33   S    
O9    C4    A    
C22   C23   A    
C46   H23   S    
C45   H27   S    
C53   O21   D    
O14   V3    S    
C20   C52   S    
C26   H12   S    
C29   C30   A    
H21   C44   S    
C6    C17   A    
O11   C50   A    
C40   C41   A    
C12   C16   A    
C9    C10   A    
C20   C21   A    
O4    C2    A    
C44   C45   A    
C26   H13   S    
C10   C11   A    
O18   V4    S    
C36   C46   A    
C48   C49   S    
O12   V3    S    
C33   C34   S    
C18   C51   S    
C34   H18   S    
O2    C1    A    
O13   C52   A    
C14   C15   A    
C27   C32   A    
C8    H7    S    
C11   C18   A    
O11   V4    S    
O17   V3    S    
O14   C50   A    
C16   H4    S    
C42   C43   A    
C39   H25   S    
C19   C26   S    
V3    O20   S    
O3    C4    A    
C21   H8    S    
C11   C15   A    
O6    V2    S    
O9    V2    S    
H1    C17   S    
C22   H9    S    
O2    V1    S    
O15   V3    S    
C23   C24   A    
O19   V4    S    
C31   C50   S    
C7    C18   A    
C25   C26   S    
O1    C2    A    
C5    C13   A    
C42   C46   A    
C38   C39   A    
O5    V1    S    
C38   H26   S    
O8    C3    A    
C41   C48   A    
H20   C47   S    
C10   C12   A    
C31   C32   A    
O4    V1    S    
C3    C23   S    
O3    V1    S    
V1    O10   S    
C35   C47   A    
O19   C52   A    
C30   C31   A    
C34   H19   S    
O7    V2    S    
V4    O20   S    
C49   O16   A    
C25   H10   S    
C24   C25   S    
C37   C38   A    
O18   C51   A    
C15   C53   S    
C12   C13   A    
C5    C17   A    
C7    C8    A    
C41   C45   A    
H2    C14   S    
