data_str_m4_o22_o24_f0_acs.sym.91
_audit_creation_date              2012-12-11T15:08:59-0500
_audit_creation_method            fapswitch 2.2
_symmetry_space_group_name_H-M    P1
_symmetry_Int_Tables_number       1
_space_group_crystal_system       triclinic
_cell_length_a                    19.569473
_cell_length_b                    11.32743
_cell_length_c                    18.708957
_cell_angle_alpha                 89.949434
_cell_angle_beta                  89.869367
_cell_angle_gamma                 90.086055
_cell_volume                      4147.2317546

loop_
_atom_site_label
_atom_site_type_symbol
_atom_type_description
_atom_site_fract_x
_atom_site_fract_y
_atom_site_fract_z
_atom_type_partial_charge
C1    C     C_R   0.273455 0.039910 0.855252 0.541279
C2    C     C_R   0.726179 0.040112 0.144380 0.541483
C3    C     C_R   0.773455 0.539911 0.855252 0.541279
C4    C     C_R   0.226180 0.540113 0.144381 0.541481
C5    C     C_3   0.517266 0.722321 0.966022 0.258989
C6    C     C_3   0.480117 0.733383 0.036746 0.263265
C7    C     C_3   0.017267 0.222323 0.966021 0.258989
C8    C     C_3   0.980118 0.233381 0.036745 0.263267
C9    C     C_3   0.302671 0.503933 0.038193 -0.238441
C10   C     C_3   0.689633 0.518266 0.958100 -0.241328
C11   C     C_3   0.802672 0.003936 0.038194 -0.238441
C12   C     C_3   0.189632 0.018268 0.958100 -0.241332
C13   C     C_3   0.299546 0.497392 0.956128 -0.128891
C14   C     C_3   0.690240 0.512855 0.039906 -0.115721
C15   C     C_3   0.799547 0.997396 0.956129 -0.128886
C16   C     C_3   0.190239 0.012856 0.039906 -0.115722
C17   C     C_3   0.173103 0.533395 0.025347 -0.226561
C18   C     C_3   0.820859 0.512210 0.974963 -0.225137
C19   C     C_3   0.673103 0.033392 0.025346 -0.226558
C20   C     C_3   0.320857 0.012204 0.974963 -0.225140
C21   C     C_3   0.249985 0.698479 0.053698 -0.260115
C22   C     C_3   0.760159 0.696256 0.945635 -0.264426
C23   C     C_3   0.749982 0.198478 0.053698 -0.260119
C24   C     C_3   0.260161 0.196255 0.945635 -0.264424
C25   C     C_3   0.238813 0.567929 0.067750 0.044575
C26   C     C_3   0.760027 0.565285 0.931510 0.045476
C27   C     C_3   0.738813 0.067929 0.067750 0.044576
C28   C     C_3   0.260027 0.065284 0.931511 0.045476
C29   C     C_3   0.253001 0.600506 0.928862 0.054408
C30   C     C_3   0.746952 0.597781 0.070603 0.050859
C31   C     C_3   0.753001 0.100505 0.928862 0.054405
C32   C     C_3   0.246952 0.097781 0.070603 0.050859
C33   C     C_3   0.178957 0.563228 0.945287 -0.259075
C34   C     C_3   0.814529 0.532508 0.056984 -0.266748
C35   C     C_3   0.678958 0.063221 0.945286 -0.259078
C36   C     C_3   0.314528 0.032506 0.056984 -0.266746
C37   C     C_3   0.268104 0.712895 0.973405 -0.233561
C38   C     C_3   0.753529 0.713846 0.026747 -0.226078
C39   C     C_3   0.768097 0.212896 0.973405 -0.233565
C40   C     C_3   0.253530 0.213845 0.026747 -0.226079
C41   C     C_3   0.497546 0.698786 0.459876 -0.236143
C42   C     C_3   0.502244 0.698855 0.540211 -0.235652
C43   C     C_3   0.997548 0.198786 0.459877 -0.236144
C44   C     C_3   0.002245 0.198856 0.540212 -0.235654
C45   C     C_R   0.445683 0.817608 0.862527 0.547512
C46   C     C_R   0.558159 0.817078 0.137804 0.553967
C47   C     C_R   0.945683 0.317608 0.862527 0.547514
C48   C     C_R   0.058159 0.317078 0.137804 0.553967
C49   C     C_3   0.566927 0.888029 0.472323 -0.226556
C50   C     C_3   0.433110 0.888230 0.527564 -0.226383
C51   C     C_3   0.066929 0.388029 0.472325 -0.226559
C52   C     C_3   0.933111 0.388231 0.527564 -0.226382
C53   C     C_3   0.445420 0.897541 0.446078 -0.257162
C54   C     C_3   0.554581 0.897686 0.553771 -0.257569
C55   C     C_3   0.945421 0.397541 0.446078 -0.257159
C56   C     C_3   0.054581 0.397689 0.553772 -0.257568
C57   C     C_3   0.509109 0.826822 0.430401 0.062191
C58   C     C_3   0.490814 0.826963 0.569546 0.062649
C59   C     C_3   0.009111 0.326822 0.430402 0.062194
C60   C     C_3   0.990814 0.326964 0.569546 0.062648
C61   C     C_3   0.182308 0.657501 0.458709 -0.238650
C62   C     C_3   0.817771 0.657766 0.541235 -0.238665
C63   C     C_3   0.682308 0.157497 0.458710 -0.238651
C64   C     C_3   0.317772 0.157765 0.541235 -0.238665
C65   C     C_3   0.181243 0.652207 0.539207 -0.235784
C66   C     C_3   0.818807 0.652430 0.460747 -0.235533
C67   C     C_3   0.681242 0.152203 0.539208 -0.235785
C68   C     C_3   0.318808 0.152427 0.460747 -0.235534
C69   C     C_3   0.241822 0.459281 0.473462 -0.231093
C70   C     C_3   0.758105 0.459422 0.526832 -0.230456
C71   C     C_3   0.741822 0.959276 0.473465 -0.231104
C72   C     C_3   0.258106 0.959422 0.526831 -0.230467
C73   C     C_3   0.308020 0.633698 0.442463 -0.254634
C74   C     C_3   0.692019 0.633854 0.557435 -0.254927
C75   C     C_3   0.808019 0.133691 0.442465 -0.254642
C76   C     C_3   0.192020 0.133854 0.557437 -0.254929
C77   C     C_3   0.239915 0.574728 0.429510 0.064242
C78   C     C_3   0.760057 0.574990 0.570537 0.064535
C79   C     C_3   0.739915 0.074722 0.429512 0.064244
C80   C     C_3   0.260058 0.074989 0.570537 0.064539
C81   C     C_3   0.252020 0.607132 0.567512 0.065471
C82   C     C_3   0.748013 0.606938 0.432475 0.065413
C83   C     C_3   0.752020 0.107129 0.567513 0.065476
C84   C     C_3   0.248012 0.106940 0.432476 0.065414
C85   C     C_3   0.256327 0.476036 0.553721 -0.256887
C86   C     C_3   0.743738 0.475873 0.446507 -0.257477
C87   C     C_3   0.756329 0.976032 0.553723 -0.256893
C88   C     C_3   0.243734 0.975875 0.446508 -0.257478
C89   C     C_R   0.260555 0.635546 0.852344 0.526727
C90   C     C_R   0.739146 0.635975 0.147106 0.528245
C91   C     C_R   0.760555 0.135546 0.852344 0.526726
C92   C     C_R   0.239146 0.135975 0.147106 0.528246
C93   C     C_3   0.310337 0.662872 0.522952 -0.232533
C94   C     C_3   0.689641 0.662459 0.476840 -0.231852
C95   C     C_3   0.810337 0.162870 0.522952 -0.232542
C96   C     C_3   0.189642 0.162463 0.476843 -0.231868
C97   C     C_R   0.273317 0.043949 0.646123 0.540687
C98   C     C_R   0.726616 0.043682 0.353945 0.541622
C99   C     C_R   0.773317 0.543950 0.646123 0.540684
C100  C     C_R   0.226617 0.543685 0.353944 0.541616
C101  C     C_R   0.469811 0.822789 0.646058 0.539953
C102  C     C_R   0.530162 0.822673 0.353916 0.542394
C103  C     C_R   0.969811 0.322789 0.646058 0.539955
C104  C     C_R   0.030163 0.322673 0.353917 0.542396
C105  C     C_R   0.261010 0.640912 0.643541 0.536280
C106  C     C_R   0.739033 0.640623 0.356406 0.537271
C107  C     C_R   0.761010 0.140909 0.643542 0.536278
C108  C     C_R   0.239032 0.140627 0.356407 0.537277
C109  C     C_3   0.490468 0.923552 0.033286 -0.163726
C110  C     C_3   0.528309 0.912145 0.960275 -0.164649
C111  C     C_3   0.990465 0.423550 0.033286 -0.163726
C112  C     C_3   0.028308 0.412148 0.960276 -0.164649
C113  C     C_3   0.436176 0.833437 0.008291 -0.176376
C114  C     C_3   0.571930 0.809106 0.990762 -0.170174
C115  C     C_3   0.936176 0.333433 0.008291 -0.176372
C116  C     C_3   0.071930 0.309110 0.990762 -0.170175
C117  C     C_3   0.474271 0.822627 0.935765 0.049395
C118  C     C_3   0.533312 0.821422 0.063075 0.044748
C119  C     C_3   0.974271 0.322627 0.935764 0.049397
C120  C     C_3   0.033312 0.321422 0.063075 0.044749
Cr1   Cr    Cr6+3 0.229620 0.836040 0.749110 1.006574
Cr2   Cr    Cr6+3 0.770380 0.836040 0.250890 1.007361
Cr3   Cr    Cr6+3 0.729620 0.336040 0.749110 1.006574
Cr4   Cr    Cr6+3 0.270380 0.336040 0.250890 1.007360
Cr5   Cr    Cr6+3 0.387630 0.990680 0.750730 1.004960
Cr6   Cr    Cr6+3 0.612370 0.990680 0.249270 1.002954
Cr7   Cr    Cr6+3 0.887630 0.490680 0.750730 1.004960
Cr8   Cr    Cr6+3 0.112370 0.490680 0.249270 1.002954
Cr9   Cr    Cr6+3 0.386020 0.676590 0.749210 1.045937
Cr10  Cr    Cr6+3 0.613980 0.676590 0.250790 1.042959
Cr11  Cr    Cr6+3 0.886020 0.176590 0.749210 1.045937
Cr12  Cr    Cr6+3 0.113980 0.176590 0.250790 1.042960
H1    H     H_    0.385467 0.830574 0.032267 0.116493
H2    H     H_    0.624823 0.790170 0.975941 0.101855
H3    H     H_    0.885465 0.330566 0.032265 0.116488
H4    H     H_    0.124823 0.290176 0.975941 0.101854
H5    H     H_    0.201509 0.743748 0.066847 0.132657
H6    H     H_    0.809286 0.734603 0.926212 0.142729
H7    H     H_    0.701507 0.243746 0.066850 0.132658
H8    H     H_    0.309288 0.234601 0.926213 0.142732
H9    H     H_    0.291118 0.734890 0.088126 0.125354
H10   H     H_    0.718348 0.740621 0.915969 0.107323
H11   H     H_    0.791116 0.234891 0.088124 0.125351
H12   H     H_    0.218350 0.240621 0.915969 0.107322
H13   H     H_    0.323133 0.728310 0.966426 0.114581
H14   H     H_    0.713012 0.775595 0.041460 0.099305
H15   H     H_    0.823122 0.228326 0.966424 0.114572
H16   H     H_    0.213013 0.275595 0.041459 0.099305
H17   H     H_    0.239688 0.788182 0.952050 0.131564
H18   H     H_    0.803155 0.750638 0.042312 0.139433
H19   H     H_    0.739675 0.288172 0.952052 0.131572
H20   H     H_    0.303156 0.250636 0.042312 0.139433
H21   H     H_    0.626836 0.078669 0.046486 0.151788
H22   H     H_    0.370449 0.050613 0.957096 0.153638
H23   H     H_    0.126836 0.578670 0.046488 0.151789
H24   H     H_    0.870449 0.550626 0.957097 0.153636
H25   H     H_    0.142685 0.635799 0.932359 0.147695
H26   H     H_    0.859136 0.584366 0.076372 0.137380
H27   H     H_    0.642683 0.135786 0.932355 0.147693
H28   H     H_    0.359136 0.084364 0.076371 0.137381
H29   H     H_    0.533172 0.630502 0.440341 0.138244
H30   H     H_    0.466619 0.630407 0.559851 0.138521
H31   H     H_    0.033174 0.130502 0.440342 0.138244
H32   H     H_    0.966620 0.130408 0.559851 0.138522
H33   H     H_    0.446657 0.667626 0.442914 0.117882
H34   H     H_    0.553138 0.667843 0.557185 0.117643
H35   H     H_    0.946659 0.167626 0.442915 0.117881
H36   H     H_    0.053139 0.167845 0.557187 0.117644
H37   H     H_    0.608155 0.829140 0.463176 0.108889
H38   H     H_    0.391698 0.829667 0.536965 0.108841
H39   H     H_    0.108158 0.329137 0.463184 0.108887
H40   H     H_    0.891700 0.329663 0.536964 0.108842
H41   H     H_    0.598983 0.863496 0.584243 0.103153
H42   H     H_    0.400955 0.863165 0.415736 0.103754
H43   H     H_    0.098982 0.363502 0.584246 0.103153
H44   H     H_    0.900958 0.363162 0.415736 0.103753
H45   H     H_    0.479826 0.008423 0.060695 0.133136
H46   H     H_    0.545364 0.988130 0.927471 0.133108
H47   H     H_    0.979822 0.508420 0.060697 0.133135
H48   H     H_    0.045362 0.488135 0.927473 0.133107
H49   H     H_    0.454116 0.990901 0.430192 0.120316
H50   H     H_    0.545938 0.991073 0.569416 0.120139
H51   H     H_    0.954116 0.490901 0.430192 0.120317
H52   H     H_    0.045937 0.491076 0.569415 0.120141
H53   H     H_    0.422668 0.976433 0.549564 0.131430
H54   H     H_    0.577657 0.976073 0.450117 0.131908
H55   H     H_    0.922667 0.476433 0.549564 0.131430
H56   H     H_    0.077660 0.476072 0.450118 0.131907
H57   H     H_    0.130000 0.637812 0.440226 0.137056
H58   H     H_    0.870044 0.637932 0.559714 0.137181
H59   H     H_    0.630000 0.137810 0.440227 0.137055
H60   H     H_    0.370046 0.137930 0.559713 0.137180
H61   H     H_    0.192426 0.748679 0.440476 0.117635
H62   H     H_    0.807837 0.748964 0.559369 0.117507
H63   H     H_    0.692427 0.248674 0.440478 0.117635
H64   H     H_    0.307839 0.248964 0.559368 0.117508
H65   H     H_    0.164764 0.739818 0.558311 0.137495
H66   H     H_    0.835255 0.740158 0.441552 0.137636
H67   H     H_    0.664765 0.239815 0.558311 0.137495
H68   H     H_    0.335261 0.240152 0.441550 0.137634
H69   H     H_    0.140862 0.591172 0.557636 0.117961
H70   H     H_    0.859232 0.591615 0.442397 0.117858
H71   H     H_    0.640861 0.091170 0.557637 0.117961
H72   H     H_    0.359231 0.091607 0.442397 0.117857
H73   H     H_    0.690777 0.929274 0.469253 0.110506
H74   H     H_    0.309128 0.929543 0.531354 0.110407
H75   H     H_    0.190773 0.429284 0.469243 0.110507
H76   H     H_    0.809126 0.429539 0.531361 0.110404
H77   H     H_    0.718789 0.926666 0.586971 0.101692
H78   H     H_    0.281352 0.926650 0.413440 0.102050
H79   H     H_    0.218785 0.426670 0.586968 0.101693
H80   H     H_    0.781361 0.426652 0.413442 0.102050
H81   H     H_    0.349865 0.571922 0.427867 0.124432
H82   H     H_    0.650075 0.572188 0.572293 0.124115
H83   H     H_    0.849863 0.071915 0.427872 0.124439
H84   H     H_    0.150076 0.072188 0.572294 0.124118
H85   H     H_    0.313414 0.714816 0.409459 0.103002
H86   H     H_    0.686777 0.715209 0.590132 0.102376
H87   H     H_    0.813416 0.214804 0.409460 0.103005
H88   H     H_    0.186777 0.215207 0.590135 0.102378
H89   H     H_    0.300107 0.754364 0.527388 0.110224
H90   H     H_    0.699714 0.753983 0.471874 0.110113
H91   H     H_    0.800105 0.254360 0.527385 0.110230
H92   H     H_    0.199718 0.253984 0.471879 0.110122
H93   H     H_    0.360360 0.639016 0.545102 0.129345
H94   H     H_    0.639615 0.637995 0.454814 0.129134
H95   H     H_    0.860360 0.139016 0.545102 0.129346
H96   H     H_    0.139616 0.138002 0.454818 0.129131
H97   H     H_    0.278390 0.396294 0.450491 0.133323
H98   H     H_    0.721428 0.396427 0.549855 0.133773
H99   H     H_    0.778383 0.896289 0.450495 0.133320
H100  H     H_    0.221433 0.896423 0.549855 0.133775
H101  H     H_    0.308445 0.444076 0.567097 0.122027
H102  H     H_    0.691650 0.443591 0.433095 0.121643
H103  H     H_    0.808447 0.944073 0.567097 0.122030
H104  H     H_    0.191645 0.943598 0.433101 0.121647
H105  H     H_    0.312018 0.419542 0.063067 0.129218
H106  H     H_    0.674550 0.431835 0.935735 0.133617
H107  H     H_    0.812019 0.919544 0.063067 0.129218
H108  H     H_    0.174548 0.931836 0.935734 0.133620
H109  H     H_    0.347170 0.555378 0.054844 0.172971
H110  H     H_    0.649862 0.579854 0.939525 0.174301
H111  H     H_    0.847169 0.055383 0.054845 0.172974
H112  H     H_    0.149862 0.079858 0.939525 0.174304
H113  H     H_    0.273512 0.415741 0.941261 0.100569
H114  H     H_    0.706838 0.423646 0.053239 0.098960
H115  H     H_    0.773516 0.915743 0.941262 0.100570
H116  H     H_    0.206836 0.923646 0.053239 0.098961
H117  H     H_    0.664874 0.939748 0.033579 0.102298
H118  H     H_    0.322311 0.919210 0.961318 0.092788
H119  H     H_    0.164875 0.439751 0.033578 0.102299
H120  H     H_    0.822320 0.419218 0.961315 0.092792
H121  H     H_    0.664759 0.985305 0.912341 0.109030
H122  H     H_    0.315036 0.948327 0.087298 0.106292
H123  H     H_    0.164755 0.485316 0.912341 0.109031
H124  H     H_    0.815038 0.448328 0.087296 0.106293
O1    O     O_R   0.214130 0.708570 0.829890 -0.529862
O2    O     O_R   0.785870 0.708570 0.170110 -0.529406
O3    O     O_R   0.714130 0.208570 0.829890 -0.529863
O4    O     O_R   0.285870 0.208570 0.170110 -0.529406
O5    O     O_R   0.446360 0.919990 0.675230 -0.510300
O6    O     O_R   0.553640 0.919990 0.324770 -0.509870
O7    O     O_R   0.946360 0.419990 0.675230 -0.510299
O8    O     O_R   0.053640 0.419990 0.324770 -0.509870
O9    O     O_R   0.457170 0.717300 0.668380 -0.529264
O10   O     O_R   0.542830 0.717300 0.331620 -0.528470
O11   O     O_R   0.957170 0.217300 0.668380 -0.529265
O12   O     O_R   0.042830 0.217300 0.331620 -0.528470
O13   O     O_R   0.320870 0.624890 0.673130 -0.514576
O14   O     O_R   0.679130 0.624890 0.326870 -0.514693
O15   O     O_R   0.820870 0.124890 0.673130 -0.514575
O16   O     O_R   0.179130 0.124890 0.326870 -0.514693
O17   O     O_3   0.334430 0.834430 0.749680 -0.298684
O18   O     O_3   0.665570 0.834430 0.250320 -0.302021
O19   O     O_3   0.834430 0.334430 0.749680 -0.298683
O20   O     O_3   0.165570 0.334430 0.250320 -0.302021
O21   O     O_R   0.236050 0.959150 0.825270 -0.506966
O22   O     O_R   0.763950 0.959150 0.174730 -0.504917
O23   O     O_R   0.736050 0.459150 0.825270 -0.506966
O24   O     O_R   0.263950 0.459150 0.174730 -0.504917
O25   O     O_R   0.332100 0.076650 0.832310 -0.528468
O26   O     O_R   0.667900 0.076650 0.167690 -0.530774
O27   O     O_R   0.832100 0.576650 0.832310 -0.528469
O28   O     O_R   0.167900 0.576650 0.167690 -0.530773
O29   O     O_R   0.446500 0.918620 0.826240 -0.516591
O30   O     O_R   0.553500 0.918620 0.173760 -0.514941
O31   O     O_R   0.946500 0.418620 0.826240 -0.516591
O32   O     O_R   0.053500 0.418620 0.173760 -0.514941
O33   O     O_R   0.457310 0.715830 0.831280 -0.424914
O34   O     O_R   0.542690 0.715830 0.168720 -0.421922
O35   O     O_R   0.957310 0.215830 0.831280 -0.424913
O36   O     O_R   0.042690 0.215830 0.168720 -0.421922
O37   O     O_R   0.321000 0.623520 0.824130 -0.498735
O38   O     O_R   0.679000 0.623520 0.175870 -0.501906
O39   O     O_R   0.821000 0.123520 0.824130 -0.498735
O40   O     O_R   0.179000 0.123520 0.175870 -0.501907
O41   O     O_R   0.213990 0.710040 0.667000 -0.533815
O42   O     O_R   0.786010 0.710040 0.333000 -0.533285
O43   O     O_R   0.713990 0.210040 0.667000 -0.533814
O44   O     O_R   0.286010 0.210040 0.333000 -0.533287
O45   O     O_R   0.235920 0.960520 0.674260 -0.510297
O46   O     O_R   0.764080 0.960520 0.325740 -0.509436
O47   O     O_R   0.735920 0.460520 0.674260 -0.510297
O48   O     O_R   0.264080 0.460520 0.325740 -0.509438
O49   O     O_R   0.331960 0.078120 0.669410 -0.532101
O50   O     O_R   0.668040 0.078120 0.330590 -0.532239
O51   O     O_R   0.831960 0.578120 0.669410 -0.532102
O52   O     O_R   0.168040 0.578120 0.330590 -0.532239
O53   O     O_3   0.531445 0.618664 0.928341 -0.673174
H125  H     H_    0.535117 0.554670 0.963898 0.323688
O54   O     O_3   0.453181 0.641650 0.077965 -0.676989
H126  H     H_    0.455504 0.570222 0.047779 0.324872
O55   O     O_3   0.031448 0.118667 0.928339 -0.673176
H127  H     H_    0.035120 0.054672 0.963896 0.323687
O56   O     O_3   0.953184 0.141645 0.077963 -0.676984
H128  H     H_    0.955504 0.070219 0.047774 0.324869
C121  C     C_1   0.368589 0.485474 0.925964 0.189010
N1    N     N_1   0.422258 0.472442 0.901350 -0.244497
C122  C     C_1   0.621492 0.512127 0.070634 0.182931
N2    N     N_1   0.568175 0.504840 0.096775 -0.260090
C123  C     C_1   0.868591 0.985481 0.925966 0.189009
N3    N     N_1   0.922260 0.972450 0.901351 -0.244499
C124  C     C_1   0.121491 0.012128 0.070634 0.182930
N4    N     N_1   0.068174 0.004840 0.096776 -0.260080

loop_
_geom_bond_atom_site_label_1
_geom_bond_atom_site_label_2
_ccdc_geom_bond_type
C82   C94   S    
C55   C59   S    
C83   C87   S    
C73   C93   S    
C47   O35   A    
C42   C58   S    
C29   C89   S    
C75   C95   S    
C48   C120  S    
Cr5   O17   S    
C24   H8    S    
C57   C102  S    
C85   H101  S    
C59   C104  S    
Cr1   O21   S    
Cr9   O37   S    
Cr2   O18   S    
C5    C6    S    
Cr10  O14   S    
Cr3   O23   S    
Cr11  O11   S    
C110  H46   S    
C22   C38   S    
C29   C33   S    
C87   H103  S    
C30   C38   S    
C77   C100  S    
C44   H36   S    
C9    C13   S    
C92   O4    A    
C11   C15   S    
C49   H54   S    
C12   C16   S    
C102  O6    A    
C99   O51   A    
C52   H55   S    
C103  O11   A    
C60   C103  S    
C83   C107  S    
C88   H78   S    
C74   H82   S    
C61   H57   S    
C23   H11   S    
C64   H60   S    
C109  C118  S    
C16   H116  S    
Cr5   O29   S    
C50   C53   S    
C124  N4    T    
C46   O30   A    
C7    C119  S    
C33   H123  S    
Cr8   O32   S    
C62   H58   S    
C62   C66   S    
C72   H74   S    
C56   H52   S    
Cr3   O3    S    
C90   O38   A    
Cr12  O40   S    
C100  O48   A    
C43   C44   S    
C1    O21   A    
C66   C82   S    
C3    O23   A    
C75   H87   S    
C6    O54   S    
C58   C101  S    
C106  O42   A    
C4    O24   A    
C62   H62   S    
C17   H23   S    
C18   H24   S    
C92   O40   A    
Cr2   O46   S    
C3    C26   S    
Cr3   O43   S    
C84   C88   S    
C31   C91   S    
Cr7   O19   S    
Cr12  O16   S    
C85   H79   S    
Cr10  O38   S    
Cr11  O35   S    
C17   C25   S    
C19   C35   S    
C76   C96   S    
C1    O25   A    
C32   C92   S    
C75   H83   S    
C98   O46   A    
C95   H91   S    
C67   H71   S    
C21   H9    S    
C61   C65   S    
C12   H108  S    
C123  N3    T    
C78   C99   S    
C73   C77   S    
C104  O8    A    
C75   C79   S    
Cr12  O20   S    
C67   C83   S    
Cr8   O52   S    
C80   C97   S    
C68   H72   S    
C11   H111  S    
C69   C77   S    
C111  C112  S    
C9    H109  S    
C52   H40   S    
C71   C79   S    
C4    C25   S    
Cr4   O24   S    
C7    C8    S    
C64   C68   S    
C76   H88   S    
C111  H47   S    
C39   H19   S    
C49   C57   S    
C40   H20   S    
C34   H124  S    
C38   H14   S    
C51   H56   S    
C52   C60   S    
C61   C77   S    
C12   H112  S    
C93   H93   S    
C110  C114  S    
C43   C59   S    
C112  H48   S    
C10   H106  S    
Cr6   O18   S    
C22   H10   S    
C14   C122  S    
Cr2   O22   S    
Cr3   O19   S    
C95   H95   S    
C81   C105  S    
C30   C34   S    
C73   H85   S    
C10   C14   S    
C36   H122  S    
C116  C120  S    
C20   C36   S    
C7    C116  S    
C90   O2    A    
C69   H97   S    
C71   H73   S    
C74   H86   S    
C114  H2    S    
C21   C37   S    
C66   H66   S    
C113  C117  S    
C5    O53   S    
Cr5   O25   S    
C115  C119  S    
Cr6   O30   S    
C9    H105  S    
Cr8   O28   S    
C61   H61   S    
C112  C116  S    
C69   C85   S    
C45   C117  S    
C21   C25   S    
C45   O33   A    
C72   H100  S    
C62   C78   S    
C24   C28   S    
C2    O22   A    
C42   H30   S    
C15   C31   S    
C43   H35   S    
C16   C32   S    
C97   O49   A    
C72   C80   S    
C107  O43   A    
C115  H3    S    
C64   H64   S    
C4    O28   A    
C82   C106  S    
Cr5   O49   S    
C55   H44   S    
C91   O3    A    
C66   H70   S    
C51   C59   S    
Cr5   O5    S    
C94   H90   S    
C113  H1    S    
C81   C85   S    
Cr1   O1    S    
C13   H113  S    
C41   H29   S    
C87   H77   S    
C41   C42   S    
C74   C94   S    
Cr9   O17   S    
C18   C26   S    
C30   C90   S    
C9    C25   S    
C2    O26   A    
C86   H102  S    
C12   C28   S    
C13   C29   S    
C86   H80   S    
C67   H67   S    
C98   O50   A    
C45   O29   A    
C46   C118  S    
C22   C26   S    
C1    C28   S    
Cr1   O41   S    
C2    C27   S    
Cr10  O18   S    
Cr4   O44   S    
C52   C55   S    
C32   C36   S    
O56   H128  S    
C64   C80   S    
C73   H81   S    
C17   C33   S    
C110  C117  S    
C38   H18   S    
C33   H25   S    
C105  O13   A    
C69   H75   S    
C40   H16   S    
C107  O15   A    
C68   C84   S    
C76   C80   S    
C108  O16   A    
C13   C121  S    
C53   C57   S    
C19   H117  S    
C82   C86   S    
C17   H119  S    
C56   C60   S    
C50   C58   S    
C48   O36   A    
Cr7   O31   S    
C76   H84   S    
C65   C81   S    
Cr7   O51   S    
C50   H38   S    
C24   H12   S    
C71   C87   S    
C15   H115  S    
C8    O56   S    
C31   C35   S    
C96   H96   S    
Cr9   O9    S    
C101  O9    A    
C37   H17   S    
C112  C119  S    
C116  H4    S    
C20   C28   S    
C22   H6    S    
C41   C57   S    
C47   O31   A    
C109  C110  S    
C49   H37   S    
C48   O32   A    
C89   O37   A    
O55   H127  S    
C44   C60   S    
C63   H59   S    
Cr6   O26   S    
C91   O39   A    
C84   C108  S    
Cr7   O7    S    
Cr8   O8    S    
Cr1   O17   S    
C94   H94   S    
C122  N2    T    
Cr10  O10   S    
C109  H45   S    
Cr11  O15   S    
Cr4   O4    S    
C74   C78   S    
C29   C37   S    
C55   H51   S    
C44   H32   S    
C70   H76   S    
C42   H34   S    
C43   H31   S    
O54   H126  S    
C101  O5    A    
C5    C114  S    
C70   C78   S    
C79   C98   S    
C10   H110  S    
C16   C124  S    
C63   C79   S    
O53   H125  S    
C20   H22   S    
C54   H41   S    
C23   H7    S    
Cr6   O50   S    
C46   O34   A    
C11   H107  S    
C49   C54   S    
Cr6   O6    S    
C19   H21   S    
C51   C56   S    
C84   C96   S    
Cr7   O27   S    
Cr8   O20   S    
C8    C115  S    
C20   H118  S    
Cr2   O2    S    
C18   H120  S    
C96   H92   S    
C41   H33   S    
Cr12  O36   S    
C11   C27   S    
C19   C27   S    
C109  C113  S    
C10   C26   S    
C47   C119  S    
Cr9   O33   S    
C105  O41   A    
C14   C30   S    
C72   C88   S    
C53   H42   S    
C108  O44   A    
C88   H104  S    
C63   C67   S    
C56   H43   S    
C89   O1    A    
C7    O55   S    
Cr1   O45   S    
C21   H5    S    
C5    C117  S    
C111  C120  S    
Cr2   O42   S    
Cr3   O47   S    
C70   H98   S    
C6    C113  S    
Cr11  O19   S    
Cr4   O48   S    
C53   H49   S    
Cr12  O12   S    
C81   C93   S    
C83   C95   S    
Cr10  O34   S    
C54   H50   S    
Cr11  O39   S    
C18   C34   S    
C114  C118  S    
C65   H65   S    
C34   H26   S    
C106  O14   A    
C23   C27   S    
C97   O45   A    
C70   C86   S    
C99   O47   A    
C8    C120  S    
C35   H121  S    
C54   C58   S    
C104  O12   A    
C111  C115  S    
C68   H68   S    
C51   H39   S    
C71   H99   S    
Cr4   O20   S    
C23   C39   S    
C3    O27   A    
C24   C40   S    
C31   C39   S    
C63   H63   S    
C32   C40   S    
C121  N1    T    
C35   H27   S    
Cr9   O13   S    
C36   H28   S    
C100  O52   A    
C65   H69   S    
C102  O10   A    
C39   H15   S    
C103  O7    A    
C93   H89   S    
C37   H13   S    
C50   H53   S    
C6    C118  S    
C14   H114  S    
C15   C123  S    
