data_str_m3_o14_o16_f0_pcu.sym.104
_audit_creation_date              2012-12-10T17:42:35-0500
_audit_creation_method            fapswitch 2.2
_symmetry_space_group_name_H-M    P1
_symmetry_Int_Tables_number       1
_space_group_crystal_system       triclinic
_cell_length_a                    9.968183
_cell_length_b                    10.680561
_cell_length_c                    13.098396
_cell_angle_alpha                 92.846528
_cell_angle_beta                  69.10451
_cell_angle_gamma                 88.121265
_cell_volume                      1299.30192504

loop_
_atom_site_label
_atom_site_type_symbol
_atom_type_description
_atom_site_fract_x
_atom_site_fract_y
_atom_site_fract_z
_atom_type_partial_charge
C1    C     C_R   0.498344 0.740914 0.497253 0.885386
C2    C     C_R   0.362853 0.499517 0.823970 -0.100101
C3    C     C_R   0.233449 0.904079 0.512507 -0.143184
C4    C     C_R   0.418902 0.498611 0.704496 0.808241
C5    C     C_R   0.102360 0.973863 0.555191 -0.062151
C6    C     C_R   0.093745 0.089768 0.610733 -0.085419
C7    C     C_R   0.218812 0.141162 0.613925 -0.114709
C8    C     C_R   0.353976 0.075279 0.563055 0.065833
C9    C     C_R   0.359100 0.949347 0.525729 0.092272
C10   C     C_R   0.490356 0.876776 0.502673 -0.218524
C11   C     C_R   0.613923 0.933929 0.504733 -0.206344
C12   C     C_R   0.415711 0.482708 0.990657 -0.018968
C13   C     C_R   0.612299 0.060440 0.527233 0.454797
C14   C     C_R   0.485121 0.133307 0.544210 -0.299002
C15   C     C_R   0.788364 0.668489 0.646233 -0.135690
C16   C     C_R   0.494522 0.263062 0.516151 0.925599
C17   C     C_R   0.822665 0.748214 0.719646 -0.193859
C18   C     C_R   0.961339 0.745195 0.720479 -0.202911
C19   C     C_R   0.067277 0.663851 0.646661 -0.178138
C20   C     C_R   0.036516 0.582378 0.571244 0.147225
C21   C     C_R   0.892089 0.582499 0.571795 0.158801
C22   C     C_R   0.964854 0.419157 0.431449 0.004860
C23   C     C_R   0.445725 0.445475 0.879234 0.099493
C24   C     C_R   0.105300 0.414082 0.437089 -0.063105
C25   C     C_R   0.581128 0.501416 0.294626 0.892199
C26   C     C_R   0.766895 0.368320 0.005786 -0.172827
C27   C     C_R   0.631393 0.490741 0.173785 -0.185895
C28   C     C_R   0.235633 0.570035 0.882871 -0.242525
C29   C     C_R   0.191312 0.588012 0.995863 -0.073496
C30   C     C_R   0.277784 0.543161 0.051843 0.035997
C31   C     C_2   0.891510 0.423944 0.133239 0.409222
C32   C     C_2   0.947715 0.342762 0.339575 0.545985
C33   C     C_2   0.209522 0.308815 0.377617 0.396859
C34   C     C_R   0.528254 0.461256 0.032081 0.076212
C35   C     C_2   0.211607 0.544462 0.172714 0.336935
C36   C     C_R   0.651298 0.383073 0.969968 0.140332
C37   C     C_R   0.661481 0.325793 0.869609 -0.230951
C38   C     C_R   0.560131 0.357067 0.824399 -0.170712
C39   C     C_R   0.528106 0.522285 0.129014 -0.271004
C40   C     C_R   0.760020 0.424677 0.106427 0.013875
H1    H     H_    0.233695 0.818323 0.465624 0.185966
H2    H     H_    0.863943 0.315335 0.953629 0.175288
H3    H     H_    0.446718 0.593867 0.173579 0.169344
H4    H     H_    0.170266 0.611603 0.841452 0.156240
H5    H     H_    0.087846 0.636344 0.039828 0.168423
H6    H     H_    0.573508 0.313309 0.744944 0.136095
H7    H     H_    0.713887 0.880262 0.490486 0.200669
H8    H     H_    0.901105 0.492563 0.193507 0.102909
H9    H     H_    0.710038 0.175193 0.590931 0.326090
H10   H     H_    0.040274 0.323398 0.264840 0.068207
H11   H     H_    0.320871 0.323672 0.333086 0.131096
H12   H     H_    0.007009 0.937215 0.545987 0.172020
H13   H     H_    0.248292 0.475675 0.216105 0.048867
H14   H     H_    0.991340 0.142262 0.647040 0.134565
H15   H     H_    0.209684 0.233041 0.655442 0.148572
H16   H     H_    0.679653 0.677337 0.650640 0.198855
H17   H     H_    0.740878 0.812840 0.776291 0.155825
H18   H     H_    0.987531 0.807236 0.777774 0.156987
H19   H     H_    0.172456 0.666265 0.650439 0.202411
H20   H     H_    0.752208 0.262235 0.823076 0.136292
N1    N     N_R   0.856860 0.501200 0.500990 -0.138129
N2    N     N_R   0.142450 0.501280 0.501020 -0.155125
O1    O     O_R   0.385310 0.683220 0.500000 -0.645274
O2    O     O_3   0.737292 0.108953 0.530427 -0.721569
O3    O     O_2   0.837011 0.295103 0.344964 -0.495654
O4    O     O_2   0.170475 0.201602 0.377984 -0.562169
O5    O     O_2   0.115147 0.621500 0.224877 -0.597765
O6    O     O_R   0.614640 0.683250 0.500010 -0.635262
O7    O     O_R   0.328400 0.499950 0.653610 -0.637720
O8    O     O_R   0.557730 0.499970 0.653620 -0.636202
O9    O     O_R   0.385360 0.316750 0.499990 -0.628948
O10   O     O_R   0.614690 0.316780 0.500000 -0.532865
O11   O     O_R   0.442270 0.500030 0.346380 -0.634500
O12   O     O_R   0.671600 0.500050 0.346390 -0.586670
O13   O     O_2   0.993458 0.350241 0.084837 -0.591408
Zn1   Zn    Zn3+2 0.346880 0.499980 0.499990 0.921882
Zn2   Zn    Zn3+2 0.653120 0.500020 0.500010 0.982052

loop_
_geom_bond_atom_site_label_1
_geom_bond_atom_site_label_2
_ccdc_geom_bond_type
C35   H13   S    
C11   H7    S    
C19   C20   A    
C16   O10   A    
C7    H15   S    
C4    O8    A    
C7    C8    A    
C12   C23   A    
C29   C30   A    
C22   C32   S    
C30   C35   S    
C28   C29   A    
C37   C38   A    
C25   O12   A    
C5    C6    A    
O1    Zn1   S    
C1    O6    A    
C31   C40   S    
O7    Zn1   S    
C18   C19   A    
C18   H18   S    
C3    H1    S    
C27   C39   A    
C8    C9    A    
O12   Zn2   S    
C8    C14   A    
C5    H12   S    
C14   C16   S    
C9    C10   A    
C25   O11   A    
H9    O2    S    
C13   C14   A    
O8    Zn2   S    
N2    Zn1   S    
C16   O9    A    
C6    H14   S    
C1    O1    A    
C4    O7    A    
C33   O4    D    
C34   C39   A    
N1    Zn2   S    
C39   H3    S    
C19   H19   S    
C28   H4    S    
C29   H5    S    
C2    C4    S    
O10   Zn2   S    
C3    C9    A    
C31   O13   D    
C35   O5    D    
C27   C40   A    
C17   C18   A    
C32   H10   S    
C26   C36   A    
C31   H8    S    
O11   Zn1   S    
C22   C24   A    
C25   C27   S    
C12   C34   A    
C26   H2    S    
O6    Zn2   S    
C15   C17   A    
C36   C37   A    
C24   N2    A    
C12   C30   A    
C21   N1    A    
C1    C10   S    
C3    C5    A    
C6    C7    A    
C33   H11   S    
C23   C38   A    
C24   C33   S    
C15   H16   S    
C22   N1    A    
C11   C13   A    
C26   C40   A    
O9    Zn1   S    
C13   O2    S    
C34   C36   A    
C20   N2    A    
C38   H6    S    
C37   H20   S    
C10   C11   A    
C15   C21   A    
C20   C21   A    
C2    C23   A    
C2    C28   A    
C17   H17   S    
C32   O3    D    
