data_str_m12_o9_o22_f0_bcu.sym.13
_audit_creation_date              2012-12-11T17:45:20-0500
_audit_creation_method            fapswitch 2.2
_symmetry_space_group_name_H-M    P1
_symmetry_Int_Tables_number       1
_space_group_crystal_system       triclinic
_cell_length_a                    15.075706
_cell_length_b                    14.973379
_cell_length_c                    15.045626
_cell_angle_alpha                 110.297498
_cell_angle_beta                  109.700896
_cell_angle_gamma                 108.909207
_cell_volume                      2598.13631782

loop_
_atom_site_label
_atom_site_type_symbol
_atom_type_description
_atom_site_fract_x
_atom_site_fract_y
_atom_site_fract_z
_atom_type_partial_charge
C1    C     C_R   0.970816 0.245892 0.060369 -0.147534
C2    C     C_R   0.711519 0.188404 0.795745 0.221011
C3    C     C_R   0.776961 0.592210 0.026919 -0.137860
C4    C     C_R   0.314836 0.759285 0.221193 -0.122750
C5    C     C_R   0.931206 0.406702 0.685347 -0.126534
C6    C     C_R   0.674652 0.499819 0.954087 0.000601
C7    C     C_R   0.936695 0.497615 0.677372 0.019609
C8    C     C_R   0.715376 0.124028 0.702672 0.008959
C9    C     C_R   0.070854 0.872830 0.080812 0.067621
C10   C     C_R   0.569141 0.299924 0.122057 -0.141719
C11   C     C_R   0.667323 0.376899 0.220921 -0.117339
C12   C     C_R   0.330657 0.790395 0.325661 0.053037
C13   C     C_R   0.732137 0.342066 0.274638 0.124763
C14   C     C_R   0.698460 0.229605 0.226909 -0.192057
C15   C     C_R   0.601008 0.152962 0.127146 -0.091692
C16   C     C_R   0.205871 0.407872 0.900171 -0.145771
C17   C     C_R   0.535930 0.187994 0.075177 -0.106659
C18   C     C_R   0.836043 0.422934 0.476437 -0.250906
C19   C     C_R   0.924178 0.507677 0.581117 0.078774
C20   C     C_R   0.007176 0.597123 0.591988 0.039720
C21   C     C_R   0.004404 0.595594 0.499084 -0.264061
C22   C     C_R   0.921684 0.507577 0.394809 0.060161
C23   C     C_R   0.297237 0.498247 0.928161 -0.001810
C24   C     C_R   0.832550 0.423547 0.382414 0.017487
C25   C     C_R   0.116731 0.791553 0.747982 -0.197224
C26   C     C_R   0.209905 0.875684 0.848911 -0.132302
C27   C     C_R   0.291024 0.856174 0.901692 -0.138904
C28   C     C_R   0.998684 0.592714 0.301124 -0.154140
C29   C     C_R   0.278719 0.751586 0.854030 -0.122749
C30   C     C_R   0.186496 0.667257 0.752416 -0.147619
C31   C     C_R   0.105873 0.687231 0.697813 0.085222
C32   C     C_R   0.251692 0.959477 0.572313 -0.140827
C33   C     C_R   0.328062 0.954228 0.541569 -0.169948
C34   C     C_R   0.940507 0.502477 0.304622 0.068376
C35   C     C_R   0.371204 0.886892 0.557112 0.145526
C36   C     C_R   0.344148 0.831833 0.609621 -0.210396
C37   C     C_R   0.272524 0.841771 0.644339 -0.133805
C38   C     C_R   0.222494 0.901485 0.622422 -0.084775
C39   C     C_R   0.558793 0.943018 0.621431 -0.243606
C40   C     C_R   0.296387 0.589888 0.991033 -0.140412
C41   C     C_R   0.644431 0.005054 0.615009 0.060121
C42   C     C_R   0.635948 0.963129 0.509781 0.039395
C43   C     C_R   0.533893 0.882740 0.416628 -0.245154
C44   C     C_R   0.439900 0.851890 0.425546 0.062371
C45   C     C_R   0.686809 0.408249 0.932073 -0.151095
C46   C     C_R   0.455027 0.885232 0.531318 0.025660
C47   C     C_R   0.726625 0.066839 0.438159 -0.181742
C48   C     C_R   0.819658 0.122576 0.436119 -0.137890
C49   C     C_R   0.912631 0.116822 0.485253 -0.052327
C50   C     C_R   0.911952 0.052604 0.533904 -0.139223
C51   C     C_R   0.819140 0.996212 0.536322 -0.186140
C52   C     C_R   0.909245 0.409981 0.210776 -0.144276
C53   C     C_R   0.727008 0.005987 0.491376 0.121003
C54   C     C_3   0.479405 0.380307 0.886152 -0.432118
C55   C     C_3   0.380595 0.382177 0.889681 -0.403633
C56   C     C_R   0.002739 0.586511 0.782929 -0.096838
C57   C     C_3   0.592210 0.568706 0.056664 -0.393090
C58   C     C_3   0.537472 0.547454 0.868464 -0.453053
C59   C     C_3   0.572853 0.499195 0.940565 0.392926
C60   C     C_3   0.394913 0.498463 0.925939 0.331419
C61   C     C_3   0.490323 0.573182 0.047708 -0.431920
C62   C     C_3   0.430582 0.546385 0.857390 -0.104190
C63   C     C_R   0.072748 0.028323 0.759568 -0.151887
C64   C     C_R   0.226153 0.753259 0.314594 -0.139837
C65   C     C_R   0.064679 0.037202 0.851394 -0.142881
C66   C     C_R   0.157865 0.105931 0.956629 0.111429
C67   C     C_R   0.800647 0.196109 0.704372 -0.200938
C68   C     C_R   0.259917 0.159831 0.968366 -0.224199
C69   C     C_R   0.267628 0.147264 0.875262 -0.136996
C70   C     C_R   0.173736 0.086452 0.771968 -0.100592
C71   C     C_R   0.168169 0.040031 0.082136 -0.232557
C72   C     C_R   0.108275 0.991577 0.122111 0.058590
C73   C     C_R   0.065517 0.049185 0.175038 0.029262
C74   C     C_R   0.064871 0.137946 0.164301 -0.247275
C75   C     C_R   0.091974 0.160143 0.090764 0.065407
C76   C     C_R   0.069078 0.254616 0.976820 -0.128203
C77   C     C_R   0.147780 0.111873 0.051857 0.028289
C78   C     C_R   0.003463 0.803596 0.099503 -0.146967
C79   C     C_R   0.892617 0.963939 0.173046 -0.175240
C80   C     C_R   0.833189 0.910749 0.210716 -0.132693
C81   C     C_R   0.886882 0.904650 0.302417 -0.069532
C82   C     C_R   0.000478 0.956443 0.359944 -0.141265
C83   C     C_R   0.060680 0.010554 0.323130 -0.194020
C84   C     C_R   0.006415 0.010842 0.226826 0.119971
C85   C     C_R   0.048226 0.220186 0.046339 0.059467
C86   C     C_3   0.670155 0.149146 0.861630 -0.383981
C87   C     C_3   0.550288 0.115200 0.822742 -0.921838
C88   C     C_R   0.347113 0.496407 0.736447 0.168647
C89   C     C_R   0.098866 0.808453 0.015372 -0.154454
C90   C     C_R   0.293787 0.383704 0.657162 -0.143500
C91   C     C_R   0.220838 0.342980 0.547195 -0.144522
C92   C     C_R   0.203688 0.414366 0.513079 -0.068019
C93   C     C_R   0.261898 0.526990 0.588324 -0.107921
C94   C     C_R   0.334081 0.567777 0.698585 -0.202386
H1    H     H_    0.934924 0.231500 0.108558 0.093864
H2    H     H_    0.691758 0.463307 0.256749 0.101127
H3    H     H_    0.374152 0.771799 0.195507 0.088263
H4    H     H_    0.748504 0.201606 0.265506 0.104612
H5    H     H_    0.575792 0.066411 0.090360 0.099153
H6    H     H_    0.770444 0.356546 0.468183 0.133156
H7    H     H_    0.072814 0.659995 0.508961 0.140204
H8    H     H_    0.053772 0.807433 0.708713 0.126780
H9    H     H_    0.219464 0.955912 0.886413 0.151675
H10   H     H_    0.362543 0.921692 0.980115 0.104591
H11   H     H_    0.340583 0.736052 0.895828 0.095585
H12   H     H_    0.016225 0.668526 0.808299 0.128389
H13   H     H_    0.174353 0.585024 0.718184 0.142580
H14   H     H_    0.162160 0.903280 0.644861 0.117575
H15   H     H_    0.174098 0.322387 0.843141 0.107206
H16   H     H_    0.216843 0.009410 0.558613 0.096306
H17   H     H_    0.352660 0.000971 0.504748 0.116236
H18   H     H_    0.381103 0.784104 0.626604 0.116983
H19   H     H_    0.258441 0.802858 0.688710 0.162477
H20   H     H_    0.566797 0.957240 0.698990 0.160012
H21   H     H_    0.529104 0.853411 0.337830 0.120797
H22   H     H_    0.656622 0.075882 0.403679 0.119241
H23   H     H_    0.843212 0.178048 0.663110 0.151048
H24   H     H_    0.821353 0.173304 0.399871 0.108366
H25   H     H_    0.984946 0.161245 0.484649 0.113096
H26   H     H_    0.983945 0.047433 0.569735 0.105110
H27   H     H_    0.023596 0.677312 0.354250 0.102444
H28   H     H_    0.820476 0.949363 0.577240 0.113371
H29   H     H_    0.504361 0.339124 0.930377 0.150654
H30   H     H_    0.457744 0.330409 0.799731 0.155921
H31   H     H_    0.305673 0.317094 0.810461 0.146567
H32   H     H_    0.372863 0.361272 0.951796 0.171391
H33   H     H_    0.614666 0.532221 0.107802 0.161849
H34   H     H_    0.975366 0.823184 0.155914 0.134468
H35   H     H_    0.468369 0.547185 0.101846 0.171082
H36   H     H_    0.602709 0.633322 0.906249 0.145314
H37   H     H_    0.527167 0.499263 0.786726 0.164321
H38   H     H_    0.351628 0.674413 0.021025 0.077948
H39   H     H_    0.452619 0.634269 0.900415 0.086715
H40   H     H_    0.659789 0.654526 0.100321 0.147878
H41   H     H_    0.509498 0.660197 0.079975 0.147316
H42   H     H_    0.179667 0.081593 0.701079 0.092811
H43   H     H_    0.000986 0.974335 0.678932 0.103128
H44   H     H_    0.986027 0.991333 0.840938 0.114645
H45   H     H_    0.161215 0.837010 0.996347 0.119089
H46   H     H_    0.332693 0.208894 0.048636 0.130552
H47   H     H_    0.346268 0.183947 0.882790 0.119935
H48   H     H_    0.211784 0.005597 0.051980 0.119618
H49   H     H_    0.030096 0.179718 0.202941 0.121971
H50   H     H_    0.854750 0.325611 0.181688 0.104632
H51   H     H_    0.849690 0.963904 0.098964 0.113098
H52   H     H_    0.745375 0.872052 0.167336 0.105020
H53   H     H_    0.840489 0.861120 0.329904 0.111877
H54   H     H_    0.041258 0.952661 0.431798 0.101842
H55   H     H_    0.148290 0.046642 0.365723 0.115402
H56   H     H_    0.797426 0.677297 0.062347 0.102277
H57   H     H_    0.204074 0.754537 0.375597 0.130421
H58   H     H_    0.129943 0.257245 0.954507 0.130448
H59   H     H_    0.625367 0.323648 0.874929 0.133109
H60   H     H_    0.509635 0.109952 0.743011 0.270648
H61   H     H_    0.506917 0.034803 0.814956 0.264856
H62   H     H_    0.542698 0.175234 0.883769 0.244686
H63   H     H_    0.686982 0.083008 0.864389 0.169695
H64   H     H_    0.718620 0.216460 0.949075 0.197255
H65   H     H_    0.310769 0.326637 0.676726 0.105768
H66   H     H_    0.179358 0.256086 0.487804 0.115496
H67   H     H_    0.886020 0.322265 0.619230 0.117349
H68   H     H_    0.147590 0.382751 0.427835 0.105048
H69   H     H_    0.251058 0.582900 0.561360 0.115310
H70   H     H_    0.380356 0.655816 0.754274 0.107694
H71   H     H_    0.459964 0.128324 0.998581 0.111413
H72   H     H_    0.518310 0.327167 0.082815 0.100693
N1    N     N_R   0.947080 0.293830 0.002870 -0.047909
N2    N     N_R   0.153670 0.443180 0.946090 -0.037998
N3    N     N_R   0.002360 0.556820 0.208890 -0.038563
N4    N     N_R   0.210070 0.556820 0.002870 -0.032244
N5    N     N_R   0.945960 0.443180 0.152110 -0.040546
N6    N     N_R   0.151710 0.706170 0.208890 -0.042065
N7    N     N_R   0.004320 0.293830 0.946090 -0.043098
N8    N     N_R   0.789930 0.443180 0.997130 -0.036251
N9    N     N_R   0.054040 0.556820 0.847890 -0.040544
N10   N     N_R   0.848290 0.293830 0.791110 -0.053718
N11   N     N_R   0.995680 0.706170 0.053910 -0.041305
N12   N     N_R   0.052920 0.706170 0.997130 -0.043533
N13   N     N_R   0.791050 0.293830 0.847890 -0.068922
N14   N     N_R   0.846330 0.556820 0.053910 -0.034826
N15   N     N_R   0.997640 0.443180 0.791110 -0.039890
N16   N     N_R   0.208950 0.706170 0.152110 -0.039080
Ni1   Ni    Ni4+2 0.869690 0.369690 0.000000 0.203448
Ni2   Ni    Ni4+2 0.130310 0.630310 0.000000 0.217663
Ni3   Ni    Ni4+2 0.000970 0.369690 0.869780 0.211886
Ni4   Ni    Ni4+2 0.999030 0.630310 0.130220 0.212998

loop_
_geom_bond_atom_site_label_1
_geom_bond_atom_site_label_2
_ccdc_geom_bond_type
C11   H2    S    
C25   C31   A    
C66   C68   A    
C74   H49   S    
C63   C65   A    
C58   C62   S    
C93   C94   A    
C6    C45   A    
N8    N14   A    
C30   H13   S    
C27   C29   A    
C78   N11   A    
N3    N5    A    
C41   C42   A    
C35   C36   A    
C9    C72   S    
C43   C44   A    
C3    C6    A    
C78   H34   S    
C40   N4    A    
C81   C82   A    
N10   Ni3   S    
C39   C41   A    
C49   H25   S    
N7    Ni3   S    
C26   C27   A    
C52   H50   S    
C32   H16   S    
C83   C84   A    
C50   H26   S    
C62   H39   S    
N5    Ni1   S    
C36   C37   A    
C16   N2    A    
N3    Ni4   S    
C42   C53   S    
C30   C31   A    
C12   C64   A    
C25   H8    S    
C57   C59   S    
C37   H19   S    
C76   H58   S    
C10   C17   A    
C69   H47   S    
C23   C40   A    
C27   H10   S    
C60   C62   S    
C18   C19   A    
C73   C74   A    
C90   H65   S    
C13   C14   A    
C43   H21   S    
C75   C85   S    
N10   N13   A    
N1    Ni1   S    
C55   H31   S    
N6    Ni4   S    
C68   C69   A    
C81   H53   S    
C36   H18   S    
C63   C70   A    
C1    N1    A    
N9    N15   A    
C33   H17   S    
C32   C38   A    
C4    C12   A    
C29   C30   A    
C67   N10   A    
C73   C84   S    
C1    H1    S    
C47   C53   A    
C21   H7    S    
C22   C24   A    
C80   H52   S    
C40   H38   S    
C28   C34   A    
C21   C22   A    
C70   H42   S    
C63   H43   S    
C29   H11   S    
C23   C60   S    
C18   H6    S    
C7    C56   A    
C52   N5    A    
C5    N15   A    
C44   C46   A    
C16   H15   S    
C14   H4    S    
N13   Ni1   S    
C54   C59   S    
C1    C85   A    
C47   H22   S    
C22   C34   S    
C88   C94   A    
C74   C75   A    
C64   H57   S    
C8    C41   S    
C79   H51   S    
C9    C89   A    
C91   C92   A    
C5    C7    A    
N15   Ni3   S    
C86   C87   S    
C72   C73   A    
C48   H24   S    
C56   N9    A    
C89   H45   S    
C25   C26   A    
C62   C88   S    
N11   Ni4   S    
C13   C24   S    
C60   C61   S    
C51   C53   A    
C5    H67   S    
C64   N6    A    
C3    N14   A    
C37   C38   A    
C4    H3    S    
C26   H9    S    
C75   C77   A    
C47   C48   A    
C55   H32   S    
C58   H37   S    
C10   H72   S    
C39   H20   S    
C50   C51   A    
C87   H60   S    
C89   N12   A    
C67   H23   S    
C56   H12   S    
C91   H66   S    
N14   Ni4   S    
N11   N12   A    
C39   C46   A    
C65   H44   S    
C48   C49   A    
C88   C90   A    
C82   C83   A    
C16   C23   A    
C7    C19   S    
C71   H48   S    
C18   C24   A    
C57   H40   S    
C68   H46   S    
C54   H29   S    
C45   H59   S    
C42   C43   A    
C94   H70   S    
C71   C77   A    
C61   H41   S    
C92   H68   S    
C15   C17   A    
C66   C77   S    
C54   H30   S    
C54   C55   S    
C76   N7    A    
C3    H56   S    
N2    Ni3   S    
N4    Ni2   S    
C87   H62   S    
C6    C59   S    
C2    C8    A    
C15   H5    S    
C80   C81   A    
N8    Ni1   S    
C57   H33   S    
C82   H54   S    
C86   H64   S    
C57   C61   S    
C61   H35   S    
C34   C52   A    
N1    N7    A    
C32   C33   A    
C19   C20   A    
C58   C59   S    
C71   C72   A    
C12   C44   S    
C17   H71   S    
C45   N8    A    
C11   C13   A    
C90   C91   A    
C79   C84   A    
C58   H36   S    
N2    N4    A    
C92   C93   A    
C33   C35   A    
C2    C86   S    
C87   H61   S    
C9    C78   A    
C65   C66   A    
C38   H14   S    
C69   C70   A    
C86   H63   S    
N16   Ni2   S    
C10   C11   A    
C79   C80   A    
N6    N16   A    
C28   N3    A    
C20   C21   A    
C8    C67   A    
C49   C50   A    
C2    N13   A    
C51   H28   S    
C93   H69   S    
C14   C15   A    
C28   H27   S    
C4    N16   A    
C55   C60   S    
C35   C46   S    
C76   C85   A    
N12   Ni2   S    
N9    Ni2   S    
C83   H55   S    
C20   C31   S    
