data_str_m2_o13_o15_f0_pcu.sym.225
_audit_creation_date              2012-12-10T17:10:27-0500
_audit_creation_method            fapswitch 2.2
_symmetry_space_group_name_H-M    P1
_symmetry_Int_Tables_number       1
_space_group_crystal_system       triclinic
_cell_length_a                    10.752247
_cell_length_b                    12.974102
_cell_length_c                    11.676602
_cell_angle_alpha                 100.3287
_cell_angle_beta                  90.19325
_cell_angle_gamma                 90.68366
_cell_volume                      1602.35982807

loop_
_atom_site_label
_atom_site_type_symbol
_atom_type_description
_atom_site_fract_x
_atom_site_fract_y
_atom_site_fract_z
_atom_type_partial_charge
C1    C     C_R   0.497550 0.299116 0.478421 0.817315
C2    C     C_R   0.502607 0.700878 0.521567 0.816459
C3    C     C_R   0.507228 0.814402 0.533602 -0.036980
C4    C     C_R   0.493260 0.185571 0.466342 -0.036127
C5    C     C_R   0.443208 0.014924 0.353475 -0.209222
C6    C     C_R   0.557396 0.985030 0.646470 -0.206503
C7    C     C_R   0.450835 0.123103 0.362619 -0.199063
C8    C     C_R   0.549626 0.876854 0.637350 -0.197953
C9    C     C_R   0.528755 0.139400 0.560809 -0.245034
C10   C     C_R   0.471976 0.860569 0.439073 -0.264357
C11   C     C_R   0.521941 0.031334 0.552201 0.176684
C12   C     C_R   0.478814 0.968626 0.447691 0.177794
C13   C     C_R   0.453352 0.365534 0.023153 0.021340
C14   C     C_R   0.549040 0.634012 0.976844 0.015492
C15   C     C_R   0.446098 0.385465 0.145816 0.066344
C16   C     C_R   0.553676 0.614608 0.854102 0.056618
C17   C     C_R   0.508487 0.562193 0.156565 0.053901
C18   C     C_R   0.495393 0.437013 0.843481 0.054388
C19   C     C_R   0.515312 0.549662 0.033726 0.016751
C20   C     C_R   0.489247 0.449433 0.966411 0.013994
C21   C     C_R   0.261487 0.489608 0.502957 0.817962
C22   C     C_R   0.737865 0.512219 0.497211 0.830144
C23   C     C_R   0.099651 0.524398 0.727464 -0.052947
C24   C     C_R   0.897592 0.485764 0.273264 0.022478
C25   C     C_R   0.042671 0.593683 0.818653 -0.210804
C26   C     C_R   0.951176 0.415610 0.181209 -0.182152
C27   C     C_R   0.940284 0.651733 0.797174 -0.132574
C28   C     C_R   0.053926 0.357015 0.200954 -0.170581
C29   C     C_R   0.885755 0.633817 0.687509 -0.115829
C30   C     C_R   0.110443 0.374251 0.310112 -0.114358
C31   C     C_R   0.939090 0.562999 0.595626 0.070005
C32   C     C_R   0.058987 0.445099 0.403386 0.064051
C33   C     C_R   0.057746 0.522215 0.610783 0.023796
C34   C     C_R   0.940761 0.486782 0.389018 -0.003009
C35   C     C_R   0.874070 0.530212 0.490363 -0.149803
C36   C     C_R   0.124260 0.476230 0.509495 -0.165119
Cu1   Cu    Cu3+1 0.509250 0.507730 0.615930 0.955073
Cu2   Cu    Cu3+1 0.490750 0.492270 0.384070 0.953029
H1    H     H_    0.094911 0.303464 0.129668 0.151598
H2    H     H_    0.897126 0.704428 0.867883 0.143185
H3    H     H_    0.070407 0.598771 0.908504 0.145711
H4    H     H_    0.917720 0.409881 0.092659 0.180324
H5    H     H_    0.801010 0.674800 0.674704 0.128670
H6    H     H_    0.194350 0.331731 0.321596 0.132257
H7    H     H_    0.438971 0.812574 0.358724 0.141869
H8    H     H_    0.561811 0.187404 0.641130 0.142490
H9    H     H_    0.578766 0.842019 0.710459 0.134223
H10   H     H_    0.421479 0.157936 0.289580 0.135337
H11   H     H_    0.408708 0.967637 0.273440 0.130328
H12   H     H_    0.591726 0.032313 0.726582 0.130814
H13   H     H_    0.471825 0.362969 0.789519 0.147768
H14   H     H_    0.532494 0.636099 0.210560 0.126350
H15   H     H_    0.579906 0.676207 0.808367 0.125897
H16   H     H_    0.417892 0.324311 0.191499 0.122398
N1    N     N_R   0.523180 0.519350 0.790130 -0.203456
N2    N     N_R   0.476820 0.480650 0.209870 -0.200207
O1    O     O_R   0.506570 0.354460 0.582000 -0.584890
O2    O     O_R   0.493430 0.645540 0.418000 -0.589997
O3    O     O_R   0.490940 0.341410 0.386200 -0.612975
O4    O     O_R   0.509060 0.658590 0.613800 -0.613867
O5    O     O_R   0.327470 0.506520 0.597900 -0.571421
O6    O     O_R   0.672530 0.493480 0.402100 -0.565417
O7    O     O_R   0.311840 0.493460 0.402100 -0.577278
O8    O     O_R   0.688160 0.506540 0.597900 -0.577915
C37   C     C_3   0.424422 0.256755 0.952355 -0.408362
C38   C     C_3   0.391148 0.170712 0.022570 -0.391046
C39   C     C_3   0.365403 0.065947 0.942616 -0.817344
H17   H     H_    0.287494 0.073141 0.881950 0.266187
H18   H     H_    0.449628 0.039263 0.891712 0.252263
H19   H     H_    0.339659 0.006077 0.995724 0.239130
H20   H     H_    0.469788 0.160442 0.081363 0.217821
H21   H     H_    0.306398 0.192857 0.075103 0.213302
H22   H     H_    0.345297 0.263472 0.892758 0.254140
H23   H     H_    0.507262 0.230416 0.898675 0.185767
C40   C     C_3   0.576821 0.743100 0.047383 -0.420978
C41   C     C_3   0.607089 0.829651 0.976938 -0.382535
C42   C     C_3   0.632468 0.934556 0.056730 -0.826641
H24   H     H_    0.548516 0.960557 0.108375 0.252804
H25   H     H_    0.711234 0.927942 0.116679 0.260277
H26   H     H_    0.656755 0.994646 0.003447 0.241978
H27   H     H_    0.691217 0.808520 0.923167 0.211935
H28   H     H_    0.527149 0.839205 0.919296 0.216492
H29   H     H_    0.494448 0.768389 0.102193 0.184507
H30   H     H_    0.657157 0.737299 0.105742 0.228180
C43   C     C_2   0.175024 0.437576 0.758956 0.887971
O9    O     O_2   0.182112 0.354588 0.690900 -0.576131
O10   O     O_R   0.231070 0.445163 0.868267 -0.776140
H31   H     H_    0.243840 0.519453 0.911182 0.283989
C44   C     C_2   0.819571 0.571315 0.243280 0.851917
O11   O     O_2   0.782597 0.566915 0.143390 -0.642759
O12   O     O_R   0.795203 0.660274 0.326908 -0.773754
H32   H     H_    0.743072 0.713546 0.295350 0.314035

loop_
_geom_bond_atom_site_label_1
_geom_bond_atom_site_label_2
_ccdc_geom_bond_type
O10   H31   S    
C27   C29   A    
C19   C20   A    
C5    H11   S    
C24   C44   S    
C21   C36   S    
C13   C37   S    
C42   H24   S    
C22   C35   S    
C32   C36   A    
C24   C26   A    
C1    O3    A    
C2    O4    A    
C40   H30   S    
C33   C36   A    
C37   H22   S    
C34   C35   A    
C16   H15   S    
Cu2   O2    S    
C38   H21   S    
C23   C33   A    
C31   C33   A    
C44   O12   S    
C21   O5    A    
C42   H25   S    
C38   C39   S    
C9    H8    S    
C29   H5    S    
C30   H6    S    
C4    C7    A    
C17   H14   S    
C18   H13   S    
C43   O10   S    
C21   O7    A    
C39   H17   S    
C15   H16   S    
C41   C42   S    
C5    C12   A    
C3    C8    A    
C25   H3    S    
O12   H32   S    
C5    C7    A    
C6    C8    A    
C28   H1    S    
C43   O9    D    
C24   C34   A    
C37   H23   S    
C39   H18   S    
C32   C34   A    
C40   C41   S    
Cu1   Cu2   S    
C1    O1    A    
C22   O6    A    
C38   H20   S    
C27   H2    S    
C10   H7    S    
C6    H12   S    
C9    C11   A    
C17   N2    A    
C10   C12   A    
C18   N1    A    
C13   C15   A    
C14   C16   A    
C41   H28   S    
C6    C11   A    
Cu1   O8    S    
C26   H4    S    
Cu2   O7    S    
C42   H26   S    
C13   C20   A    
C14   C19   A    
C41   H27   S    
Cu1   O5    S    
C11   C12   A    
C2    O2    A    
C25   C27   A    
C26   C28   A    
C1    C4    S    
C14   C40   S    
C39   H19   S    
C28   C30   A    
C2    C3    S    
C4    C9    A    
C8    H9    S    
C29   C31   A    
C3    C10   A    
C7    H10   S    
C30   C32   A    
C40   H29   S    
C31   C35   A    
C17   C19   A    
C18   C20   A    
C23   C25   A    
C15   N2    A    
C16   N1    A    
Cu1   O4    S    
C22   O8    A    
Cu2   O3    S    
Cu1   N1    S    
Cu2   N2    S    
C37   C38   S    
C23   C43   S    
C44   O11   D    
Cu1   O1    S    
Cu2   O6    S    
