data_str_m2_o5_o14_f0_pcu.sym.4
_audit_creation_date              2012-10-26T21:17:41-0400
_audit_creation_method            fapswitch 2.2
_symmetry_space_group_name_H-M    P1
_symmetry_Int_Tables_number       1
_space_group_crystal_system       triclinic
_cell_length_a                    10.815372
_cell_length_b                    9.083456
_cell_length_c                    7.897715
_cell_angle_alpha                 89.999306
_cell_angle_beta                  90.993055
_cell_angle_gamma                 90.063049
_cell_volume                      775.762065128

loop_
_atom_site_label
_atom_site_type_symbol
_atom_type_description
_atom_site_fract_x
_atom_site_fract_y
_atom_site_fract_z
_atom_type_partial_charge
C1    C     C_R   0.500222 0.220478 0.499990 0.578922
C2    C     C_R   0.059755 0.446848 0.643239 0.035758
C3    C     C_R   0.126893 0.479194 0.496325 0.028304
C4    C     C_R   0.872236 0.523973 0.505045 0.037820
C5    C     C_R   0.062941 0.533969 0.355285 -0.163540
C6    C     C_R   0.934327 0.538029 0.353787 -0.144525
C7    C     C_1   0.500136 0.065491 0.500030 -0.000642
C8    C     C_1   0.500017 0.934508 0.500032 -0.003406
C9    C     C_2   0.200009 0.260443 0.789557 0.267980
C10   C     C_2   0.827090 0.712239 0.817486 0.264090
C11   C     C_R   0.499891 0.779523 0.499985 0.577177
C12   C     C_R   0.261956 0.489900 0.498889 0.572624
C13   C     C_R   0.737829 0.510400 0.501723 0.578751
C14   C     C_R   0.113261 0.386639 0.791258 0.040545
C15   C     C_R   0.916095 0.588327 0.806451 0.033252
C16   C     C_R   0.082531 0.451189 0.944160 -0.148134
C17   C     C_R   0.994896 0.564931 0.945388 -0.159131
C18   C     C_R   0.942619 0.512676 0.655032 0.024898
Cu1   Cu    Cu3+1 0.500000 0.500000 0.669080 1.058976
Cu2   Cu    Cu3+1 0.500000 0.500000 0.330920 1.025783
H1    H     H_    0.114051 0.578894 0.252114 0.135254
H2    H     H_    0.881626 0.560905 0.240209 0.136653
H3    H     H_    0.133090 0.418785 0.056868 0.119408
H4    H     H_    0.991774 0.641938 0.047959 0.099989
H5    H     H_    0.250714 0.229937 0.904063 0.108882
H6    H     H_    0.793088 0.745531 0.940217 0.104489
N1    N     N_1   0.500000 0.500000 0.076820 -0.094231
N2    N     N_1   0.500000 0.500000 0.923180 -0.097360
O1    O     O_R   0.500000 0.288390 0.642760 -0.488299
O2    O     O_2   0.795558 0.782707 0.692405 -0.504516
O3    O     O_R   0.500000 0.711610 0.642760 -0.478723
O4    O     O_R   0.500000 0.288370 0.357190 -0.501196
O5    O     O_R   0.500000 0.711630 0.357190 -0.502881
O6    O     O_R   0.319650 0.500000 0.642810 -0.502356
O7    O     O_R   0.680350 0.500000 0.642810 -0.492757
O8    O     O_R   0.319630 0.500000 0.357240 -0.519610
O9    O     O_R   0.680370 0.500000 0.357240 -0.517176
O10   O     O_2   0.213296 0.187118 0.661577 -0.511076

loop_
_geom_bond_atom_site_label_1
_geom_bond_atom_site_label_2
_ccdc_geom_bond_type
C15   C18   A    
C9    C14   S    
Cu1   N2    S    
Cu2   N1    S    
C12   O8    A    
Cu1   O3    S    
C10   O2    D    
C13   O9    A    
Cu1   Cu2   S    
C4    C18   A    
C10   H6    S    
C1    O1    A    
C2    C3    A    
C9    H5    S    
C7    C8    T    
Cu1   O1    S    
Cu1   O7    S    
Cu2   O9    S    
C8    C11   S    
Cu2   O5    S    
C9    O10   D    
C13   O7    A    
C16   H3    S    
C10   C15   S    
C5    C6    A    
C2    C14   A    
C14   C16   A    
C17   H4    S    
C2    C18   A    
C11   O3    A    
C6    H2    S    
C11   O5    A    
C5    H1    S    
C4    C6    A    
Cu2   O4    S    
C4    C13   S    
C15   C17   A    
C3    C12   S    
C3    C5    A    
C1    C7    S    
C12   O6    A    
C1    O4    A    
C16   C17   A    
N1    N2    T    
Cu1   O6    S    
Cu2   O8    S    
