data_str_m9_o3_o18_f0_sra.sym.201
_audit_creation_date              2013-03-05T16:05:18-0500
_audit_creation_method            fapswitch 2.2
_symmetry_space_group_name_H-M    P1
_symmetry_Int_Tables_number       1
_space_group_crystal_system       triclinic
_cell_length_a                    27.227324
_cell_length_b                    7.200318
_cell_length_c                    22.813166
_cell_angle_alpha                 90.031266
_cell_angle_beta                  101.491265
_cell_angle_gamma                 90.017445
_cell_volume                      4382.76582114

loop_
_atom_site_label
_atom_site_type_symbol
_atom_site_description
_atom_site_fract_x
_atom_site_fract_y
_atom_site_fract_z
_atom_type_partial_charge
O1    O     O_R   0.707300 0.594030 0.176840 -0.580249
O2    O     O_R   0.292700 0.405970 0.823160 -0.580425
O3    O     O_R   0.792700 0.094030 0.323160 -0.580546
O4    O     O_R   0.207300 0.905970 0.676840 -0.580453
O5    O     O_R   0.697330 0.262360 0.295660 -0.592507
O6    O     O_R   0.302670 0.737640 0.704340 -0.592824
O7    O     O_R   0.802670 0.762360 0.204340 -0.592260
O8    O     O_R   0.197330 0.237640 0.795660 -0.592442
C1    C     C_R   0.684819 0.432499 0.311807 0.903727
C2    C     C_R   0.315182 0.567501 0.688194 0.904074
C3    C     C_R   0.815246 0.932484 0.188289 0.903410
C4    C     C_R   0.184753 0.067516 0.811709 0.902992
O9    O     O_R   0.701410 0.264250 0.175600 -0.581787
O10   O     O_R   0.298590 0.735750 0.824400 -0.581855
O11   O     O_R   0.798590 0.764250 0.324400 -0.582103
O12   O     O_R   0.201410 0.235750 0.675600 -0.580720
O13   O     O_R   0.796800 0.094950 0.202240 -0.593043
O14   O     O_R   0.203200 0.905050 0.797760 -0.592840
O15   O     O_R   0.703200 0.594950 0.297760 -0.592745
O16   O     O_R   0.296800 0.405050 0.702240 -0.592577
C5    C     C_R   0.689754 0.432424 0.153440 0.908897
C6    C     C_R   0.310245 0.567576 0.846561 0.908560
C7    C     C_R   0.810222 0.932575 0.346560 0.908685
C8    C     C_R   0.189752 0.067447 0.653474 0.908122
O17   O     O_3   0.781290 0.427390 0.258880 -0.280460
O18   O     O_3   0.218710 0.572610 0.741120 -0.279771
O19   O     O_3   0.718710 0.927390 0.241120 -0.279721
O20   O     O_3   0.281290 0.072610 0.758880 -0.280033
V1    V     V_3+5 0.744190 0.152150 0.248350 1.165697
V2    V     V_3+5 0.255810 0.847850 0.751650 1.166090
V3    V     V_3+5 0.755810 0.652150 0.251650 1.165732
V4    V     V_3+5 0.244190 0.347850 0.748350 1.167023
C9    C     C_R   0.154738 0.062603 0.595126 -0.099682
C10   C     C_R   0.845013 0.937914 0.405088 -0.101768
C11   C     C_R   0.345131 0.563172 0.905053 -0.101719
C12   C     C_R   0.654868 0.436830 0.094948 -0.102002
C13   C     C_R   0.139442 0.120689 0.488880 -0.067302
C14   C     C_R   0.860592 0.873995 0.511014 -0.071408
C15   C     C_R   0.361099 0.632625 0.010675 -0.071893
C16   C     C_R   0.638901 0.367405 0.989324 -0.071421
C17   C     C_R   0.172335 0.108842 0.543795 -0.175232
C18   C     C_R   0.828082 0.879477 0.455718 -0.175323
C19   C     C_R   0.328404 0.624333 0.955544 -0.174978
C20   C     C_R   0.671596 0.375688 0.044455 -0.174719
C21   C     C_R   0.103519 0.025403 0.591058 -0.190285
C22   C     C_R   0.895584 0.987252 0.409886 -0.191600
C23   C     C_R   0.395733 0.514334 0.909805 -0.192421
C24   C     C_R   0.604266 0.485656 0.090197 -0.192409
C25   C     C_R   0.068577 0.038991 0.535456 0.120599
C26   C     C_R   0.930258 0.979184 0.465823 0.119590
C27   C     C_R   0.430726 0.527715 0.965399 0.119675
C28   C     C_R   0.569273 0.472290 0.034603 0.119778
C29   C     C_R   0.087527 0.091528 0.483989 -0.023671
C30   C     C_R   0.911375 0.925509 0.517226 -0.024646
C31   C     C_R   0.411960 0.582509 0.016782 -0.024207
C32   C     C_R   0.588040 0.417512 0.983218 -0.024404
C33   C     C_R   0.015754 0.003289 0.529371 0.018342
C34   C     C_R   0.982894 0.018923 0.472159 0.017826
C35   C     C_R   0.483516 0.491548 0.971442 0.017364
C36   C     C_R   0.516483 0.508459 0.028559 0.017380
C37   C     C_R   0.003641 0.074021 0.422993 -0.280699
C38   C     C_R   0.994750 0.953796 0.578883 -0.281734
C39   C     C_R   0.495523 0.557357 0.078164 -0.282676
C40   C     C_R   0.504477 0.442663 0.921837 -0.282507
C41   C     C_R   0.054560 0.112034 0.428324 0.322576
C42   C     C_R   0.943714 0.918257 0.573701 0.317948
C43   C     C_R   0.444462 0.592039 0.073117 0.318423
C44   C     C_R   0.555538 0.407995 0.926882 0.318176
H1    H     H_    0.906522 0.026020 0.368768 0.105061
H2    H     H_    0.092457 0.989980 0.632384 0.103824
H3    H     H_    0.593610 0.529316 0.131031 0.105803
H4    H     H_    0.406387 0.470653 0.868973 0.105812
H5    H     H_    0.789450 0.836710 0.452347 0.117829
H6    H     H_    0.211801 0.137125 0.546318 0.115656
H7    H     H_    0.710234 0.333120 0.047803 0.118042
H8    H     H_    0.289766 0.666911 0.952195 0.117837
H9    H     H_    0.155314 0.153214 0.450286 0.171868
H10   H     H_    0.845624 0.824186 0.548582 0.172437
H11   H     H_    0.346229 0.683809 0.048160 0.171824
H12   H     H_    0.653771 0.316235 0.951837 0.172116
H13   H     H_    0.980933 0.094092 0.379195 0.170661
H14   H     H_    0.016948 0.944989 0.623378 0.172220
H15   H     H_    0.517781 0.566094 0.122639 0.172057
H16   H     H_    0.482219 0.433940 0.877361 0.172054
C45   C     C_R   0.872246 0.117635 0.136026 -0.137468
C46   C     C_R   0.127750 0.882363 0.863968 -0.137130
C47   C     C_R   0.632451 0.617342 0.370327 -0.134103
C48   C     C_R   0.367560 0.382658 0.629686 -0.133498
H17   H     H_    0.859040 0.245129 0.152772 0.135032
H18   H     H_    0.140958 0.754870 0.847224 0.135431
H19   H     H_    0.649584 0.744515 0.358902 0.133247
H20   H     H_    0.350432 0.255482 0.641118 0.132992
C49   C     C_R   0.907878 0.130310 0.099706 -0.129938
C50   C     C_R   0.092116 0.869687 0.900285 -0.130294
C51   C     C_R   0.596728 0.629914 0.406517 -0.135269
C52   C     C_R   0.403284 0.370088 0.593498 -0.136135
H21   H     H_    0.921303 0.266499 0.090295 0.104718
H22   H     H_    0.078691 0.733498 0.909696 0.105122
H23   H     H_    0.588003 0.765583 0.422214 0.102573
H24   H     H_    0.412014 0.234417 0.577807 0.102306
C53   C     C_R   0.926439 0.969762 0.076559 0.121276
C54   C     C_R   0.073553 0.030235 0.923430 0.120548
C55   C     C_R   0.573422 0.469724 0.423283 0.121481
C56   C     C_R   0.426585 0.530282 0.576726 0.121694
C57   C     C_R   0.908657 0.795667 0.091322 -0.132251
C58   C     C_R   0.091335 0.204331 0.908666 -0.133180
C59   C     C_R   0.586907 0.296167 0.402740 -0.128969
C60   C     C_R   0.413093 0.703840 0.597261 -0.129096
H25   H     H_    0.921638 0.669071 0.073768 0.102253
H26   H     H_    0.078351 0.330927 0.926218 0.102509
H27   H     H_    0.569300 0.169965 0.414114 0.104505
H28   H     H_    0.430696 0.830046 0.585883 0.104605
C61   C     C_R   0.872991 0.782807 0.127846 -0.132700
C62   C     C_R   0.127002 0.217192 0.872145 -0.133286
C63   C     C_R   0.622781 0.283398 0.366487 -0.136404
C64   C     C_R   0.377217 0.716608 0.633512 -0.137497
H29   H     H_    0.859896 0.646528 0.137709 0.128187
H30   H     H_    0.140096 0.353472 0.862282 0.128559
H31   H     H_    0.632114 0.147459 0.351576 0.131438
H32   H     H_    0.367878 0.852548 0.648415 0.131415
C65   C     C_R   0.854085 0.943806 0.150534 -0.127929
C66   C     C_R   0.145911 0.056193 0.849460 -0.128740
C67   C     C_R   0.646128 0.443961 0.349771 -0.128676
C68   C     C_R   0.353876 0.556040 0.650234 -0.128328
C69   C     C_R   0.003337 0.855441 0.041473 -0.137027
C70   C     C_R   0.996654 0.144554 0.958515 -0.137141
C71   C     C_R   0.533719 0.351511 0.507028 -0.151616
C72   C     C_R   0.466289 0.648497 0.492981 -0.152257
H33   H     H_    0.007268 0.744119 0.073954 0.126624
H34   H     H_    0.992723 0.255876 0.926034 0.126857
H35   H     H_    0.560010 0.237051 0.514094 0.121543
H36   H     H_    0.439997 0.762955 0.485914 0.120916
C73   C     C_R   0.038787 0.870628 0.004862 -0.152461
C74   C     C_R   0.961204 0.129367 0.995126 -0.151804
C75   C     C_R   0.498694 0.366961 0.544180 -0.137987
C76   C     C_R   0.501314 0.633048 0.455830 -0.138177
H37   H     H_    0.068967 0.770336 0.010214 0.119864
H38   H     H_    0.931024 0.229660 0.989774 0.120259
H39   H     H_    0.498983 0.263610 0.578698 0.126593
H40   H     H_    0.501026 0.736400 0.421312 0.126270
C77   C     C_R   0.035940 0.015329 0.962819 0.095614
C78   C     C_R   0.964051 0.984667 0.037169 0.095406
C79   C     C_R   0.464446 0.515609 0.537666 0.095186
C80   C     C_R   0.535561 0.484399 0.462343 0.095165
N1    N     N_R   0.071839 0.176504 0.376336 0.235573
O21   O     O_R   0.056268 0.095889 0.324920 -0.367142
O22   O     O_R   0.095052 0.334991 0.377875 -0.383231
N2    N     N_R   0.925306 0.877425 0.627131 0.236543
O23   O     O_R   0.950175 0.765322 0.667016 -0.373594
O24   O     O_R   0.889336 0.976828 0.640932 -0.372953
N3    N     N_R   0.426169 0.633438 0.126594 0.236360
O25   O     O_R   0.451005 0.746563 0.166230 -0.375067
O26   O     O_R   0.390378 0.533724 0.140707 -0.374179
N4    N     N_R   0.573833 0.366629 0.873404 0.236499
O27   O     O_R   0.548998 0.253519 0.833763 -0.374464
O28   O     O_R   0.609621 0.466365 0.859297 -0.372893

loop_
_geom_bond_atom_site_label_1
_geom_bond_atom_site_label_2
_geom_bond_distance
_ccdc_geom_bond_type
O17   V3    1.755825 S    
C48   C52   1.398469 A    
O1    C5    1.328372 A    
C47   H19   1.082814 S    
O19   V1    1.755268 S    
C9    C21   1.404755 A    
O3    C7    1.328002 A    
C10   C18   1.391483 A    
C48   C68   1.409369 A    
C11   C23   1.405143 A    
C55   C80   1.494581 S    
N1    O21   1.301341 A    
C25   C33   1.440147 A    
C33   C38   1.409804 A    
C5    C12   1.476099 S    
C73   H37   1.082626 S    
C6    C11   1.476100 S    
C35   C40   1.409696 A    
C26   C30   1.424585 A    
C58   C62   1.402935 A    
C36   C39   1.409693 A    
C40   C44   1.394576 A    
C57   C61   1.402936 A    
C71   C75   1.400756 A    
C14   C18   1.389793 A    
C44   N4    1.437744 S    
C72   C76   1.400757 A    
C58   H26   1.082765 S    
O4    C8    1.328075 A    
C51   H23   1.082857 S    
C70   H34   1.082643 S    
O1    V3    1.983190 S    
O13   V1    1.981987 S    
O2    V4    1.983191 S    
O3    V1    1.983754 S    
C40   H16   1.074978 S    
C22   H1    1.076126 S    
C46   C50   1.398712 A    
C17   H6    1.083805 S    
C45   C49   1.398712 A    
C1    O15   1.336153 A    
C15   C31   1.410946 A    
C48   H20   1.082813 S    
C2    O16   1.336154 A    
C16   C32   1.410944 A    
C47   C51   1.398470 A    
O2    C6    1.328372 A    
N3    O25   1.301375 A    
C16   H12   1.081079 S    
C45   C65   1.409212 A    
C10   C22   1.404890 A    
C54   C77   1.494800 S    
C11   C19   1.391672 A    
C16   C20   1.389833 A    
N4    O28   1.301375 A    
C76   H40   1.082653 S    
C13   C29   1.411188 A    
C34   C37   1.409710 A    
O11   C7    1.326691 A    
C38   H14   1.074846 S    
O15   V3    1.982036 S    
C35   C36   1.432526 A    
O12   C8    1.326402 A    
C3    C65   1.493217 S    
C59   H27   1.082790 S    
O10   V2    1.998622 S    
C72   H36   1.082657 S    
N1    O22   1.301384 A    
C51   C55   1.405740 A    
O7    C3    1.342394 A    
O5    V1    1.992682 S    
C53   C57   1.408641 A    
C39   C43   1.394580 A    
C63   C67   1.408092 A    
C38   C42   1.394516 A    
C43   N3    1.437739 S    
C26   C34   1.440090 A    
O7    V3    1.992841 S    
N2    O23   1.301371 A    
C46   H18   1.082821 S    
C49   C53   1.405911 A    
C45   H17   1.082823 S    
O18   V4    1.755824 S    
C23   C27   1.429655 A    
C14   H10   1.081046 S    
C32   C44   1.409355 A    
C13   H9    1.080995 S    
C64   H32   1.082849 S    
C39   H15   1.074978 S    
O8    V4    1.992844 S    
C20   H7    1.083836 S    
C75   H39   1.082652 S    
O5    C1    1.342480 A    
C37   C41   1.394410 A    
C74   C78   1.408193 A    
C53   C78   1.494798 S    
C31   C43   1.409356 A    
C14   C30   1.411043 A    
C21   C25   1.429348 A    
C69   C78   1.406577 A    
O8    C4    1.342391 A    
C7    C10   1.475639 S    
C56   C79   1.494588 S    
O9    C5    1.326485 A    
C59   C63   1.402980 A    
N4    O27   1.301370 A    
C62   H30   1.082863 S    
C61   H29   1.082863 S    
O6    V2    1.992682 S    
C63   H31   1.082847 S    
C52   C56   1.405744 A    
C69   H33   1.082644 S    
O14   V2    1.981981 S    
C12   C20   1.391671 A    
C27   C35   1.440168 A    
O9    V1    1.998620 S    
C24   H3    1.076195 S    
C41   N1    1.437440 S    
C49   H21   1.082855 S    
C56   C60   1.408659 A    
C29   C41   1.409341 A    
O16   V4    1.982039 S    
C69   C73   1.400853 A    
C19   H8    1.083838 S    
C57   H25   1.082765 S    
C3    O13   1.336276 A    
C18   H5    1.083838 S    
C64   C68   1.408092 A    
C21   H2    1.076082 S    
C42   N2    1.437733 S    
N2    O24   1.301382 A    
C74   H38   1.082628 S    
C15   C19   1.389831 A    
O11   V3    1.997603 S    
C30   C42   1.409260 A    
O12   V4    1.997604 S    
C61   C65   1.408048 A    
C22   C26   1.429409 A    
C70   C77   1.406579 A    
C2    C68   1.493371 S    
C8    C9    1.475213 S    
C9    C17   1.391250 A    
O10   C6    1.326485 A    
O20   V2    1.755269 S    
C76   C80   1.408091 A    
C37   H13   1.074982 S    
C47   C67   1.409370 A    
C60   C64   1.402978 A    
C33   C34   1.432345 A    
C25   C29   1.424663 A    
C52   H24   1.082856 S    
C75   C79   1.408096 A    
C1    C67   1.493367 S    
C12   C24   1.405144 A    
C27   C31   1.424452 A    
C71   C80   1.406647 A    
N3    O26   1.301377 A    
C13   C17   1.389953 A    
C46   C66   1.409212 A    
C72   C79   1.406651 A    
C71   H35   1.082659 S    
C23   H4    1.076195 S    
O6    C2    1.342478 A    
C62   C66   1.408048 A    
C60   H28   1.082790 S    
C24   C28   1.429654 A    
C4    C66   1.493215 S    
C70   C74   1.400854 A    
C28   C36   1.440168 A    
C54   C58   1.408643 A    
C4    O14   1.336276 A    
C50   H22   1.082854 S    
C55   C59   1.408654 A    
C73   C77   1.408192 A    
O4    V2    1.983754 S    
C28   C32   1.424456 A    
C50   C54   1.405912 A    
C15   H11   1.081078 S    
