data_str_m9_o4_o16_f0_sra.sym.88
_audit_creation_date              2012-12-11T17:00:25-0500
_audit_creation_method            fapswitch 2.2
_symmetry_space_group_name_H-M    P1
_symmetry_Int_Tables_number       1
_space_group_crystal_system       triclinic
_cell_length_a                    6.961855
_cell_length_b                    13.573082
_cell_length_c                    20.246363
_cell_angle_alpha                 103.001121
_cell_angle_beta                  90.699469
_cell_angle_gamma                 89.872645
_cell_volume                      1863.97468716

loop_
_atom_site_label
_atom_site_type_symbol
_atom_type_description
_atom_site_fract_x
_atom_site_fract_y
_atom_site_fract_z
_atom_type_partial_charge
O1    O     O_R   0.506770 0.599700 0.449550 -0.538818
O2    O     O_R   0.179980 0.595740 0.587960 -0.546137
O3    O     O_R   0.004580 0.400300 0.550450 -0.531873
C1    C     C_R   0.348460 0.616638 0.615441 0.693913
O4    O     O_R   0.177380 0.611700 0.452380 -0.541024
O5    O     O_R   0.001970 0.416370 0.413900 -0.538302
C2    C     C_R   0.344450 0.638499 0.435730 0.695705
O6    O     O_R   0.509390 0.583630 0.586100 -0.537908
O7    O     O_3   0.337530 0.435890 0.487530 -0.370014
V1    V     V_3+5 0.064660 0.511890 0.502310 1.418614
O8    O     O_R   0.671950 0.404260 0.412040 -0.546049
C3    C     C_R   0.840087 0.383219 0.384595 0.683374
O9    O     O_R   0.674540 0.388300 0.547620 -0.546653
C4    C     C_R   0.844620 0.361198 0.563926 0.722815
V2    V     V_3+5 0.564030 0.488110 0.497690 1.403357
O10   O     O_3   0.841030 0.564110 0.512470 -0.371564
C5    C     C_R   0.944392 0.112425 0.611546 -0.225167
H1    H     H_    0.998624 0.992048 0.696384 0.123308
H2    H     H_    0.988679 0.036228 0.587590 0.129821
C6    C     C_R   0.857985 0.281441 0.601891 -0.134714
C7    C     C_R   0.800488 0.313006 0.928370 -0.166499
C8    C     C_R   0.771725 0.387195 0.891920 -0.121030
C9    C     C_R   0.793128 0.364771 0.821780 -0.160313
C10   C     C_R   0.845948 0.266466 0.786004 0.095958
C11   C     C_R   0.879699 0.191325 0.824063 0.066782
C12   C     C_R   0.865437 0.240022 0.713878 0.077773
C13   C     C_R   0.921383 0.140161 0.681979 0.074093
C14   C     C_R   0.955584 0.068382 0.720473 -0.183543
C15   C     C_R   0.934938 0.093350 0.790296 -0.199795
C16   C     C_R   0.833245 0.309362 0.672208 -0.287187
C17   C     C_R   0.911042 0.181220 0.570815 0.416100
C18   C     C_R   0.854727 0.215395 0.895280 -0.079335
H3    H     H_    0.779087 0.331573 0.982699 0.100085
H4    H     H_    0.730236 0.462665 0.918171 0.115288
H5    H     H_    0.963681 0.034959 0.817703 0.117895
C19   C     C_R   0.713773 0.178387 0.228211 0.115351
C20   C     C_R   0.868095 0.181711 0.184969 -0.114666
C21   C     C_R   0.022039 0.246529 0.211116 -0.187142
H6    H     H_    0.143951 0.251976 0.179670 0.136414
C22   C     C_R   0.013943 0.310563 0.276309 -0.171621
H7    H     H_    0.130556 0.362978 0.293200 0.129205
C23   C     C_R   0.851158 0.312208 0.317263 -0.110553
C24   C     C_R   0.705012 0.242360 0.292600 0.089941
C25   C     C_3   0.495753 0.260741 0.284913 -0.415170
C26   C     C_3   0.505116 0.190381 0.215246 -0.399742
H8    H     H_    0.465280 0.340557 0.283174 0.165311
H9    H     H_    0.407581 0.230181 0.321022 0.178386
H10   H     H_    0.478564 0.229052 0.173073 0.167875
H11   H     H_    0.424468 0.118788 0.211549 0.169490
C27   C     C_R   0.502683 0.754452 0.704600 0.097322
C28   C     C_R   0.351918 0.686536 0.683236 -0.112764
C29   C     C_R   0.194621 0.691180 0.727187 -0.170805
C30   C     C_R   0.196205 0.756495 0.792062 -0.188877
H12   H     H_    0.078348 0.753876 0.825834 0.131312
C31   C     C_R   0.355567 0.818710 0.815022 -0.113572
C32   C     C_R   0.504833 0.818539 0.769020 0.117409
C33   C     C_3   0.714527 0.802801 0.777905 -0.406506
C34   C     C_3   0.711941 0.733338 0.707744 -0.408546
H13   H     H_    0.744800 0.762627 0.819053 0.168645
H14   H     H_    0.798591 0.873033 0.780643 0.170086
H15   H     H_    0.740756 0.652863 0.708100 0.164233
H16   H     H_    0.794025 0.763679 0.669929 0.174472
C35   C     C_R   0.221048 0.878689 0.384414 -0.163180
H17   H     H_    0.166832 0.998542 0.299227 0.129613
H18   H     H_    0.151649 0.949424 0.406950 0.134336
C36   C     C_R   0.342549 0.716824 0.396603 -0.039910
C37   C     C_R   0.432144 0.687025 0.071993 -0.162308
C38   C     C_R   0.460367 0.613165 0.108709 -0.120447
C39   C     C_R   0.430801 0.635069 0.178382 -0.159634
C40   C     C_R   0.368720 0.732169 0.213176 0.078586
C41   C     C_R   0.331039 0.806235 0.174554 0.070668
C42   C     C_R   0.341628 0.758005 0.284845 0.074037
C43   C     C_R   0.263526 0.854224 0.315186 0.144128
C44   C     C_R   0.224926 0.924784 0.276177 -0.217209
C45   C     C_R   0.261206 0.901965 0.207228 -0.208221
C46   C     C_R   0.385549 0.691138 0.327512 -0.221068
C47   C     C_R   0.258880 0.810267 0.424654 -0.166268
C48   C     C_R   0.367535 0.783361 0.104037 -0.081471
H19   H     H_    0.445516 0.617092 0.308385 0.096686
H20   H     H_    0.463226 0.669407 0.018287 0.101547
H21   H     H_    0.456237 0.573939 0.203283 0.103766
H22   H     H_    0.509022 0.538654 0.083146 0.114970
H23   H     H_    0.230266 0.959769 0.179578 0.127739
O11   O     O_R   0.203450 0.916320 0.913910 -0.542296
O12   O     O_R   0.535520 0.888300 0.047620 -0.538481
O13   O     O_R   0.710860 0.083650 0.086100 -0.537396
C49   C     C_R   0.368275 0.862019 0.064755 0.688499
O14   O     O_R   0.532860 0.904250 0.912040 -0.541996
O15   O     O_R   0.708190 0.099710 0.949550 -0.536359
C50   C     C_R   0.364062 0.883233 0.884609 0.696770
O16   O     O_R   0.206120 0.900260 0.050460 -0.540376
O17   O     O_3   0.375280 0.064080 0.012470 -0.371146
V3    V     V_3+5 0.648180 0.988110 0.997690 1.414969
O18   O     O_R   0.038220 0.111740 0.952370 -0.540587
C51   C     C_R   0.868389 0.138011 0.935396 0.689392
O19   O     O_R   0.040880 0.095790 0.087940 -0.547210
C52   C     C_R   0.873042 0.116980 0.115324 0.692844
V4    V     V_3+5 0.148800 0.011950 0.002300 1.403208
O20   O     O_3   0.871820 0.935920 0.987530 -0.371260
O21   O     O_3   0.945434 0.148080 0.501899 -0.591352
C53   C     C_3   0.781940 0.155359 0.460671 0.051336
H24   H     H_    0.816181 0.113393 0.408421 0.141825
H25   H     H_    0.758291 0.234027 0.456355 0.123118
C54   C     C_3   0.596600 0.109290 0.481838 -0.343352
H26   H     H_    0.617081 0.026945 0.477902 0.199833
H27   H     H_    0.558998 0.145393 0.534922 0.196126
C55   C     C_3   0.428189 0.126016 0.436854 -0.792323
H28   H     H_    0.410121 0.207910 0.438657 0.239118
H29   H     H_    0.294702 0.098684 0.455863 0.258498
H30   H     H_    0.451425 0.084458 0.383693 0.222076
H31   H     H_    0.074734 0.640170 0.712726 0.129400
H32   H     H_    0.217692 0.828983 0.477455 0.107962
H33   H     H_    0.793413 0.386824 0.692880 0.113953
H34   H     H_    0.766697 0.426228 0.797295 0.104403

loop_
_geom_bond_atom_site_label_1
_geom_bond_atom_site_label_2
_ccdc_geom_bond_type
C48   C49   S    
C34   H16   S    
C21   C22   A    
C31   C32   A    
C35   H18   S    
C53   H24   S    
C49   O16   A    
C43   C44   A    
C46   H19   S    
C42   C46   A    
C20   C52   S    
O17   V4    S    
C6    C16   A    
C30   H12   S    
C29   C30   A    
C12   C13   A    
C14   C15   A    
C10   C12   A    
C31   C50   S    
O5    C3    A    
C21   H6    S    
C33   H13   S    
C7    H3    S    
O18   V4    S    
V2    O10   S    
C32   C33   S    
O13   C52   A    
O17   V3    S    
C3    C23   S    
O12   V3    S    
C38   C39   A    
O19   V4    S    
C9    C10   A    
C40   C41   A    
O1    V2    S    
O7    V1    S    
V3    O20   S    
C25   H9    S    
C1    O6    A    
C34   H15   S    
O12   C49   A    
C53   H25   S    
C7    C8    A    
C55   H29   S    
O18   C51   A    
C37   C48   A    
O11   C50   A    
C54   H27   S    
C54   H26   S    
C25   H8    S    
C30   C31   A    
C11   C15   A    
C8    H4    S    
C7    C18   A    
C44   C45   A    
C1    C28   S    
C37   C38   A    
C27   C34   S    
C4    C6    S    
H1    C14   S    
C10   C11   A    
O4    C2    A    
C33   H14   S    
C35   C43   A    
C29   H31   S    
C27   C32   A    
C28   C29   A    
C5    C13   A    
O15   C51   A    
C47   H32   S    
O2    C1    A    
C24   C25   S    
C20   C21   A    
O13   V3    S    
C26   H11   S    
C55   H28   S    
C36   C46   A    
O19   C52   A    
C27   C28   A    
C19   C26   S    
C17   O21   S    
O3    C4    A    
C22   H7    S    
O14   C50   A    
C12   C16   A    
C53   C54   S    
O8    V2    S    
O9    V2    S    
C5    C17   A    
C55   H30   S    
C23   C24   A    
O2    V1    S    
C25   C26   S    
C35   C47   A    
C26   H10   S    
C36   C47   A    
O14   V3    S    
C19   C20   A    
O1    C2    A    
C37   H20   S    
C42   C43   A    
O5    V1    S    
O8    C3    A    
O6    V2    S    
C15   H5    S    
C38   H22   S    
O7    V2    S    
O11   V4    S    
O4    V1    S    
O3    V1    S    
V1    O10   S    
C9    H34   S    
C41   C45   A    
C45   H23   S    
C33   C34   S    
C11   C18   A    
C22   C23   A    
O21   C53   S    
C5    H2    S    
C54   C55   S    
O16   V4    S    
O15   V3    S    
C39   C40   A    
C39   H21   S    
C18   C51   S    
V4    O20   S    
C13   C14   A    
H17   C44   S    
C8    C9    A    
C19   C24   A    
C40   C42   A    
O9    C4    A    
C6    C17   A    
C41   C48   A    
C2    C36   S    
C16   H33   S    
