data_str_m4_o19_o22_f0_acs.sym.151
_audit_creation_date              2012-12-11T14:38:15-0500
_audit_creation_method            fapswitch 2.2
_symmetry_space_group_name_H-M    P1
_symmetry_Int_Tables_number       1
_space_group_crystal_system       triclinic
_cell_length_a                    19.608076
_cell_length_b                    11.138932
_cell_length_c                    19.600723
_cell_angle_alpha                 90.300353
_cell_angle_beta                  95.58758
_cell_angle_gamma                 90.963701
_cell_volume                      4260.00742483

loop_
_atom_site_label
_atom_site_type_symbol
_atom_type_description
_atom_site_fract_x
_atom_site_fract_y
_atom_site_fract_z
_atom_type_partial_charge
C1    C     C_R   0.707315 0.998828 0.366189 0.540685
C2    C     C_R   0.291338 0.993444 0.633950 0.551651
C3    C     C_R   0.207315 0.498828 0.366188 0.540687
C4    C     C_R   0.791336 0.493441 0.633950 0.551642
C5    C     C_3   0.705025 0.523208 0.450970 0.086441
C6    C     C_3   0.308613 0.503220 0.545286 0.123822
C7    C     C_3   0.205021 0.023204 0.450971 0.086436
C8    C     C_3   0.808613 0.003223 0.545288 0.123817
C9    C     C_3   0.838091 0.504824 0.522828 -0.215254
C10   C     C_3   0.165246 0.520243 0.481317 -0.214768
C11   C     C_3   0.338091 0.004834 0.522827 -0.215258
C12   C     C_3   0.665245 0.020238 0.481317 -0.214766
C13   C     C_3   0.766393 0.327737 0.549972 -0.252652
C14   C     C_3   0.223945 0.336238 0.447727 -0.250113
C15   C     C_3   0.266401 0.827740 0.549972 -0.252653
C16   C     C_3   0.723951 0.836239 0.447727 -0.250113
C17   C     C_3   0.776285 0.463454 0.561030 -0.006746
C18   C     C_3   0.222985 0.471481 0.439332 -0.022468
C19   C     C_3   0.276287 0.963458 0.561030 -0.006748
C20   C     C_3   0.722986 0.971482 0.439332 -0.022468
C21   C     C_3   0.750914 0.415890 0.430037 0.057190
C22   C     C_3   0.248545 0.422471 0.570369 0.043298
C23   C     C_3   0.250915 0.915892 0.430037 0.057187
C24   C     C_3   0.748545 0.922471 0.570369 0.043298
C25   C     C_3   0.827871 0.462558 0.447455 -0.052696
C26   C     C_3   0.183545 0.504139 0.559670 -0.070587
C27   C     C_3   0.327870 0.962572 0.447452 -0.052695
C28   C     C_3   0.683544 0.004137 0.559670 -0.070587
C29   C     C_3   0.733979 0.308550 0.476519 -0.251917
C30   C     C_3   0.234760 0.310932 0.523118 -0.237495
C31   C     C_3   0.233987 0.808550 0.476519 -0.251923
C32   C     C_3   0.734764 0.810932 0.523117 -0.237495
C33   C     C_3   0.416581 0.247714 0.977730 -0.318125
C34   C     C_3   0.445434 0.257964 0.053377 -0.297197
C35   C     C_3   0.916581 0.747714 0.977730 -0.318125
C36   C     C_3   0.945434 0.757964 0.053377 -0.297198
C37   C     C_3   0.459330 0.036936 0.966724 0.150066
C38   C     C_3   0.564616 0.210832 0.023030 0.128749
C39   C     C_3   0.959330 0.536935 0.966724 0.150067
C40   C     C_3   0.064616 0.710832 0.023030 0.128748
C41   C     C_3   0.536412 0.223784 0.948293 -0.165055
C42   C     C_3   0.476701 0.042885 0.045864 -0.181082
C43   C     C_3   0.036413 0.723783 0.948293 -0.165057
C44   C     C_3   0.976700 0.542885 0.045864 -0.181082
C45   C     C_R   0.536233 0.179874 0.338942 0.522147
C46   C     C_R   0.467053 0.179797 0.663506 0.562070
C47   C     C_R   0.036233 0.679874 0.338942 0.522149
C48   C     C_R   0.967052 0.679797 0.663506 0.562069
C49   C     C_3   0.463423 0.169638 0.936881 -0.008119
C50   C     C_3   0.505621 0.169861 0.067653 0.001280
C51   C     C_3   0.963423 0.669638 0.936881 -0.008119
C52   C     C_3   0.005621 0.669861 0.067653 0.001281
C53   C     C_1   0.763490 0.434227 0.906526 0.017069
C54   C     C_1   0.246482 0.404427 0.102935 0.037013
C55   C     C_1   0.263490 0.934227 0.906526 0.017078
C56   C     C_1   0.746482 0.904427 0.102935 0.037014
C57   C     C_1   0.752569 0.418939 0.038200 -0.021650
C58   C     C_1   0.263956 0.360775 0.974522 0.028613
C59   C     C_1   0.252569 0.918939 0.038200 -0.021648
C60   C     C_1   0.763956 0.860775 0.974522 0.028611
C61   C     C_1   0.756990 0.426470 0.966882 -0.011874
C62   C     C_1   0.257458 0.380443 0.044913 0.027538
C63   C     C_1   0.256990 0.926469 0.966882 -0.011871
C64   C     C_1   0.757458 0.880444 0.044913 0.027536
C65   C     C_1   0.748000 0.403377 0.098410 0.008268
C66   C     C_1   0.268890 0.342565 0.914411 0.024907
C67   C     C_1   0.248000 0.903376 0.098410 0.008268
C68   C     C_1   0.768891 0.842565 0.914411 0.024903
C69   C     C_R   0.740386 0.368191 0.359063 0.530816
C70   C     C_R   0.260042 0.368828 0.640605 0.557191
C71   C     C_R   0.240386 0.868191 0.359063 0.530814
C72   C     C_R   0.760042 0.868828 0.640605 0.557189
C73   C     C_R   0.724733 0.947372 0.166524 0.594092
C74   C     C_R   0.278041 0.955946 0.837355 0.537950
C75   C     C_R   0.224733 0.447372 0.166524 0.594090
C76   C     C_R   0.778041 0.455946 0.837355 0.537940
C77   C     C_R   0.532275 0.178220 0.140816 0.561399
C78   C     C_R   0.439733 0.180810 0.863389 0.505167
C79   C     C_R   0.032275 0.678220 0.140816 0.561400
C80   C     C_R   0.939733 0.680809 0.863389 0.505160
C81   C     C_R   0.738244 0.364092 0.166456 0.561339
C82   C     C_R   0.276164 0.312918 0.844049 0.527652
C83   C     C_R   0.238244 0.864092 0.166456 0.561336
C84   C     C_R   0.776164 0.812917 0.844049 0.527654
C85   C     C_1   0.493850 0.169166 0.598332 0.068870
C86   C     C_1   0.517481 0.171157 0.407546 0.019668
C87   C     C_1   0.993850 0.669166 0.598331 0.068874
C88   C     C_1   0.017480 0.671157 0.407546 0.019672
C89   C     C_1   0.510435 0.166090 0.467828 -0.004760
C90   C     C_1   0.504894 0.164672 0.538983 0.035221
C91   C     C_1   0.010434 0.666088 0.467827 -0.004754
C92   C     C_1   0.004893 0.664671 0.538983 0.035228
C93   C     C_3   0.708398 0.521205 0.530093 -0.227963
C94   C     C_3   0.297301 0.513333 0.467171 -0.195834
C95   C     C_3   0.208398 0.021201 0.530094 -0.227964
C96   C     C_3   0.797301 0.013340 0.467172 -0.195840
Cr1   Cr    Cr6+3 0.765780 0.160710 0.267420 1.039697
Cr2   Cr    Cr6+3 0.234220 0.160710 0.732580 1.035493
Cr3   Cr    Cr6+3 0.265780 0.660710 0.267420 1.039699
Cr4   Cr    Cr6+3 0.734220 0.660710 0.732580 1.035479
Cr5   Cr    Cr6+3 0.612200 0.009560 0.248850 1.083203
Cr6   Cr    Cr6+3 0.387800 0.009560 0.751150 1.086523
Cr7   Cr    Cr6+3 0.112200 0.509560 0.248850 1.083195
Cr8   Cr    Cr6+3 0.887800 0.509560 0.751150 1.086599
Cr9   Cr    Cr6+3 0.616030 0.323720 0.248510 1.130664
Cr10  Cr    Cr6+3 0.383970 0.323720 0.751490 1.107451
Cr11  Cr    Cr6+3 0.116030 0.823720 0.248510 1.130659
Cr12  Cr    Cr6+3 0.883970 0.823720 0.751490 1.107432
H1    H     H_    0.699937 0.605570 0.553524 0.123425
H2    H     H_    0.316712 0.599702 0.449830 0.131737
H3    H     H_    0.199934 0.105566 0.553524 0.123419
H4    H     H_    0.816708 0.099709 0.449833 0.131725
H5    H     H_    0.747478 0.223765 0.456300 0.112330
H6    H     H_    0.184527 0.275232 0.534294 0.157590
H7    H     H_    0.247494 0.723769 0.456303 0.112340
H8    H     H_    0.684530 0.775234 0.534292 0.157598
H9    H     H_    0.886409 0.468233 0.548688 0.181652
H10   H     H_    0.116714 0.470187 0.464874 0.180481
H11   H     H_    0.386410 0.968242 0.548685 0.181644
H12   H     H_    0.616715 0.970177 0.464874 0.180491
H13   H     H_    0.365142 0.203804 0.975075 0.089146
H14   H     H_    0.463223 0.352189 0.064245 0.159741
H15   H     H_    0.865142 0.703805 0.975075 0.089148
H16   H     H_    0.963223 0.852189 0.064245 0.159737
H17   H     H_    0.411125 0.339486 0.955863 0.158566
H18   H     H_    0.404131 0.238050 0.087038 0.124991
H19   H     H_    0.911126 0.839487 0.955863 0.158558
H20   H     H_    0.904131 0.738051 0.087038 0.124991
H21   H     H_    0.404953 0.006253 0.957398 0.105766
H22   H     H_    0.583464 0.301511 0.041240 0.131055
H23   H     H_    0.904953 0.506253 0.957398 0.105759
H24   H     H_    0.083463 0.801511 0.041240 0.131054
H25   H     H_    0.428926 0.025590 0.070947 0.066652
H26   H     H_    0.535624 0.321580 0.936456 0.116806
H27   H     H_    0.928926 0.525591 0.070947 0.066651
H28   H     H_    0.035625 0.821578 0.936455 0.116799
H29   H     H_    0.569146 0.184627 0.911318 0.226958
H30   H     H_    0.511093 0.971110 0.065663 0.228859
H31   H     H_    0.069145 0.684623 0.911319 0.226956
H32   H     H_    0.011093 0.471110 0.065663 0.228864
H33   H     H_    0.664404 0.467214 0.546236 0.168007
H34   H     H_    0.333101 0.453273 0.442934 0.180137
H35   H     H_    0.164406 0.967204 0.546239 0.168012
H36   H     H_    0.833102 0.953287 0.442935 0.180133
H37   H     H_    0.729324 0.606501 0.434863 0.089263
H38   H     H_    0.306080 0.592982 0.568510 0.092893
H39   H     H_    0.229316 0.106500 0.434862 0.089265
H40   H     H_    0.806079 0.092983 0.568513 0.092894
H41   H     H_    0.345205 0.103329 0.525219 0.106896
H42   H     H_    0.653531 0.114029 0.469229 0.083153
H43   H     H_    0.845205 0.603319 0.525218 0.106882
H44   H     H_    0.153535 0.614036 0.469229 0.083156
H45   H     H_    0.336383 0.041918 0.414667 0.122135
H46   H     H_    0.696619 0.094069 0.582243 0.133720
H47   H     H_    0.836390 0.541899 0.414669 0.122135
H48   H     H_    0.196621 0.594071 0.582244 0.133720
H49   H     H_    0.816882 0.283766 0.557488 0.166401
H50   H     H_    0.174810 0.293309 0.426127 0.219211
H51   H     H_    0.316891 0.783775 0.557487 0.166399
H52   H     H_    0.674819 0.793304 0.426124 0.219224
H53   H     H_    0.732391 0.289359 0.586781 0.126792
H54   H     H_    0.265228 0.295744 0.420300 0.124315
H55   H     H_    0.232401 0.789358 0.586781 0.126796
H56   H     H_    0.765237 0.795750 0.420302 0.124317
H57   H     H_    0.677642 0.301628 0.477395 0.160084
H58   H     H_    0.276023 0.245779 0.533005 0.142156
H59   H     H_    0.177651 0.801622 0.477396 0.160085
H60   H     H_    0.776027 0.745780 0.533006 0.142157
O1    O     O_R   0.783100 0.287550 0.345460 -0.554241
O2    O     O_R   0.216900 0.287550 0.654540 -0.546297
O3    O     O_R   0.283100 0.787550 0.345460 -0.554241
O4    O     O_R   0.716900 0.787550 0.654540 -0.546300
O5    O     O_R   0.554710 0.081900 0.170950 -0.476729
O6    O     O_R   0.445290 0.081900 0.829050 -0.426914
O7    O     O_R   0.054710 0.581900 0.170950 -0.476728
O8    O     O_R   0.945290 0.581900 0.829050 -0.426860
O9    O     O_R   0.545650 0.284910 0.163740 -0.521165
O10   O     O_R   0.454350 0.284910 0.836260 -0.528217
O11   O     O_R   0.045650 0.784910 0.163740 -0.521165
O12   O     O_R   0.954350 0.784910 0.836260 -0.528229
O13   O     O_R   0.677950 0.374280 0.185410 -0.468469
O14   O     O_R   0.322050 0.374280 0.814590 -0.496499
O15   O     O_R   0.177950 0.874280 0.185410 -0.468471
O16   O     O_R   0.822050 0.874280 0.814590 -0.496509
O17   O     O_3   0.664670 0.164660 0.254930 -0.270899
O18   O     O_3   0.335330 0.164660 0.745070 -0.338833
O19   O     O_3   0.164670 0.664660 0.254930 -0.270896
O20   O     O_3   0.835330 0.664660 0.745070 -0.338836
O21   O     O_R   0.760020 0.037400 0.337700 -0.515875
O22   O     O_R   0.239980 0.037400 0.662300 -0.505644
O23   O     O_R   0.260020 0.537400 0.337700 -0.515875
O24   O     O_R   0.739980 0.537400 0.662300 -0.505647
O25   O     O_R   0.666600 0.921990 0.332020 -0.504070
O26   O     O_R   0.333400 0.921990 0.667980 -0.500847
O27   O     O_R   0.166600 0.421990 0.332020 -0.504078
O28   O     O_R   0.833400 0.421990 0.667980 -0.500838
O29   O     O_R   0.557260 0.082670 0.312540 -0.533435
O30   O     O_R   0.442740 0.082670 0.687460 -0.519213
O31   O     O_R   0.057260 0.582670 0.312540 -0.533440
O32   O     O_R   0.942740 0.582670 0.687460 -0.519194
O33   O     O_R   0.548410 0.285740 0.316480 -0.433698
O34   O     O_R   0.451590 0.285740 0.683520 -0.408632
O35   O     O_R   0.048410 0.785740 0.316480 -0.433693
O36   O     O_R   0.951590 0.785740 0.683520 -0.408637
O37   O     O_R   0.680500 0.375040 0.327000 -0.431501
O38   O     O_R   0.319500 0.375040 0.673000 -0.420376
O39   O     O_R   0.180500 0.875040 0.327000 -0.431503
O40   O     O_R   0.819500 0.875040 0.673000 -0.420379
O41   O     O_R   0.780350 0.286720 0.192720 -0.507392
O42   O     O_R   0.219650 0.286720 0.807280 -0.470269
O43   O     O_R   0.280350 0.786720 0.192720 -0.507392
O44   O     O_R   0.719650 0.786720 0.807280 -0.470280
O45   O     O_R   0.757470 0.036630 0.196110 -0.485990
O46   O     O_R   0.242530 0.036630 0.803890 -0.514217
O47   O     O_R   0.257470 0.536630 0.196110 -0.485990
O48   O     O_R   0.742530 0.536630 0.803890 -0.514214
O49   O     O_R   0.663840 0.921160 0.179280 -0.453715
O50   O     O_R   0.336160 0.921160 0.820720 -0.447655
O51   O     O_R   0.163840 0.421160 0.179280 -0.453716
O52   O     O_R   0.836160 0.421160 0.820720 -0.447654
N1    N     N_3   0.881378 0.375629 0.436271 -0.602483
H61   H     H_    0.867419 0.289092 0.450163 0.277722
H62   H     H_    0.892200 0.376637 0.385093 0.266358
N2    N     N_3   0.123275 0.461923 0.592431 -0.636187
H63   H     H_    0.107655 0.375285 0.576869 0.268151
H64   H     H_    0.134093 0.463913 0.645710 0.261893
N3    N     N_3   0.381382 0.875654 0.436262 -0.602482
H65   H     H_    0.367432 0.789112 0.450163 0.277721
H66   H     H_    0.392193 0.876660 0.385079 0.266359
N4    N     N_3   0.623275 0.961918 0.592430 -0.636191
H67   H     H_    0.607657 0.875279 0.576870 0.268151
H68   H     H_    0.634092 0.963912 0.645709 0.261885
S1    S     S_3+6 0.639832 0.120030 0.028057 0.004464
O53   O     O_2   0.622886 0.989421 0.033646 -0.217238
O54   O     O_2   0.678897 0.139117 0.966468 -0.303329
O55   O     O_3   0.690176 0.161926 0.097234 -0.519105
H69   H     H_    0.737259 0.155906 0.083297 0.356418
S2    S     S_3+6 0.507220 0.918638 0.927953 0.060280
O56   O     O_2   0.569097 0.968321 0.897541 -0.218650
O57   O     O_2   0.529529 0.824964 0.980029 -0.265206
O58   O     O_3   0.457329 0.847602 0.865448 -0.477387
H70   H     H_    0.487483 0.788533 0.846023 0.358173
S3    S     S_3+6 0.139832 0.620030 0.028058 0.004461
O59   O     O_2   0.122886 0.489421 0.033645 -0.217236
O60   O     O_2   0.178898 0.639120 0.966469 -0.303329
O61   O     O_3   0.190174 0.661925 0.097236 -0.519102
H71   H     H_    0.237258 0.655904 0.083299 0.356420
S4    S     S_3+6 0.007220 0.418637 0.927954 0.060265
O62   O     O_2   0.069099 0.468315 0.897543 -0.218553
O63   O     O_2   0.029525 0.324963 0.980032 -0.265310
O64   O     O_3   0.957330 0.347605 0.865445 -0.477455
H72   H     H_    0.987440 0.288381 0.846114 0.358213
S5    S     S_3+6 0.616165 0.534952 0.417767 -0.009094
O65   O     O_2   0.609834 0.565577 0.342866 -0.229079
O66   O     O_2   0.577743 0.420350 0.428682 -0.307673
O67   O     O_3   0.580028 0.646289 0.459274 -0.524389
H73   H     H_    0.574348 0.614747 0.505538 0.363419
S6    S     S_3+6 0.395816 0.463194 0.564725 -0.009559
O68   O     O_2   0.422139 0.501078 0.636276 -0.218167
O69   O     O_2   0.398157 0.330356 0.555254 -0.364910
O70   O     O_3   0.445067 0.531438 0.510247 -0.517723
H74   H     H_    0.458521 0.467161 0.479416 0.386317
S7    S     S_3+6 0.116159 0.034935 0.417772 -0.009090
O71   O     O_2   0.109822 0.065554 0.342870 -0.229073
O72   O     O_2   0.077743 0.920330 0.428693 -0.307678
O73   O     O_3   0.080021 0.146272 0.459278 -0.524368
H75   H     H_    0.074354 0.114739 0.505548 0.363409
S8    S     S_3+6 0.895816 0.963199 0.564726 -0.009550
O74   O     O_2   0.922138 0.001080 0.636277 -0.218162
O75   O     O_2   0.898159 0.830361 0.555253 -0.364905
O76   O     O_3   0.945067 0.031448 0.510250 -0.517699
H76   H     H_    0.958515 0.967175 0.479413 0.386317

loop_
_geom_bond_atom_site_label_1
_geom_bond_atom_site_label_2
_ccdc_geom_bond_type
C27   H45   S    
S7    O73   S    
C39   C51   S    
C58   C62   S    
C5    S5    S    
C28   N4    S    
C16   H52   S    
C9    H9    S    
C14   C18   S    
Cr5   O5    S    
C35   C36   S    
C8    C96   S    
C81   O13   A    
Cr12  O40   S    
C73   O45   A    
N2    H63   S    
C38   S1    S    
Cr3   O19   S    
C82   O14   A    
C9    C25   S    
S7    O71   D    
C72   O40   A    
Cr3   O43   S    
C16   H56   S    
C67   C83   S    
C96   H4    S    
S2    O58   S    
C11   C19   S    
Cr6   O18   S    
Cr1   O41   S    
C12   C20   S    
C48   O32   A    
C42   H25   S    
C83   O15   A    
C80   O12   A    
C13   C29   S    
C16   C20   S    
Cr4   O20   S    
C76   O52   A    
Cr6   O6    S    
Cr6   O30   S    
S5    O65   D    
C6    H38   S    
Cr5   O29   S    
C46   O30   A    
C96   H36   S    
C45   O29   A    
O76   H76   S    
C6    C22   S    
Cr11  O19   S    
Cr3   O23   S    
Cr2   O2    S    
Cr1   O1    S    
C49   C78   S    
Cr12  O12   S    
C3    C18   S    
S7    O72   D    
O58   H70   S    
C29   H57   S    
C37   C42   S    
C4    O24   A    
C51   C80   S    
Cr10  O14   S    
C21   C25   S    
C59   C67   T    
C15   C19   S    
C55   C74   S    
C26   H48   S    
C58   C66   T    
C40   C43   S    
Cr8   O52   S    
C57   C61   S    
Cr5   O25   S    
C78   O10   A    
S3    O60   D    
C55   C63   T    
Cr10  O34   S    
C56   C64   T    
C7    S7    S    
C84   O16   A    
C11   C27   S    
C52   C79   S    
C93   H1    S    
S1    O53   D    
O61   H71   S    
Cr11  O39   S    
C36   C52   S    
S4    O64   S    
C8    S8    S    
Cr10  O10   S    
C46   C85   S    
C10   H44   S    
C69   O37   A    
C44   C52   S    
C44   H27   S    
C71   O39   A    
Cr2   O46   S    
C11   H11   S    
C44   H32   S    
N1    H62   S    
C12   H12   S    
C87   C92   T    
C74   O46   A    
C28   H46   S    
Cr8   O32   S    
C47   O31   A    
Cr4   O24   S    
Cr7   O27   S    
C14   C30   S    
Cr5   O17   S    
Cr6   O26   S    
C41   C49   S    
C41   H26   S    
Cr2   O42   S    
C12   H42   S    
C11   H41   S    
C7    H39   S    
C13   H49   S    
C70   O38   A    
Cr8   O20   S    
S2    O57   D    
C34   C50   S    
C5    H37   S    
S4    O63   D    
Cr12  O16   S    
C73   O49   A    
C68   C84   S    
C24   C28   S    
O64   H72   S    
Cr7   O19   S    
C80   O8    A    
C38   C41   S    
Cr8   O8    S    
O55   H69   S    
O73   H75   S    
Cr9   O9    S    
C91   C92   S    
S5    O66   D    
C69   O1    A    
C54   C62   T    
C6    C94   S    
C40   C52   S    
C21   C29   S    
C15   C31   S    
Cr4   O44   S    
C10   C26   S    
C77   O9    A    
C54   C75   S    
C21   C69   S    
C2    O26   A    
C94   H34   S    
C14   H54   S    
C33   H13   S    
Cr1   O17   S    
C24   C32   S    
Cr11  O35   S    
N1    H61   S    
C10   H10   S    
Cr7   O7    S    
C3    O23   A    
N4    H68   S    
C66   C82   S    
C37   C49   S    
C76   O48   A    
Cr9   O33   S    
N3    H65   S    
S8    O76   S    
C75   O51   A    
C34   H18   S    
S3    O61   S    
O67   H73   S    
C74   O50   A    
C33   H17   S    
C33   C34   S    
Cr8   O28   S    
C48   C87   S    
C47   O35   A    
C1    O25   A    
Cr2   O18   S    
Cr7   O31   S    
C32   H8    S    
C25   N1    S    
S1    O54   D    
Cr10  O18   S    
Cr2   O22   S    
C42   C50   S    
C4    C17   S    
C45   O33   A    
N3    H66   S    
C31   H59   S    
C23   C27   S    
C32   H60   S    
C35   C51   S    
C18   C94   S    
C19   C95   S    
C79   O11   A    
C59   C63   S    
S6    O70   S    
C17   C93   S    
C53   C61   T    
C13   H53   S    
C50   C77   S    
C72   O4    A    
S6    O69   D    
C36   H20   S    
C93   H33   S    
S4    O62   D    
C24   C72   S    
C30   H6    S    
C30   H58   S    
C9    C17   S    
C4    O28   A    
C29   H5    S    
S2    O56   D    
Cr4   O48   S    
C1    C20   S    
C77   O5    A    
C56   C73   S    
C22   C30   S    
C36   H16   S    
C2    C19   S    
S8    O75   D    
C41   H29   S    
Cr12  O20   S    
C95   H35   S    
C2    O22   A    
C57   C65   T    
C14   H50   S    
C86   C89   T    
N2    H64   S    
C15   H51   S    
Cr10  O38   S    
S5    O67   S    
C5    C93   S    
C85   C90   T    
C84   O44   A    
Cr9   O37   S    
C39   C44   S    
C38   C50   S    
C43   H31   S    
C16   C32   S    
C7    C95   S    
C48   O36   A    
Cr11  O11   S    
C43   H28   S    
C38   H22   S    
C13   C17   S    
C9    H43   S    
C60   C64   S    
Cr9   O13   S    
C47   C88   S    
C35   H19   S    
C35   H15   S    
S6    O68   D    
C70   O2    A    
C94   H2    S    
Cr12  O36   S    
C95   H3    S    
C8    H40   S    
C26   N2    S    
C79   O7    A    
C43   C51   S    
C37   S2    S    
O70   H74   S    
C88   C91   T    
Cr3   O47   S    
C10   C18   S    
C7    C23   S    
Cr4   O4    S    
Cr1   O21   S    
C75   O47   A    
C37   H21   S    
C45   C86   S    
C71   O3    A    
C31   H7    S    
C20   C96   S    
N4    H67   S    
S1    O55   S    
C3    O27   A    
C39   H23   S    
C40   S3    S    
Cr9   O17   S    
C27   N3    S    
Cr6   O50   S    
C39   S4    S    
C53   C76   S    
C25   H47   S    
Cr5   O49   S    
C46   O34   A    
C5    C21   S    
C8    C24   S    
C60   C68   T    
C23   C71   S    
C34   H14   S    
C81   O41   A    
C22   C26   S    
C33   C49   S    
Cr11  O15   S    
Cr7   O51   S    
C78   O6    A    
C65   C81   S    
Cr1   O45   S    
C42   H30   S    
C12   C28   S    
C89   C90   S    
C40   H24   S    
C6    S6    S    
C22   C70   S    
C15   H55   S    
C83   O43   A    
S3    O59   D    
Cr3   O3    S    
C23   C31   S    
S8    O74   D    
C82   O42   A    
C1    O21   A    
