data_str_m9_o2_o19_f0_sra.sym.15
_audit_creation_date              2013-03-05T16:02:29-0500
_audit_creation_method            fapswitch 2.2
_symmetry_space_group_name_H-M    P1
_symmetry_Int_Tables_number       1
_space_group_crystal_system       triclinic
_cell_length_a                    16.466434
_cell_length_b                    7.255925
_cell_length_c                    15.357153
_cell_angle_alpha                 90.432444
_cell_angle_beta                  94.504354
_cell_angle_gamma                 91.036347
_cell_volume                      1828.82006225

loop_
_atom_site_label
_atom_site_type_symbol
_atom_site_description
_atom_site_fract_x
_atom_site_fract_y
_atom_site_fract_z
_atom_type_partial_charge
O1    O     O_R   0.663460 0.361760 0.165970 -0.567492
O2    O     O_R   0.336540 0.638240 0.834030 -0.567521
O3    O     O_R   0.836540 0.861760 0.334030 -0.585099
O4    O     O_R   0.163460 0.138240 0.665970 -0.585075
O5    O     O_R   0.827100 0.689870 0.163730 -0.569694
O6    O     O_R   0.172900 0.310130 0.836270 -0.569640
O7    O     O_R   0.672900 0.189870 0.336270 -0.543113
O8    O     O_R   0.327100 0.810130 0.663730 -0.543125
H1    H     H_    0.210221 0.918344 0.503711 0.131175
H2    H     H_    0.789776 0.081630 0.496288 0.131170
H3    H     H_    0.288379 0.568014 0.990288 0.128070
H4    H     H_    0.711620 0.431995 0.009711 0.128075
C1    C     C_R   0.853257 0.523518 0.143574 0.968796
C2    C     C_R   0.146743 0.476482 0.856427 0.968787
C3    C     C_R   0.646776 0.022295 0.356424 0.970001
C4    C     C_R   0.353223 0.977705 0.643575 0.969995
O9    O     O_R   0.663490 0.691370 0.155500 -0.587317
O10   O     O_R   0.336510 0.308630 0.844500 -0.587300
O11   O     O_R   0.836510 0.191370 0.344500 -0.568753
O12   O     O_R   0.163490 0.808630 0.655500 -0.568789
O13   O     O_R   0.671770 0.863320 0.325740 -0.565695
O14   O     O_R   0.328230 0.136680 0.674260 -0.565671
O15   O     O_R   0.828230 0.363320 0.174260 -0.536629
O16   O     O_R   0.171770 0.636680 0.825740 -0.536647
C5    C     C_R   0.634279 0.521148 0.136053 0.950742
C6    C     C_R   0.365720 0.478852 0.863947 0.950742
C7    C     C_R   0.865490 0.024890 0.364588 0.950190
C8    C     C_R   0.134510 0.975110 0.635411 0.950206
H5    H     H_    0.134172 0.985466 0.234684 0.187076
H6    H     H_    0.865832 0.014562 0.765317 0.187062
H7    H     H_    0.363719 0.577228 0.261523 0.186945
H8    H     H_    0.636279 0.422805 0.738475 0.186935
O17   O     O_3   0.752910 0.528800 0.305860 -0.274059
O18   O     O_3   0.247090 0.471200 0.694140 -0.274060
O19   O     O_3   0.747090 0.028800 0.194140 -0.271269
O20   O     O_3   0.252910 0.971200 0.805860 -0.271258
V1    V     V_3+5 0.749460 0.803010 0.239640 1.276372
V2    V     V_3+5 0.250540 0.196990 0.760360 1.276413
V3    V     V_3+5 0.750540 0.303010 0.260360 1.309188
V4    V     V_3+5 0.249460 0.696990 0.739640 1.309170
C9    C     C_1   0.468957 0.995653 0.530302 0.102462
C10   C     C_1   0.531041 0.004347 0.469696 0.102482
C11   C     C_1   0.031042 0.493870 0.969757 0.100350
C12   C     C_1   0.968959 0.506130 0.030245 0.100357
C13   C     C_R   0.039408 0.009018 0.321916 0.306118
C14   C     C_R   0.960594 0.991012 0.678085 0.306129
C15   C     C_R   0.459690 0.537491 0.177092 0.305510
C16   C     C_R   0.540309 0.462530 0.822908 0.305530
C17   C     C_R   0.119352 0.977182 0.302103 -0.185936
C18   C     C_R   0.880649 0.022831 0.697898 -0.185925
C19   C     C_R   0.378984 0.568697 0.194285 -0.182537
C20   C     C_R   0.621015 0.431333 0.805714 -0.182544
C21   C     C_R   0.180396 0.942380 0.367447 -0.058933
C22   C     C_R   0.819603 0.057611 0.632553 -0.058947
C23   C     C_R   0.317947 0.583543 0.126965 -0.065420
C24   C     C_R   0.682052 0.416481 0.873033 -0.065423
C25   C     C_R   0.161137 0.941743 0.454298 -0.232506
C26   C     C_R   0.838862 0.058243 0.545702 -0.232497
C27   C     C_R   0.337626 0.560728 0.040944 -0.229465
C28   C     C_R   0.662374 0.439285 0.959055 -0.229463
C29   C     C_R   0.080883 0.973036 0.477557 0.105995
C30   C     C_R   0.919116 0.026961 0.522443 0.105994
C31   C     C_R   0.418493 0.526826 0.020318 0.108379
C32   C     C_R   0.581506 0.473181 0.979682 0.108376
C33   C     C_R   0.017438 0.000527 0.410116 -0.037894
C34   C     C_R   0.982563 0.999484 0.589884 -0.037914
C35   C     C_R   0.482098 0.523617 0.089141 -0.043364
C36   C     C_R   0.517901 0.476391 0.910859 -0.043380
C37   C     C_R   0.064496 0.978998 0.567048 -0.235091
C38   C     C_R   0.935504 0.021004 0.432952 -0.235063
C39   C     C_R   0.435448 0.495625 0.932138 -0.235620
C40   C     C_R   0.564551 0.504378 0.067863 -0.235603
C41   C     C_1   0.416104 0.987802 0.581690 -0.101003
C42   C     C_1   0.583895 0.012198 0.418308 -0.101017
C43   C     C_1   0.083873 0.484606 0.918409 -0.112887
C44   C     C_1   0.916129 0.515394 0.081592 -0.112928
C45   C     C_2   0.734717 0.087280 0.654567 1.066350
O21   O     O_2   0.712888 0.038654 0.725319 -0.640824
O22   O     O_R   0.679435 0.171989 0.594549 -0.813816
H9    H     H_    0.623835 0.186343 0.617553 0.335316
C46   C     C_2   0.265282 0.912708 0.345434 1.066325
O23   O     O_2   0.287114 0.961348 0.274684 -0.640826
O24   O     O_R   0.320562 0.827983 0.405450 -0.813807
H10   H     H_    0.376163 0.813635 0.382449 0.335327
C47   C     C_2   0.767181 0.381725 0.853560 1.062926
O25   O     O_2   0.790242 0.420510 0.782029 -0.638522
O26   O     O_R   0.821137 0.302530 0.916761 -0.808023
H11   H     H_    0.876646 0.280629 0.894747 0.333913
C48   C     C_2   0.232817 0.618298 0.146436 1.062915
O27   O     O_2   0.209754 0.579498 0.217964 -0.638520
O28   O     O_R   0.178864 0.697506 0.083237 -0.808016
H12   H     H_    0.123354 0.719402 0.105249 0.333914
N1    N     N_R   0.985209 0.074412 0.252394 0.215276
O29   O     O_R   0.966127 0.968513 0.184887 -0.403154
O30   O     O_R   0.976953 0.251435 0.244639 -0.406261
N2    N     N_R   0.014801 0.925681 0.747615 0.215263
O31   O     O_R   0.033921 0.031687 0.815080 -0.403150
O32   O     O_R   0.023031 0.748655 0.755430 -0.406265
N3    N     N_R   0.514748 0.497443 0.250623 0.216686
O33   O     O_R   0.529097 0.621502 0.311719 -0.415544
O34   O     O_R   0.527194 0.325485 0.269502 -0.401934
N4    N     N_R   0.485249 0.502572 0.749378 0.216691
O35   O     O_R   0.470859 0.378471 0.688314 -0.415530
O36   O     O_R   0.472838 0.674517 0.730462 -0.401933

loop_
_geom_bond_atom_site_label_1
_geom_bond_atom_site_label_2
_geom_bond_distance
_ccdc_geom_bond_type
C26   C30   1.417478 A    
O26   H11   1.013893 S    
N1    O29   1.300767 A    
C23   C27   1.394058 A    
C9    C10   1.436424 S    
C8    C37   1.497878 S    
O10   C6    1.340316 A    
C13   N1    1.426480 S    
C46   O23   1.223451 D    
H5    C17   1.084078 S    
C47   O25   1.223295 D    
C30   C38   1.421702 A    
C18   C22   1.391301 A    
O18   V4    1.774816 S    
C32   C36   1.428969 A    
O19   V1    1.785822 S    
C14   C34   1.430652 A    
C16   C20   1.397189 A    
O5    V1    1.981159 S    
O12   V4    2.024793 S    
C17   C21   1.391302 A    
C34   C37   1.430409 A    
C33   C38   1.430409 A    
O14   V2    1.963060 S    
C15   N3    1.426610 S    
C1    O15   1.328344 A    
C21   C46   1.482708 S    
C35   C40   1.430209 A    
C2    O16   1.328345 A    
C12   C44   1.221548 T    
H8    C20   1.083334 S    
C46   O24   1.397508 S    
O17   V3    1.774818 S    
N3    O33   1.300452 A    
N2    O32   1.299518 A    
O6    V2    1.981159 S    
C48   O28   1.397509 S    
O11   C7    1.336200 A    
O5    C1    1.331304 A    
C22   C45   1.482707 S    
O7    C3    1.329271 A    
H6    C18   1.084078 S    
N1    O30   1.299459 A    
O1    C5    1.331510 A    
C6    C39   1.494635 S    
H3    C27   1.081042 S    
C15   C35   1.431147 A    
O4    C8    1.335890 A    
C45   O22   1.397496 S    
C11   C43   1.221548 T    
C31   C35   1.428970 A    
C10   C42   1.220764 T    
C30   C34   1.429906 A    
C47   O26   1.397507 S    
C4    C41   1.460661 S    
H7    C19   1.083333 S    
O28   H12   1.013893 S    
C21   C25   1.395014 A    
C15   C19   1.397194 A    
O12   C8    1.336199 A    
C19   C23   1.390320 A    
C45   O21   1.223445 D    
C24   C28   1.394059 A    
C11   C12   1.437734 S    
O2    V4    2.010964 S    
O6    C2    1.331305 A    
O24   H10   1.013680 S    
C1    C44   1.461995 S    
C13   C17   1.397023 A    
C16   N4    1.426607 S    
N2    O31   1.300828 A    
O13   V1    1.963060 S    
O2    C6    1.331507 A    
C5    C40   1.494638 S    
O9    V1    1.996303 S    
C16   C36   1.431139 A    
N4    O36   1.299260 A    
C7    C38   1.497882 S    
O11   V3    2.024794 S    
N3    O34   1.299320 A    
O4    V2    1.995268 S    
C13   C33   1.430653 A    
C22   C26   1.395016 A    
C29   C37   1.421700 A    
C4    O14   1.327195 A    
H2    C26   1.080972 S    
C31   C39   1.421300 A    
C25   C29   1.417476 A    
C14   C18   1.397016 A    
C27   C31   1.418072 A    
C28   C32   1.418074 A    
O9    C5    1.340314 A    
C2    C43   1.461996 S    
O20   V2    1.785823 S    
O10   V2    1.996303 S    
C23   C48   1.481721 S    
C24   C47   1.481721 S    
C36   C39   1.430203 A    
O15   V3    1.957185 S    
O3    C7    1.335891 A    
O16   V4    1.957183 S    
H1    C25   1.080972 S    
C32   C40   1.421301 A    
N4    O35   1.300390 A    
O1    V3    2.010964 S    
C9    C41   1.220763 T    
O22   H9    1.013682 S    
H4    C28   1.081042 S    
C29   C33   1.429901 A    
C3    O13   1.327195 A    
C3    C42   1.460660 S    
C14   N2    1.426474 S    
O3    V1    1.995269 S    
O8    C4    1.329272 A    
O7    V3    1.969253 S    
O8    V4    1.969250 S    
C48   O27   1.223291 D    
C20   C24   1.390320 A    
