data_str_m12_o9_o11_f0_bcu.sym.141
_audit_creation_date              2012-12-11T17:39:27-0500
_audit_creation_method            fapswitch 2.2
_symmetry_space_group_name_H-M    P1
_symmetry_Int_Tables_number       1
_space_group_crystal_system       triclinic
_cell_length_a                    14.885795
_cell_length_b                    15.076864
_cell_length_c                    14.936838
_cell_angle_alpha                 109.131971
_cell_angle_beta                  108.975369
_cell_angle_gamma                 110.412119
_cell_volume                      2576.85299847

loop_
_atom_site_label
_atom_site_type_symbol
_atom_type_description
_atom_site_fract_x
_atom_site_fract_y
_atom_site_fract_z
_atom_type_partial_charge
C1    C     C_R   0.908000 0.901186 0.707510 0.319301
C2    C     C_R   0.005887 0.301011 0.435277 0.026797
C3    C     C_R   0.271023 0.322357 0.822132 0.131082
C4    C     C_R   0.703207 0.028912 0.534292 -0.045285
C5    C     C_R   0.702115 0.695062 0.286645 -0.147289
C6    C     C_R   0.307837 0.102494 0.511117 -0.148364
C7    C     C_R   0.093330 0.780673 0.528166 -0.114477
C8    C     C_R   0.911884 0.934915 0.187932 -0.116515
C9    C     C_R   0.095394 0.022026 0.283689 -0.123793
C10   C     C_R   0.908437 0.684857 0.444445 -0.100577
C11   C     C_R   0.701755 0.788142 0.197239 -0.084210
C12   C     C_R   0.094720 0.297582 0.494935 -0.143550
C13   C     C_R   0.306712 0.013232 0.602781 -0.135319
C14   C     C_R   0.642329 0.690663 0.191240 0.125558
C15   C     C_R   0.374727 0.082199 0.580735 0.075979
C16   C     C_R   0.002637 0.677407 0.464866 0.023422
C17   C     C_R   0.006014 0.946456 0.180633 0.055722
C18   C     C_R   0.495579 0.733713 0.564424 -0.066831
C19   C     C_R   0.518273 0.826253 0.552871 -0.119082
C20   C     C_R   0.587821 0.930972 0.645425 0.084342
C21   C     C_R   0.634393 0.941760 0.749343 -0.141354
C22   C     C_R   0.611082 0.849163 0.760570 -0.091938
C23   C     C_R   0.245871 0.220732 0.812241 -0.136986
C24   C     C_R   0.541244 0.745136 0.668274 -0.049842
C25   C     C_R   0.531953 0.064909 0.667452 -0.231939
C26   C     C_R   0.493233 0.120142 0.621574 0.044786
C27   C     C_R   0.555937 0.180078 0.586607 0.028688
C28   C     C_R   0.635028 0.157309 0.571691 -0.179243
C29   C     C_R   0.643369 0.070220 0.580738 0.101011
C30   C     C_R   0.594996 0.027327 0.635580 0.029041
C31   C     C_R   0.532179 0.263284 0.466132 -0.163641
C32   C     C_R   0.513744 0.339477 0.441891 -0.102092
C33   C     C_R   0.502166 0.416025 0.513214 -0.064757
C34   C     C_R   0.729058 0.044306 0.456163 0.309745
C35   C     C_R   0.509372 0.416716 0.609044 -0.109588
C36   C     C_R   0.529163 0.341553 0.634539 -0.140728
C37   C     C_R   0.539666 0.263218 0.562585 0.097977
C38   C     C_R   0.802708 0.114909 0.086215 -0.077747
C39   C     C_R   0.882212 0.215251 0.181246 -0.101459
C40   C     C_R   0.850456 0.284862 0.233429 0.078765
C41   C     C_R   0.737998 0.253062 0.187313 -0.137373
C42   C     C_R   0.658891 0.152820 0.092052 -0.061510
C43   C     C_R   0.691192 0.083668 0.041945 -0.121365
C44   C     C_R   0.933297 0.484425 0.351360 -0.234907
C45   C     C_R   0.247006 0.312327 0.720473 -0.124568
C46   C     C_R   0.009474 0.581799 0.450601 0.076190
C47   C     C_R   0.091132 0.586850 0.536823 0.017897
C48   C     C_R   0.094947 0.494102 0.521003 -0.230713
C49   C     C_R   0.013973 0.394854 0.426004 0.068670
C50   C     C_R   0.933919 0.388786 0.337795 0.038024
C51   C     C_R   0.281629 0.733819 0.690223 -0.188639
C52   C     C_R   0.353392 0.824376 0.795111 -0.113826
C53   C     C_R   0.311409 0.863738 0.859816 -0.096822
C54   C     C_R   0.197460 0.812385 0.819763 -0.120010
C55   C     C_R   0.125188 0.722158 0.714528 -0.109594
C56   C     C_R   0.746635 0.968289 0.561960 -0.132051
C57   C     C_R   0.166889 0.682872 0.648642 0.108035
C58   C     C_2   0.366650 0.520194 0.932039 -0.128858
C59   C     C_2   0.320934 0.422094 0.923900 -0.173152
C60   C     C_2   0.463350 0.615162 0.033874 -0.092849
C61   C     C_2   0.531912 0.602374 0.106193 -0.208602
C62   C     C_R   0.392594 0.221266 0.105536 -0.096409
C63   C     C_R   0.302702 0.117875 0.061029 -0.232725
C64   C     C_R   0.196070 0.102154 0.030017 0.010822
C65   C     C_R   0.180975 0.192306 0.046121 0.368103
C66   C     C_R   0.271958 0.295938 0.092767 -0.196336
C67   C     C_R   0.912109 0.210216 0.405886 -0.085148
C68   C     C_R   0.377385 0.310362 0.122241 -0.188885
C69   C     C_R   0.110134 0.985979 0.090071 -0.203326
C70   C     C_R   0.015879 0.912297 0.082356 0.059233
C71   C     C_R   0.927183 0.825607 0.979297 0.006975
C72   C     C_R   0.927763 0.828126 0.886433 -0.212139
C73   C     C_R   0.011738 0.918502 0.896837 0.097643
C74   C     C_R   0.106308 0.996569 0.001332 0.059827
C75   C     C_R   0.856924 0.683404 0.030333 -0.131422
C76   C     C_R   0.770215 0.599693 0.023153 -0.103539
C77   C     C_R   0.660977 0.566064 0.954731 -0.078252
C78   C     C_R   0.090476 0.993740 0.796285 -0.193984
C79   C     C_R   0.638304 0.616255 0.893644 -0.124452
C80   C     C_R   0.724670 0.698154 0.898527 -0.164596
C81   C     C_R   0.834914 0.733595 0.968079 0.116824
C82   C     C_R   0.001217 0.935753 0.803310 0.018025
H1    H     H_    0.333000 0.160207 0.484286 0.118560
H2    H     H_    0.179204 0.804672 0.557950 0.117461
H3    H     H_    0.827499 0.885493 0.122175 0.108108
H4    H     H_    0.181194 0.049234 0.309635 0.102606
H5    H     H_    0.823769 0.618930 0.400353 0.106489
H6    H     H_    0.673320 0.817061 0.142786 0.098472
H7    H     H_    0.331319 0.991201 0.664641 0.094966
H8    H     H_    0.522600 0.673445 0.677158 0.087917
H9    H     H_    0.441306 0.653143 0.493048 0.105415
H10   H     H_    0.479235 0.816468 0.472430 0.125029
H11   H     H_    0.180157 0.349223 0.520072 0.094201
H12   H     H_    0.685949 0.021847 0.821620 0.137120
H13   H     H_    0.645616 0.858336 0.841084 0.094204
H14   H     H_    0.495634 0.030851 0.708723 0.123456
H15   H     H_    0.685362 0.203505 0.546877 0.162547
H16   H     H_    0.538346 0.203059 0.408510 0.167509
H17   H     H_    0.507439 0.338507 0.367264 0.126196
H18   H     H_    0.498527 0.475011 0.662856 0.100079
H19   H     H_    0.534358 0.343149 0.709141 0.118277
H20   H     H_    0.629744 0.005811 0.968929 0.092069
H21   H     H_    0.254587 0.200293 0.876183 0.128687
H22   H     H_    0.827481 0.061132 0.047140 0.145476
H23   H     H_    0.968309 0.238155 0.214745 0.143267
H24   H     H_    0.711230 0.304627 0.226345 0.108021
H25   H     H_    0.572386 0.128288 0.057568 0.096978
H26   H     H_    0.872904 0.483140 0.285509 0.123649
H27   H     H_    0.154627 0.497956 0.589734 0.129546
H28   H     H_    0.315124 0.704188 0.640752 0.122027
H29   H     H_    0.441502 0.863889 0.826160 0.108229
H30   H     H_    0.367285 0.933696 0.941119 0.105414
H31   H     H_    0.165187 0.842422 0.870326 0.115592
H32   H     H_    0.037046 0.683195 0.684218 0.125417
H33   H     H_    0.346665 0.529151 0.860140 0.118212
H34   H     H_    0.335935 0.414879 0.996268 0.138764
H35   H     H_    0.486869 0.694654 0.040422 0.132314
H36   H     H_    0.511839 0.523204 0.099059 0.121364
H37   H     H_    0.447507 0.390820 0.158982 0.119155
H38   H     H_    0.474465 0.232789 0.129468 0.114075
H39   H     H_    0.316254 0.050286 0.052866 0.133709
H40   H     H_    0.261133 0.365732 0.107410 0.155105
H41   H     H_    0.255819 0.375064 0.698593 0.089567
H42   H     H_    0.181972 0.049831 0.168295 0.132030
H43   H     H_    0.861828 0.760341 0.807627 0.186309
H44   H     H_    0.941201 0.709176 0.084468 0.115910
H45   H     H_    0.787744 0.561437 0.071251 0.111048
H46   H     H_    0.593900 0.501642 0.949606 0.111364
H47   H     H_    0.553716 0.592017 0.842937 0.097176
H48   H     H_    0.705810 0.735603 0.850158 0.131769
H49   H     H_    0.829223 0.182601 0.348336 0.168291
H50   H     H_    0.174028 0.012801 0.841701 0.125183
H51   H     H_    0.672424 0.638666 0.314066 0.114572
N1    N     N_R   0.941940 0.944580 0.650780 -0.065322
N2    N     N_R   0.206190 0.054080 0.497260 -0.044218
N3    N     N_R   0.056380 0.847410 0.553580 -0.045901
N4    N     N_R   0.944890 0.999100 0.292900 -0.044368
N5    N     N_R   0.058060 0.055420 0.349220 -0.043701
N6    N     N_R   0.943200 0.791100 0.497260 -0.034386
N7    N     N_R   0.795540 0.849750 0.292910 -0.050148
N8    N     N_R   0.205730 0.996760 0.553580 -0.042360
N9    N     N_R   0.056800 0.208900 0.502740 -0.040951
N10   N     N_R   0.204460 0.150250 0.707090 -0.043843
N11   N     N_R   0.794270 0.003240 0.446420 -0.067508
N12   N     N_R   0.204920 0.207570 0.650770 -0.045148
N13   N     N_R   0.793810 0.945920 0.502740 -0.050126
N14   N     N_R   0.943620 0.152590 0.446420 -0.044327
N15   N     N_R   0.055110 0.000900 0.707100 -0.052881
N16   N     N_R   0.795080 0.792430 0.349230 -0.040141
Ni1   Ni    Ni4+2 0.869690 0.869690 0.500000 0.262185
Ni2   Ni    Ni4+2 0.130310 0.130310 0.500000 0.207432
Ni3   Ni    Ni4+2 0.129250 0.998840 0.629170 0.211060
Ni4   Ni    Ni4+2 0.870750 0.001160 0.370830 0.243806
Br1   Br    Br    0.765100 0.774550 0.636056 -0.669791
H52   H     H_    0.487029 0.474472 0.493985 0.116094
Br2   Br    Br    0.644874 0.064985 0.345138 -0.673869
Br3   Br    Br    0.039226 0.178579 0.011966 -0.624043
H53   H     H_    0.749404 0.947217 0.624212 0.177724

loop_
_geom_bond_atom_site_label_1
_geom_bond_atom_site_label_2
_ccdc_geom_bond_type
C28   H15   S    
C66   C68   A    
C79   C80   A    
C41   C42   A    
C54   C55   A    
C3    C23   A    
C35   C36   A    
C11   N7    A    
C2    C12   A    
C79   H47   S    
C20   C30   S    
C53   C54   A    
C45   H41   S    
C5    H51   S    
C34   N11   A    
C26   C27   A    
C29   C30   A    
C45   N12   A    
C18   H9    S    
C36   C37   A    
C18   C19   A    
C68   H37   S    
C38   C39   A    
C11   C14   A    
N2    Ni2   S    
C21   H12   S    
C58   C60   S    
N1    Ni1   S    
C54   H31   S    
C5    N16   A    
C39   H23   S    
C8    H3    S    
C73   C74   A    
C31   H16   S    
N11   Ni4   S    
C78   H50   S    
C38   H22   S    
C19   H10   S    
C63   H39   S    
C6    C15   A    
N13   Ni1   S    
C23   H21   S    
C47   C48   A    
C59   H34   S    
C56   H53   S    
C66   H40   S    
C70   C71   A    
C51   C57   A    
C13   N8    A    
C42   H25   S    
C62   H38   S    
C4    C29   S    
C78   N15   A    
N7    Ni4   S    
C72   C73   A    
C77   C79   A    
C48   H27   S    
C17   C70   S    
C21   C22   A    
C4    C56   A    
C23   N10   A    
C69   C70   A    
N3    N6    A    
N3    Ni3   S    
C44   C46   A    
C44   H26   S    
C4    C34   A    
C10   H5    S    
C80   H48   S    
C41   H24   S    
C51   C52   A    
C69   C74   A    
C76   C77   A    
C7    C16   A    
C65   Br3   S    
C2    C67   A    
C16   C46   S    
C39   C40   A    
C75   C81   A    
C15   C26   S    
C69   H42   S    
C1    C82   A    
C14   C61   S    
C3    C45   A    
C31   C37   A    
C60   C61   D    
N9    Ni2   S    
C75   C76   A    
C62   C63   A    
C2    C49   S    
C9    H4    S    
C47   C57   S    
C9    N5    A    
C78   C82   A    
C31   C32   A    
N2    N8    A    
C11   H6    S    
C48   C49   A    
N4    Ni4   S    
C60   H35   S    
C36   H19   S    
C5    C14   A    
N12   Ni2   S    
C77   H46   S    
C25   H14   S    
C53   H30   S    
N11   N13   A    
C40   C41   A    
C65   C66   A    
C51   H28   S    
C13   C15   A    
C67   N14   A    
C58   H33   S    
C18   C24   A    
C12   H11   S    
C58   C59   D    
C6    N2    A    
C42   C43   A    
C1    N1    A    
C73   C82   S    
C52   C53   A    
C9    C17   A    
C25   C30   A    
N10   N12   A    
C46   C47   A    
C28   C29   A    
C6    H1    S    
C13   H7    S    
C61   H36   S    
N9    N14   A    
C67   H49   S    
N15   Ni3   S    
C80   C81   A    
C24   H8    S    
C33   H52   S    
C55   H32   S    
C34   Br2   S    
N5    Ni2   S    
N1    N15   A    
N4    N5    A    
N6    Ni1   S    
C8    C17   A    
C52   H29   S    
C32   H17   S    
C62   C68   A    
C72   H43   S    
C75   H44   S    
C64   C65   A    
C19   C20   A    
C55   C57   A    
C25   C26   A    
C43   H20   S    
C7    N3    A    
C10   C16   A    
N16   Ni1   S    
C32   C33   A    
C27   C37   S    
C40   C50   S    
C33   C35   A    
C12   N9    A    
C7    H2    S    
C22   C24   A    
C56   N13   A    
C1    Br1   S    
N14   Ni4   S    
C63   C64   A    
C22   H13   S    
C38   C43   A    
C71   C72   A    
C20   C21   A    
C44   C50   A    
C49   C50   A    
C10   N6    A    
C27   C28   A    
C76   H45   S    
C64   C74   S    
C8    N4    A    
N7    N16   A    
N10   Ni3   S    
C35   H18   S    
N8    Ni3   S    
C71   C81   S    
C3    C59   S    
