data_str_m3_o4_o9_f0_pcu.sym.234
_audit_creation_date              2012-12-10T20:45:33-0500
_audit_creation_method            fapswitch 2.2
_symmetry_space_group_name_H-M    P1
_symmetry_Int_Tables_number       1
_space_group_crystal_system       triclinic
_cell_length_a                    10.7665
_cell_length_b                    10.733315
_cell_length_c                    9.907719
_cell_angle_alpha                 89.59019
_cell_angle_beta                  91.111909
_cell_angle_gamma                 89.421185
_cell_volume                      1144.6334205

loop_
_atom_site_label
_atom_site_type_symbol
_atom_type_description
_atom_site_fract_x
_atom_site_fract_y
_atom_site_fract_z
_atom_type_partial_charge
C1    C     C_R   0.500126 0.260315 0.500314 0.873235
C2    C     C_R   0.190814 0.694576 0.012493 -0.111733
C3    C     C_R   0.930589 0.536174 0.386196 -0.256580
C4    C     C_R   0.872554 0.499994 0.504862 -0.082788
C5    C     C_R   0.942486 0.466684 0.621766 -0.013141
C6    C     C_R   0.069638 0.465336 0.614341 -0.256808
C7    C     C_R   0.127607 0.503300 0.496335 -0.081643
C8    C     C_R   0.057856 0.540656 0.381039 -0.009811
C9    C     C_R   0.864668 0.533023 0.845794 -0.120524
C10   C     C_R   0.823901 0.505023 0.975477 -0.130536
C11   C     C_R   0.807235 0.381134 0.014718 -0.127486
C12   C     C_R   0.260177 0.502207 0.498501 0.862784
C13   C     C_R   0.831630 0.284967 0.924297 -0.170035
C14   C     C_R   0.873080 0.312525 0.794536 -0.150003
C15   C     C_R   0.889291 0.436814 0.754531 0.154915
C16   C     C_R   0.589127 0.062320 0.578027 0.052018
C17   C     C_R   0.502508 0.128254 0.498684 -0.085688
C18   C     C_R   0.421845 0.065920 0.410468 -0.177055
C19   C     C_R   0.424999 0.937183 0.405515 -0.241615
C20   C     C_R   0.502211 0.871450 0.496330 -0.096801
C21   C     C_R   0.584457 0.934069 0.581205 0.028006
C22   C     C_3   0.594441 0.930245 0.732217 0.043559
C23   C     C_R   0.499255 0.739612 0.499348 0.871443
C24   C     C_3   0.609661 0.070325 0.726919 -0.512796
C25   C     C_R   0.486310 0.392316 0.071142 0.098710
C26   C     C_R   0.532111 0.603192 0.071787 -0.135448
C27   C     C_R   0.534747 0.602059 0.928057 -0.115642
C28   C     C_R   0.481439 0.392858 0.929571 0.178400
C29   C     C_3   0.371178 0.309243 0.926218 -0.579472
C30   C     C_3   0.383704 0.300357 0.079667 0.358421
C31   C     C_R   0.739904 0.499049 0.501736 0.863946
C32   C     C_R   0.198074 0.763815 0.131360 -0.161630
C33   C     C_R   0.158876 0.712048 0.253054 -0.122116
C34   C     C_R   0.111603 0.590755 0.255969 0.156464
C35   C     C_R   0.104959 0.521624 0.136456 -0.170307
C36   C     C_R   0.144979 0.573469 0.015352 -0.138560
H1    H     H_    0.219388 0.734957 0.917796 0.137111
H2    H     H_    0.776186 0.359745 0.115426 0.132479
H3    H     H_    0.819712 0.189037 0.955354 0.119459
H4    H     H_    0.894009 0.237419 0.725940 0.115521
H5    H     H_    0.353024 0.116563 0.350408 0.202372
H6    H     H_    0.361963 0.889189 0.337877 0.159693
H7    H     H_    0.677202 0.877637 0.771482 0.128446
H8    H     H_    0.536274 0.123516 0.777518 0.221770
H9    H     H_    0.705557 0.099808 0.752862 0.172954
H10   H     H_    0.556899 0.687028 0.125298 0.153020
H11   H     H_    0.232170 0.858271 0.128829 0.138070
H12   H     H_    0.565926 0.682701 0.874017 0.182083
H13   H     H_    0.285397 0.358705 0.891022 0.167299
H14   H     H_    0.387125 0.219738 0.874974 0.208218
H15   H     H_    0.301411 0.337338 0.132753 0.111991
H16   H     H_    0.162348 0.767172 0.344153 0.103162
H17   H     H_    0.067173 0.428487 0.136898 0.135178
H18   H     H_    0.138019 0.520774 0.923209 0.130300
H19   H     H_    0.876729 0.565492 0.297652 0.163303
H20   H     H_    0.123485 0.435240 0.702452 0.156869
H21   H     H_    0.878875 0.629313 0.817061 0.114063
H22   H     H_    0.806263 0.579406 0.045920 0.126508
N1    N     N_R   0.499160 0.499140 0.142800 -0.125186
N2    N     N_R   0.499160 0.499180 0.857150 -0.094949
O1    O     O_R   0.500020 0.316790 0.614690 -0.615999
O2    O     O_R   0.500000 0.316760 0.385350 -0.615293
O3    O     O_R   0.316770 0.500030 0.614670 -0.623745
O4    O     O_R   0.316750 0.499990 0.385330 -0.615347
O5    O     O_R   0.500000 0.683240 0.614650 -0.613347
O6    O     O_R   0.499980 0.683210 0.385310 -0.624883
O7    O     O_R   0.683250 0.500010 0.614670 -0.609409
O8    O     O_R   0.683230 0.499970 0.385330 -0.634549
Zn1   Zn    Zn3+2 0.500010 0.500020 0.653130 0.956289
Zn2   Zn    Zn3+2 0.499990 0.499980 0.346870 0.943248
N3    N     N_2   0.478027 0.893003 0.792458 -0.274475
H23   H     H_    0.397587 0.919173 0.740798 0.245787
C37   C     C_3   0.469388 0.908518 0.936392 -0.849107
H24   H     H_    0.410153 0.834790 0.977932 0.245499
H25   H     H_    0.424434 0.999143 0.957306 0.285321
H26   H     H_    0.562282 0.901205 0.986918 0.234382
O9    O     O_3   0.417160 0.177802 0.125368 -0.612873
C38   C     C_3   0.546427 0.150225 0.124019 -0.318616
H27   H     H_    0.600180 0.210934 0.193262 0.189168
H28   H     H_    0.583191 0.156780 0.020340 0.160379
H29   H     H_    0.561666 0.053567 0.161124 0.194152

loop_
_geom_bond_atom_site_label_1
_geom_bond_atom_site_label_2
_ccdc_geom_bond_type
C27   H12   S    
C30   H15   S    
C16   C21   A    
C35   H17   S    
C37   H24   S    
C35   C36   A    
C38   H29   S    
C1    O2    A    
C7    C8    A    
C29   H13   S    
O9    C38   S    
C33   H16   S    
C31   O7    A    
C26   C27   A    
C24   H9    S    
C23   O6    A    
C28   C29   S    
C10   H22   S    
C34   C35   A    
C27   N2    A    
C5    C6    A    
C12   O4    A    
C38   H28   S    
O1    Zn1   S    
O2    Zn2   S    
C2    C32   A    
C18   C19   A    
C30   O9    S    
C3    H19   S    
C19   C20   A    
C16   C17   A    
O4    Zn2   S    
C9    C10   A    
C19   H6    S    
C16   C24   S    
C21   C22   S    
C37   H25   S    
C7    C12   S    
C17   C18   A    
C29   H14   S    
C28   N2    A    
C31   O8    A    
C5    C15   S    
O3    Zn1   S    
C3    C8    A    
C18   H5    S    
N3    C37   S    
C12   O3    A    
C38   H27   S    
C14   H4    S    
O7    Zn1   S    
C11   H2    S    
C29   C30   S    
C22   H7    S    
C20   C23   S    
C33   C34   A    
C8    C34   S    
C24   H8    S    
C32   H11   S    
C22   C24   S    
C3    C4    A    
C22   N3    S    
C26   N1    A    
C2    C36   A    
C25   C30   S    
C6    H20   S    
C4    C5    A    
C1    O1    A    
C6    C7    A    
C1    C17   S    
C32   C33   A    
C23   O5    A    
C9    C15   A    
N3    H23   S    
C11   C13   A    
C2    H1    S    
O6    Zn2   S    
N2    Zn1   S    
O5    Zn1   S    
C37   H26   S    
C9    H21   S    
C13   H3    S    
C4    C31   S    
C36   H18   S    
C10   C11   A    
C26   H10   S    
N1    Zn2   S    
C25   C28   A    
C20   C21   A    
O8    Zn2   S    
C14   C15   A    
C25   N1    A    
C13   C14   A    
