data_str_m2_o14_o16_f0_pcu.sym.166
_audit_creation_date              2012-12-10T17:18:55-0500
_audit_creation_method            fapswitch 2.2
_symmetry_space_group_name_H-M    P1
_symmetry_Int_Tables_number       1
_space_group_crystal_system       triclinic
_cell_length_a                    9.588281
_cell_length_b                    10.816388
_cell_length_c                    13.558238
_cell_angle_alpha                 92.531075
_cell_angle_beta                  72.917239
_cell_angle_gamma                 89.676276
_cell_volume                      1342.52939103

loop_
_atom_site_label
_atom_site_type_symbol
_atom_type_description
_atom_site_fract_x
_atom_site_fract_y
_atom_site_fract_z
_atom_type_partial_charge
C1    C     C_R   0.497522 0.737379 0.504842 0.864635
C2    C     C_R   0.439594 0.508407 0.976664 0.076638
C3    C     C_R   0.476121 0.537732 0.871450 0.088758
C4    C     C_R   0.543961 0.528951 0.031349 -0.041194
C5    C     C_R   0.689536 0.555774 0.976535 0.114533
C6    C     C_R   0.720890 0.592754 0.875465 -0.209046
C7    C     C_R   0.611599 0.593597 0.827146 -0.191842
C8    C     C_R   0.506377 0.531795 0.139838 0.395693
C9    C     C_R   0.763953 0.527963 0.130149 -0.259314
C10   C     C_R   0.377118 0.508753 0.813710 -0.082340
C11   C     C_R   0.258745 0.880232 0.651590 -0.205895
C12   C     C_R   0.422201 0.506557 0.699787 0.749725
C13   C     C_R   0.137685 0.947764 0.712458 -0.211654
C14   C     C_R   0.134477 0.076282 0.710795 0.514104
C15   C     C_R   0.253791 0.137245 0.647970 -0.201705
C16   C     C_R   0.374076 0.070107 0.580116 -0.041305
C17   C     C_R   0.375188 0.939270 0.581019 0.023458
C18   C     C_R   0.493665 0.871436 0.512042 -0.321081
C19   C     C_R   0.609951 0.932082 0.445930 0.525412
C20   C     C_R   0.609842 0.059365 0.445688 0.520946
C21   C     C_R   0.493661 0.129226 0.511570 -0.288428
C22   C     C_R   0.913949 0.336577 0.362256 -0.182799
C23   C     C_R   0.498059 0.262851 0.504288 0.883680
C24   C     C_R   0.014047 0.255270 0.295509 -0.231172
C25   C     C_R   0.157709 0.254480 0.295365 0.557577
C26   C     C_R   0.201796 0.334249 0.362916 -0.173032
C27   C     C_R   0.103198 0.418414 0.432845 0.144204
C28   C     C_R   0.953670 0.418945 0.432697 0.183048
C29   C     C_R   0.900052 0.579608 0.561989 -0.008588
C30   C     C_R   0.047574 0.578872 0.562672 -0.059212
C31   C     C_R   0.577114 0.504883 0.300740 0.833376
C32   C     C_R   0.799138 0.552909 0.025772 -0.214428
C33   C     C_R   0.617289 0.519358 0.188555 -0.111239
C34   C     C_R   0.238130 0.465204 0.864530 -0.217990
C35   C     C_R   0.202288 0.437390 0.967750 -0.208219
C36   C     C_R   0.303691 0.453217 0.022028 -0.114270
Cu1   Cu    Cu3+1 0.359340 0.500010 0.500010 0.933198
Cu2   Cu    Cu3+1 0.640660 0.499990 0.499990 0.980497
H1    H     H_    0.850577 0.522328 0.166218 0.183056
H2    H     H_    0.258749 0.781630 0.660672 0.155655
H3    H     H_    0.046187 0.899851 0.761418 0.135376
H4    H     H_    0.248455 0.236996 0.653556 0.170404
H5    H     H_    0.824586 0.646599 0.611246 0.117562
H6    H     H_    0.806985 0.331134 0.355304 0.255893
H7    H     H_    0.979340 0.192066 0.243877 0.216786
H8    H     H_    0.314416 0.325818 0.356287 0.220826
H9    H     H_    0.828078 0.626124 0.835347 0.131362
H10   H     H_    0.080968 0.643493 0.614107 0.122608
H11   H     H_    0.911683 0.569603 0.983470 0.152003
H12   H     H_    0.159856 0.444971 0.822760 0.152246
H13   H     H_    0.275269 0.417345 0.098259 0.201338
H14   H     H_    0.097638 0.397721 0.004705 0.146787
H15   H     H_    0.635041 0.638437 0.755032 0.154672
N1    N     N_R   0.852480 0.498790 0.499000 -0.187288
N2    N     N_R   0.148360 0.498710 0.498970 -0.191236
O1    O     O_R   0.381190 0.680360 0.500010 -0.611589
O2    O     O_R   0.618760 0.680340 0.500000 -0.534578
O3    O     O_R   0.323240 0.499990 0.650990 -0.600037
O4    O     O_R   0.560820 0.499960 0.650980 -0.585537
O5    O     O_R   0.381240 0.319660 0.500000 -0.617661
O6    O     O_R   0.618810 0.319640 0.499990 -0.555294
O7    O     O_R   0.439180 0.500040 0.349020 -0.556804
O8    O     O_R   0.676760 0.500010 0.349010 -0.603453
O9    O     O_3   0.008889 0.142150 0.763537 -0.607610
C37   C     C_3   0.018526 0.187281 0.860713 0.022418
H16   H     H_    0.969250 0.282055 0.875056 0.174465
H17   H     H_    0.132762 0.195693 0.865052 0.133389
C38   C     C_3   0.930549 0.105567 0.945412 -0.331305
H18   H     H_    0.817475 0.097293 0.940025 0.242098
H19   H     H_    0.981601 0.011581 0.934826 0.210462
C39   C     C_3   0.924586 0.159530 0.052308 -0.881767
H20   H     H_    0.036872 0.168181 0.058993 0.261041
H21   H     H_    0.862171 0.097328 0.111950 0.289523
H22   H     H_    0.869576 0.252063 0.066348 0.254770
F1    F     F_    0.720607 0.114209 0.376211 -0.668149
F2    F     F_    0.255818 0.176349 0.228771 -0.684158
O10   O     O_3   0.362850 0.555417 0.198827 -0.616343
C40   C     C_3   0.322134 0.680467 0.192122 0.035749
H23   H     H_    0.209125 0.681393 0.185934 0.175153
H24   H     H_    0.391108 0.726628 0.122951 0.136279
C41   C     C_3   0.323360 0.755432 0.290155 -0.345107
H25   H     H_    0.247622 0.713214 0.358196 0.258399
H26   H     H_    0.435364 0.753494 0.298167 0.226914
C42   C     C_3   0.276301 0.889856 0.287483 -0.773245
H27   H     H_    0.352094 0.934621 0.220960 0.286103
H28   H     H_    0.278575 0.941059 0.359835 0.262301
H29   H     H_    0.163635 0.894952 0.280925 0.278616
F3    F     F_    0.721815 0.867302 0.377689 -0.627824

loop_
_geom_bond_atom_site_label_1
_geom_bond_atom_site_label_2
_ccdc_geom_bond_type
C16   C21   A    
C35   C36   A    
C42   H29   S    
C4    C8    A    
C13   H3    S    
C41   H25   S    
O10   C40   S    
C1    C18   S    
C29   C30   A    
C24   H7    S    
C30   H10   S    
C1    O1    A    
C42   H28   S    
C18   C19   A    
C3    C7    A    
C5    C6    A    
C27   N2    A    
C29   N1    A    
C15   C16   A    
C9    H1    S    
C34   C35   A    
C9    C32   A    
C12   O4    A    
C22   H6    S    
C19   C20   A    
C16   C17   A    
C37   H17   S    
C31   C33   S    
Cu1   O3    S    
Cu2   O6    S    
C12   O3    A    
C22   C28   A    
C13   C14   A    
C29   H5    S    
C9    C33   A    
Cu1   O1    S    
C31   O7    A    
C41   H26   S    
Cu1   O7    S    
C23   O5    A    
C34   H12   S    
C6    H9    S    
C31   O8    A    
C24   C25   A    
C19   F3    S    
C39   H21   S    
C28   N1    A    
C40   H23   S    
C38   H18   S    
C25   C26   A    
C20   F1    S    
C2    C4    A    
Cu1   Cu2   S    
C1    O2    A    
Cu2   O2    S    
Cu2   N1    S    
C37   C38   S    
C14   O9    S    
C17   C18   A    
C26   C27   A    
C10   C34   A    
C42   H27   S    
C36   H13   S    
C10   C12   S    
C21   C23   S    
C8    O10   S    
C22   C24   A    
C7    H15   S    
C35   H14   S    
C41   C42   S    
Cu2   O8    S    
C2    C36   A    
C11   C17   A    
C15   H4    S    
C4    C5    A    
C39   H22   S    
C6    C7    A    
C30   N2    A    
C25   F2    S    
O9    C37   S    
C5    C32   A    
C2    C3    A    
C39   H20   S    
C3    C10   A    
C11   C13   A    
C40   C41   S    
C38   C39   S    
C40   H24   S    
C8    C33   A    
C11   H2    S    
C32   H11   S    
Cu1   O5    S    
C26   H8    S    
Cu2   O4    S    
Cu1   N2    S    
C23   O6    A    
C20   C21   A    
C38   H19   S    
C37   H16   S    
C27   C28   A    
C14   C15   A    
