data_str_m3_o5_o28_f0_pcu.sym.76
_audit_creation_date              2013-03-05T16:48:17-0500
_audit_creation_method            fapswitch 2.2
_symmetry_space_group_name_H-M    P1
_symmetry_Int_Tables_number       1
_space_group_crystal_system       triclinic
_cell_length_a                    23.479776
_cell_length_b                    8.91226
_cell_length_c                    8.100524
_cell_angle_alpha                 89.992064
_cell_angle_beta                  89.98567
_cell_angle_gamma                 89.945082
_cell_volume                      1695.09753772

loop_
_atom_site_label
_atom_site_type_symbol
_atom_site_description
_atom_site_fract_x
_atom_site_fract_y
_atom_site_fract_z
_atom_type_partial_charge
O1    O     O_R   0.500000 0.285350 0.636850 -0.626762
O2    O     O_R   0.500000 0.714650 0.363150 -0.626845
O3    O     O_R   0.500000 0.714650 0.636850 -0.585214
O4    O     O_R   0.500000 0.285350 0.363150 -0.585391
C1    C     C_R   0.499998 0.218008 0.500022 0.993102
C2    C     C_R   0.500006 0.781992 0.499977 0.993235
O5    O     O_R   0.416160 0.500000 0.636910 -0.596046
O6    O     O_R   0.583840 0.500000 0.363090 -0.596089
O7    O     O_R   0.583840 0.500000 0.636910 -0.595988
O8    O     O_R   0.416160 0.500000 0.363090 -0.596094
C3    C     C_R   0.208664 0.502029 0.499836 0.202824
C4    C     C_R   0.791345 0.499724 0.498780 0.190803
C5    C     C_R   0.389212 0.500121 0.500020 0.992527
C6    C     C_R   0.610789 0.499897 0.499974 0.992185
Zn1   Zn    Zn3+2 0.500000 0.500000 0.682780 1.115533
Zn2   Zn    Zn3+2 0.500000 0.500000 0.317220 1.115418
H1    H     H_    0.214325 0.673358 0.684837 0.187836
H2    H     H_    0.785735 0.328514 0.313623 0.190234
H3    H     H_    0.214022 0.330502 0.314932 0.187796
H4    H     H_    0.785915 0.670858 0.684123 0.190009
C7    C     C_R   0.297329 0.600737 0.604899 0.256014
C8    C     C_R   0.702713 0.400017 0.394588 0.256866
C9    C     C_R   0.297152 0.401349 0.395050 0.256250
C10   C     C_R   0.702813 0.599139 0.604736 0.256348
C11   C     C_R   0.327236 0.500688 0.500045 -0.279925
C12   C     C_R   0.672766 0.499633 0.499844 -0.280021
C13   C     C_R   0.879565 0.618388 0.427923 0.531710
C14   C     C_R   0.120287 0.385022 0.571183 0.532127
C15   C     C_R   0.880049 0.382588 0.567390 0.551050
C16   C     C_R   0.120237 0.619541 0.428822 0.528069
N1    N     N_R   0.852003 0.500177 0.497889 -0.340615
N2    N     N_R   0.147996 0.502294 0.500076 -0.331284
C17   C     C_R   0.939905 0.379248 0.568793 -0.063352
C18   C     C_R   0.060264 0.623997 0.427102 -0.097868
C19   C     C_R   0.939584 0.623533 0.426522 -0.097531
C20   C     C_R   0.060331 0.380041 0.571702 -0.067124
C21   C     C_R   0.969917 0.501621 0.498060 -0.073024
C22   C     C_R   0.030176 0.501894 0.498930 -0.054429
C23   C     C_R   0.970112 0.257892 0.639268 0.131016
C24   C     C_R   0.029502 0.745395 0.356273 0.110223
C25   C     C_R   0.970146 0.745366 0.356440 0.105835
C26   C     C_R   0.029639 0.258210 0.641829 0.044844
C27   C     C_1   0.500001 0.065228 0.500026 -0.060300
C28   C     C_1   0.500004 0.934772 0.499972 -0.060163
C29   C     C_R   0.238022 0.597985 0.605424 -0.132359
C30   C     C_R   0.762013 0.403500 0.393415 -0.130849
C31   C     C_R   0.237858 0.405449 0.394315 -0.133247
C32   C     C_R   0.762115 0.595750 0.604833 -0.128444
N3    N     N_1   0.500000 0.500000 0.073640 0.008866
N4    N     N_1   0.500000 0.500000 0.926360 0.008893
O9    O     O_2   0.848194 0.728959 0.359722 -0.545750
O10   O     O_2   0.151504 0.275083 0.641207 -0.550164
O11   O     O_2   0.849436 0.270490 0.635703 -0.496329
O12   O     O_2   0.151414 0.729848 0.359615 -0.552397
N5    N     N_3   0.940433 0.132130 0.709491 -0.361132
H5    H     H_    0.953237 0.034479 0.648212 0.197743
H6    H     H_    0.951660 0.122769 0.833998 0.211402
N6    N     N_3   0.056839 0.872710 0.281772 -0.417622
H7    H     H_    0.081902 0.927871 0.369302 0.232203
H8    H     H_    0.080997 0.837803 0.180400 0.244508
N7    N     N_3   0.942603 0.873019 0.283007 -0.417931
H9    H     H_    0.917480 0.927519 0.371084 0.241525
H10   H     H_    0.918465 0.838637 0.181466 0.245138
N8    N     N_3   0.057079 0.131456 0.717365 -0.460565
H11   H     H_    0.080805 0.166907 0.819274 0.250820
H12   H     H_    0.082553 0.076382 0.630640 0.240073
N9    N     N_R   0.326207 0.709117 0.706298 0.233197
O13   O     O_R   0.367452 0.789270 0.645334 -0.374994
O14   O     O_R   0.305532 0.744915 0.850092 -0.323062
N10   N     N_R   0.673888 0.291404 0.293353 0.233400
O15   O     O_R   0.632758 0.210970 0.354524 -0.374439
O16   O     O_R   0.694492 0.255793 0.149416 -0.320666
N11   N     N_R   0.325825 0.292318 0.293757 0.233253
O17   O     O_R   0.305081 0.256716 0.150048 -0.322951
O18   O     O_R   0.366960 0.211582 0.354699 -0.374490
N12   N     N_R   0.674088 0.707704 0.706496 0.233548
O19   O     O_R   0.694872 0.743042 0.850235 -0.321079
O20   O     O_R   0.632882 0.788418 0.645928 -0.373889

loop_
_geom_bond_atom_site_label_1
_geom_bond_atom_site_label_2
_geom_bond_distance
_ccdc_geom_bond_type
N5    H5    1.045824 S    
N11   O17   1.301444 A    
C20   C26   1.422006 A    
C25   N7    1.436995 S    
C4    C32   1.392929 A    
O3    C2    1.260686 A    
C16   O12   1.348189 S    
C17   C23   1.413252 A    
C18   C24   1.421274 A    
N12   O20   1.301181 A    
C19   C21   1.422012 A    
C10   C12   1.416981 A    
H3    C31   1.083463 S    
N6    H8    1.045147 S    
Zn2   N3    1.973126 S    
C15   C17   1.405729 A    
Zn1   N4    1.973126 S    
N7    H10   1.045140 S    
C3    C31   1.392890 A    
C23   N5    1.437562 S    
N10   O15   1.301176 A    
O1    Zn1   1.948912 S    
O2    Zn2   1.948911 S    
O5    Zn1   2.003399 S    
C1    C27   1.361610 S    
O6    Zn2   2.003397 S    
C2    C28   1.361611 S    
C7    N9    1.438457 S    
N11   O18   1.301190 A    
C5    C11   1.455179 S    
O2    C2    1.260507 A    
C9    N11   1.438545 S    
H2    C30   1.083455 S    
C13   O9    1.348143 S    
C23   C26   1.397843 A    
C7    C29   1.392748 A    
C9    C31   1.392685 A    
C16   C18   1.408756 A    
C13   N1    1.360480 A    
N9    O13   1.301161 A    
C10   C32   1.392689 A    
C14   N2    1.359560 A    
C24   N6    1.436901 S    
N12   O19   1.301436 A    
C4    C30   1.392788 A    
O7    C6    1.276898 A    
C10   N12   1.438482 S    
C13   C19   1.410067 A    
N6    H7    1.044782 S    
C17   C21   1.419654 A    
N9    O14   1.301438 A    
N8    H12   1.044744 S    
O4    Zn2   1.948811 S    
C27   C28   1.162662 T    
C21   C22   1.414894 A    
C6    C12   1.455220 S    
H4    C32   1.083465 S    
C24   C25   1.393666 A    
C8    C30   1.392747 A    
C3    N2    1.424472 S    
N5    H6    1.045820 S    
C4    N1    1.424281 S    
O1    C1    1.260511 A    
C3    C29   1.392729 A    
C26   N8    1.436753 S    
O3    Zn1   1.948810 S    
C7    C11   1.417159 A    
O6    C6    1.276803 A    
C18   C22   1.422294 A    
H1    C29   1.083458 S    
O4    C1    1.260682 A    
O8    C5    1.276845 A    
N8    H11   1.045119 S    
C20   C22   1.423631 A    
O7    Zn1   2.003214 S    
C15   N1    1.359251 A    
O8    Zn2   2.003216 S    
C16   N2    1.359618 A    
C14   O10   1.348218 S    
C15   O11   1.349822 S    
C9    C11   1.416991 A    
N7    H9    1.045119 S    
C19   C25   1.420320 A    
O5    C5    1.276835 A    
C14   C20   1.408489 A    
N3    N4    1.193044 T    
C8    C12   1.417143 A    
N10   O16   1.301442 A    
C8    N10   1.438509 S    
