data_str_m12_o9_o11_f0_bcu.sym.158
_audit_creation_date              2013-03-05T15:57:37-0500
_audit_creation_method            fapswitch 2.2
_symmetry_space_group_name_H-M    P1
_symmetry_Int_Tables_number       1
_space_group_crystal_system       triclinic
_cell_length_a                    14.857017
_cell_length_b                    15.083921
_cell_length_c                    14.894832
_cell_angle_alpha                 109.349281
_cell_angle_beta                  108.739564
_cell_angle_gamma                 110.393291
_cell_volume                      2566.98029554

loop_
_atom_site_label
_atom_site_type_symbol
_atom_site_description
_atom_site_fract_x
_atom_site_fract_y
_atom_site_fract_z
_atom_type_partial_charge
C1    C     C_R   0.908156 0.910922 0.713436 -0.149438
H1    H     H_    0.824209 0.851935 0.685285 0.103911
N1    N     N_R   0.941940 0.944580 0.650780 -0.039814
C2    C     C_R   0.093448 0.298868 0.496729 -0.155841
H2    H     H_    0.178370 0.350663 0.520357 0.096062
N2    N     N_R   0.056800 0.208900 0.502740 -0.037942
C3    C     C_R   0.246374 0.220966 0.812688 -0.156681
H3    H     H_    0.256055 0.201021 0.877067 0.128837
N3    N     N_R   0.204460 0.150250 0.707090 -0.042396
C4    C     C_R   0.743068 0.057939 0.469725 -0.111117
H4    H     H_    0.729210 0.108094 0.435897 0.094410
N4    N     N_R   0.794270 0.003240 0.446420 -0.041441
C5    C     C_R   0.246950 0.312410 0.720870 -0.122427
H5    H     H_    0.255712 0.375180 0.699124 0.091375
N5    N     N_R   0.204920 0.207570 0.650770 -0.043257
C6    C     C_R   0.747199 0.968130 0.562720 -0.133738
H6    H     H_    0.744166 0.937979 0.617611 0.131151
N6    N     N_R   0.793810 0.945920 0.502740 -0.043980
C7    C     C_R   0.910015 0.211203 0.410268 -0.128234
N7    N     N_R   0.943620 0.152590 0.446420 -0.041806
C8    C     C_R   0.090722 0.000273 0.800205 -0.132268
H7    H     H_    0.174035 0.019420 0.846677 0.104804
N8    N     N_R   0.055110 0.000900 0.707100 -0.038757
C9    C     C_R   0.001037 0.948625 0.810251 0.054026
C10   C     C_R   0.003384 0.302997 0.439920 0.068979
C11   C     C_R   0.271081 0.322459 0.822781 0.133941
C12   C     C_R   0.713337 0.038557 0.544676 0.052269
C13   C     C_R   0.702444 0.694765 0.286298 -0.155793
H8    H     H_    0.672659 0.638286 0.313616 0.090372
N9    N     N_R   0.795080 0.792430 0.349230 -0.040008
C14   C     C_R   0.307874 0.102678 0.510931 -0.153383
H9    H     H_    0.333086 0.160894 0.484646 0.119455
N10   N     N_R   0.206190 0.054080 0.497260 -0.041544
C15   C     C_R   0.092480 0.781287 0.521140 -0.111607
H10   H     H_    0.177870 0.805718 0.546644 0.114140
N11   N     N_R   0.056380 0.847410 0.553580 -0.041951
C16   C     C_R   0.911842 0.933122 0.188059 -0.127171
H11   H     H_    0.827396 0.883436 0.122977 0.128678
N12   N     N_R   0.944890 0.999100 0.292900 -0.041828
C17   C     C_R   0.095246 0.021341 0.282911 -0.123941
H12   H     H_    0.181221 0.049769 0.308866 0.100309
N13   N     N_R   0.058060 0.055420 0.349220 -0.041828
C18   C     C_R   0.908483 0.685026 0.440498 -0.134897
H13   H     H_    0.823938 0.618853 0.396346 0.096957
N14   N     N_R   0.943200 0.791100 0.497260 -0.039980
C19   C     C_R   0.701912 0.787818 0.196934 -0.113992
H14   H     H_    0.673168 0.816542 0.142423 0.134130
N15   N     N_R   0.795540 0.849750 0.292910 -0.047722
C20   C     C_R   0.307069 0.013612 0.602717 -0.140035
H15   H     H_    0.331905 0.991555 0.664508 0.092283
N16   N     N_R   0.205730 0.996760 0.553580 -0.040710
Ni1   Ni    Ni4+2 0.869690 0.869690 0.500000 0.212830
Ni2   Ni    Ni4+2 0.130310 0.130310 0.500000 0.212163
Ni3   Ni    Ni4+2 0.129250 0.998840 0.629170 0.212020
Ni4   Ni    Ni4+2 0.870750 0.001160 0.370830 0.229573
C21   C     C_R   0.642935 0.690076 0.190608 0.147332
C22   C     C_R   0.375022 0.082682 0.580519 0.072225
C23   C     C_R   0.002413 0.677622 0.456889 0.043585
C24   C     C_R   0.005524 0.943270 0.179888 0.052090
H16   H     H_    0.621579 0.717262 0.712624 0.097627
C25   C     C_R   0.537175 0.759574 0.602808 -0.139439
H17   H     H_    0.479024 0.675555 0.538398 0.108541
C26   C     C_R   0.533011 0.844215 0.586279 -0.159609
H18   H     H_    0.471419 0.825145 0.508648 0.122590
C27   C     C_R   0.609977 0.953312 0.668992 0.093661
C28   C     C_R   0.687544 0.977023 0.770116 -0.178183
H19   H     H_    0.746161 0.060834 0.835036 0.122515
C29   C     C_R   0.692086 0.892109 0.785858 -0.054144
H20   H     H_    0.754667 0.911267 0.862695 0.117229
C30   C     C_R   0.617417 0.783435 0.701927 -0.093994
C31   C     C_R   0.535756 0.071725 0.672685 -0.230405
H21   H     H_    0.498900 0.037230 0.713582 0.121339
C32   C     C_R   0.494155 0.122533 0.622378 0.042743
C33   C     C_R   0.556391 0.182377 0.586856 0.035330
C34   C     C_R   0.637570 0.161999 0.573521 -0.232457
H22   H     H_    0.683372 0.204792 0.543153 0.124482
C35   C     C_R   0.654142 0.081943 0.592100 0.065463
C36   C     C_R   0.606979 0.041809 0.649484 0.033550
C37   C     C_R   0.532026 0.267631 0.468308 -0.174657
H23   H     H_    0.537272 0.207481 0.408945 0.114650
C38   C     C_R   0.515130 0.345829 0.447150 -0.102760
H24   H     H_    0.508620 0.346275 0.372819 0.116358
C39   C     C_R   0.506012 0.423007 0.521503 -0.102743
H25   H     H_    0.492609 0.483286 0.504847 0.097447
C40   C     C_R   0.513887 0.422237 0.617232 -0.113078
H26   H     H_    0.506033 0.481654 0.674188 0.108930
C41   C     C_R   0.531285 0.344545 0.639122 -0.139671
H27   H     H_    0.537210 0.345027 0.713702 0.115046
C42   C     C_R   0.539788 0.265940 0.564394 0.108341
C43   C     C_R   0.782534 0.097639 0.106576 -0.253206
H28   H     H_    0.805190 0.041786 0.066530 0.153129
C44   C     C_R   0.864627 0.206721 0.182354 -0.197628
H29   H     H_    0.949156 0.232731 0.200292 0.133401
C45   C     C_R   0.839258 0.279825 0.240512 0.142248
C46   C     C_R   0.729123 0.244251 0.215861 -0.236678
H30   H     H_    0.707941 0.299178 0.260177 0.130787
C47   C     C_R   0.647336 0.134821 0.141171 -0.264512
H31   H     H_    0.563987 0.107875 0.127479 0.151380
C48   C     C_R   0.673969 0.059795 0.088458 0.427610
C49   C     C_R   0.929986 0.482185 0.347591 -0.256597
H32   H     H_    0.866483 0.478200 0.282054 0.130239
C50   C     C_R   0.010361 0.582214 0.443490 0.071452
C51   C     C_R   0.094179 0.589145 0.529878 0.022701
C52   C     C_R   0.095650 0.496053 0.517846 -0.240085
H33   H     H_    0.156894 0.501869 0.586987 0.134810
C53   C     C_R   0.010823 0.395152 0.426918 0.056490
C54   C     C_R   0.929007 0.386887 0.338219 0.035312
C55   C     C_R   0.286013 0.744049 0.672477 -0.207115
H34   H     H_    0.316606 0.713575 0.619625 0.129794
C56   C     C_R   0.358633 0.842729 0.771292 -0.037568
H35   H     H_    0.444836 0.887494 0.794724 0.146311
C57   C     C_R   0.319640 0.884351 0.839005 -0.041334
H36   H     H_    0.375629 0.961398 0.914839 0.116928
C58   C     C_R   0.208484 0.826326 0.809120 -0.134236
H37   H     H_    0.178786 0.857830 0.862363 0.118237
C59   C     C_R   0.135220 0.728453 0.709662 -0.112589
H38   H     H_    0.048668 0.685598 0.685900 0.116919
C60   C     C_R   0.173169 0.687983 0.639597 0.102402
C61   C     C_2   0.365503 0.520178 0.933383 -0.114984
C62   C     C_2   0.320689 0.421989 0.925086 -0.203122
H39   H     H_    0.344339 0.529240 0.861469 0.128870
H40   H     H_    0.336730 0.414638 0.997668 0.137249
C63   C     C_2   0.463006 0.614899 0.034928 -0.097424
C64   C     C_2   0.532788 0.601541 0.105338 -0.228675
H41   H     H_    0.485769 0.694750 0.042692 0.173984
H42   H     H_    0.513422 0.522042 0.096979 0.129290
H43   H     H_    0.450464 0.386092 0.161092 0.094116
C65   C     C_R   0.396399 0.217278 0.112515 -0.114939
H44   H     H_    0.478461 0.229049 0.137234 0.105343
C66   C     C_R   0.306628 0.114029 0.069273 -0.196493
H45   H     H_    0.320170 0.046506 0.061964 0.121673
C67   C     C_R   0.199861 0.098452 0.036817 0.113791
C68   C     C_R   0.184561 0.187759 0.050086 -0.121973
H46   H     H_    0.103308 0.177716 0.028273 0.110208
C69   C     C_R   0.274855 0.291197 0.095249 -0.137321
H47   H     H_    0.262863 0.360113 0.107142 0.113765
C70   C     C_R   0.380625 0.305904 0.126031 -0.119002
C71   C     C_R   0.110926 0.971031 0.086579 -0.217641
H48   H     H_    0.187242 0.023939 0.163584 0.128334
C72   C     C_R   0.013504 0.904345 0.079878 0.054374
C73   C     C_R   0.919301 0.827399 0.976449 0.026031
C74   C     C_R   0.916951 0.839332 0.886230 -0.254443
H49   H     H_    0.844087 0.782295 0.806397 0.126974
C75   C     C_R   0.007669 0.926975 0.900648 0.058323
C76   C     C_R   0.106654 0.992666 0.002994 0.006619
C77   C     C_R   0.850112 0.663894 0.999015 -0.117913
H50   H     H_    0.933462 0.678669 0.035637 0.111353
C78   C     C_R   0.764825 0.575382 0.988022 -0.107149
H51   H     H_    0.782482 0.522502 0.015881 0.110108
C79   C     C_R   0.656878 0.555313 0.941385 -0.102916
H52   H     H_    0.590935 0.487050 0.933199 0.111935
C80   C     C_R   0.634268 0.624054 0.906238 -0.085151
H53   H     H_    0.551005 0.609635 0.871692 0.124545
C81   C     C_R   0.719216 0.711953 0.916314 -0.179674
H54   H     H_    0.701298 0.766435 0.892660 0.153090
C82   C     C_R   0.827777 0.732559 0.962376 0.101180
N17   N     N_R   0.592720 0.945304 0.021545 0.209505
O1    O     O_R   0.609932 0.878094 0.957885 -0.480909
O2    O     O_R   0.505858 0.905856 0.031755 -0.453861
H55   H     H_    0.824969 0.183870 0.358449 0.117242

loop_
_geom_bond_atom_site_label_1
_geom_bond_atom_site_label_2
_geom_bond_distance
_ccdc_geom_bond_type
C4    C12   1.403565 A    
C25   C30   1.395847 A    
N15   Ni4   1.855616 S    
C28   C29   1.396119 A    
C41   H27   1.083139 S    
C26   C27   1.404761 A    
N17   O1    1.300667 A    
C32   C33   1.413816 A    
N1    N8    1.370560 A    
C46   H30   1.083499 S    
C34   H22   1.081395 S    
C65   H44   1.082079 S    
C57   C58   1.397718 A    
C2    C10   1.369610 A    
C13   C21   1.377705 A    
N6    Ni1   1.869921 S    
C63   C64   1.342506 D    
C35   C36   1.421303 A    
C55   H34   1.083197 S    
C3    C11   1.386160 A    
C48   N17   1.437521 S    
C7    H55   1.077816 S    
C21   C64   1.446393 S    
C33   C42   1.484797 S    
N9    N15   1.389784 A    
C13   H8    1.081579 S    
C78   C79   1.397396 A    
C15   H10   1.077645 S    
N13   Ni2   1.843077 S    
C63   H41   1.084972 S    
C53   C54   1.411361 A    
C71   C76   1.376008 A    
C20   C22   1.386972 A    
C59   H38   1.083201 S    
C69   C70   1.398405 A    
C1    H1    1.079993 S    
C22   C32   1.477814 S    
C25   C26   1.395708 A    
C56   H35   1.082563 S    
C52   H33   1.085632 S    
C18   C23   1.388274 A    
C47   C48   1.405934 A    
N12   Ni4   1.839319 S    
C7    N7    1.330885 A    
C55   C56   1.398085 A    
C29   H20   1.080580 S    
C20   N16   1.330063 A    
C14   N10   1.338934 A    
C23   C50   1.438091 S    
C69   H47   1.082150 S    
C81   C82   1.402509 A    
C6    C12   1.388756 A    
C17   N13   1.325528 A    
C28   H19   1.083160 S    
N17   O2    1.301340 A    
C17   C24   1.382983 A    
C8    H7    1.078206 S    
C25   H17   1.082418 S    
N7    Ni4   1.856429 S    
C52   C53   1.392683 A    
C57   H36   1.082179 S    
C38   C39   1.397166 A    
C62   H40   1.081753 S    
C10   C53   1.437727 S    
C47   H31   1.082706 S    
N12   N13   1.370562 A    
C77   C78   1.399185 A    
C61   H39   1.084202 S    
N10   Ni2   1.869922 S    
C19   N15   1.335287 A    
C45   C54   1.482878 S    
C33   C34   1.400139 A    
C77   H50   1.083409 S    
C40   C41   1.398796 A    
C55   C60   1.405577 A    
C3    H3    1.078620 S    
C72   C73   1.406025 A    
C2    N2    1.320232 A    
C4    H4    1.078474 S    
C31   C32   1.394238 A    
C6    H6    1.064482 S    
N14   Ni1   1.870449 S    
C40   H26   1.081304 S    
C38   H24   1.082475 S    
C26   H18   1.083246 S    
C1    N1    1.348323 A    
C66   C67   1.406190 A    
C18   H13   1.080284 S    
C16   H11   1.075754 S    
C18   N14   1.337584 A    
C43   C44   1.398232 A    
C39   H25   1.082506 S    
H16   C30   1.080550 S    
C61   C62   1.338184 D    
C44   C45   1.405297 A    
N11   N14   1.370684 A    
C78   H51   1.082793 S    
C15   C23   1.370709 A    
C34   C35   1.407217 A    
C81   H54   1.074441 S    
C16   C24   1.395774 A    
C4    N4    1.340600 A    
C65   C70   1.397453 A    
C6    N6    1.323185 A    
C17   H12   1.075199 S    
C39   C40   1.397013 A    
C80   C81   1.397674 A    
C20   H15   1.078972 S    
C45   C46   1.404151 A    
C8    N8    1.320583 A    
C68   H46   1.083387 S    
C79   C80   1.396964 A    
C5    C11   1.384073 A    
C51   C60   1.484757 S    
C67   C76   1.482116 S    
N2    Ni2   1.870450 S    
N4    N6    1.389784 A    
N5    Ni2   1.842825 S    
C43   C48   1.406001 A    
N8    Ni3   1.839319 S    
C64   H42   1.083453 S    
C49   C50   1.401086 A    
C3    N3    1.339943 A    
N9    Ni1   1.842828 S    
C19   H14   1.081008 S    
C49   C54   1.391808 A    
C27   C36   1.469185 S    
C79   H52   1.082567 S    
C14   H9    1.075873 S    
C11   C62   1.452725 S    
C2    H2    1.082410 S    
C12   C35   1.481432 S    
C65   C66   1.398175 A    
C58   C59   1.397726 A    
N1    Ni1   1.843076 S    
C46   C47   1.398384 A    
C73   C82   1.483874 S    
C58   H37   1.081960 S    
C71   C72   1.393810 A    
C61   C63   1.464664 S    
N10   N16   1.389784 A    
N2    N7    1.370683 A    
C37   C38   1.398382 A    
C75   C76   1.418263 A    
N16   Ni3   1.839343 S    
C14   C22   1.383121 A    
C5    N5    1.334032 A    
C66   H45   1.083098 S    
N3    N5    1.389786 A    
C31   H21   1.080464 S    
C16   N12   1.344261 A    
C73   C74   1.404971 A    
C43   H28   1.082823 S    
C24   C72   1.469762 S    
C9    C75   1.468952 S    
C13   N9    1.336439 A    
C44   H29   1.083530 S    
C15   N11   1.317540 A    
C59   C60   1.405505 A    
C67   C68   1.404008 A    
C74   C75   1.412252 A    
C50   C51   1.417016 A    
C7    C10   1.378045 A    
C56   C57   1.398672 A    
C37   C42   1.407985 A    
N4    Ni4   1.839343 S    
N11   Ni3   1.856429 S    
C71   H48   1.079457 S    
C37   H23   1.083062 S    
C77   C82   1.406569 A    
C80   H53   1.082448 S    
C1    C9    1.392183 A    
C29   C30   1.401505 A    
C27   C28   1.401832 A    
C8    C9    1.373552 A    
C19   C21   1.380176 A    
C51   C52   1.364377 A    
C68   C69   1.397305 A    
C41   C42   1.407445 A    
C74   H49   1.082553 S    
C49   H32   1.084662 S    
N3    Ni3   1.855616 S    
H43   C70   1.082107 S    
C5    H5    1.078302 S    
C31   C36   1.381006 A    
