data_str_m2_o9_o18_f0_pcu.sym.139
_audit_creation_date              2013-03-05T16:48:30-0500
_audit_creation_method            fapswitch 2.2
_symmetry_space_group_name_H-M    P1
_symmetry_Int_Tables_number       1
_space_group_crystal_system       triclinic
_cell_length_a                    10.898837
_cell_length_b                    14.672763
_cell_length_c                    14.779501
_cell_angle_alpha                 65.177083
_cell_angle_beta                  102.078113
_cell_angle_gamma                 101.817741
_cell_volume                      2079.33802681

loop_
_atom_site_label
_atom_site_type_symbol
_atom_site_description
_atom_site_fract_x
_atom_site_fract_y
_atom_site_fract_z
_atom_type_partial_charge
O1    O     O_R   0.455540 0.022090 0.338120 -0.554971
O2    O     O_R   0.544460 0.977910 0.661880 -0.557551
O3    O     O_R   0.512510 0.160150 0.379180 -0.600424
O4    O     O_R   0.487490 0.839850 0.620820 -0.589878
C1    C     C_R   0.478594 0.120284 0.312371 0.834409
C2    C     C_R   0.521114 0.880292 0.687635 0.822689
O5    O     O_R   0.291160 0.930970 0.479480 -0.594491
O6    O     O_R   0.708840 0.069030 0.520520 -0.593298
O7    O     O_R   0.348130 0.069020 0.520540 -0.569853
O8    O     O_R   0.651870 0.930980 0.479460 -0.592720
C3    C     C_R   0.263520 0.998666 0.504922 0.785235
C4    C     C_R   0.737287 0.996527 0.502298 0.766102
Cu1   Cu    Cu3+1 0.466270 0.918260 0.475690 0.945492
Cu2   Cu    Cu3+1 0.533730 0.081740 0.524310 0.946353
H1    H     H_    0.368092 0.305807 0.718863 0.182791
H2    H     H_    0.671134 0.625875 0.361094 0.127491
C5    C     C_R   0.340194 0.155948 0.717979 -0.014341
C6    C     C_R   0.702669 0.785955 0.326783 -0.099583
H3    H     H_    0.417616 0.128920 0.776957 0.210804
H4    H     H_    0.647145 0.804861 0.253195 0.181848
C7    C     C_R   0.267506 0.091267 0.673948 -0.121936
C8    C     C_R   0.763486 0.862309 0.360121 -0.109316
H5    H     H_    0.286635 0.013734 0.702335 0.131402
H6    H     H_    0.760928 0.940767 0.311035 0.106782
C9    C     C_R   0.171728 0.127090 0.592924 0.102981
C10   C     C_R   0.833955 0.837900 0.455839 0.133726
C11   C     C_R   0.144372 0.226416 0.562100 -0.088117
C12   C     C_R   0.848895 0.736048 0.515959 -0.204741
H7    H     H_    0.068995 0.255345 0.501533 0.125091
H8    H     H_    0.909364 0.716282 0.587804 0.125538
C13   C     C_R   0.213256 0.289131 0.609514 -0.131687
C14   C     C_R   0.790684 0.659931 0.481725 -0.157493
H9    H     H_    0.191721 0.365423 0.585210 0.138525
H10   H     H_    0.803932 0.581774 0.527838 0.131647
C15   C     C_R   0.312354 0.254646 0.686085 -0.085710
C16   C     C_R   0.716680 0.684809 0.387453 -0.095202
C17   C     C_R   0.959112 0.054306 0.544448 -0.259066
C18   C     C_R   0.043257 0.924522 0.485410 -0.228167
H11   H     H_    0.926957 0.102356 0.571438 0.156135
H12   H     H_    0.074236 0.873148 0.461864 0.173787
C19   C     C_R   0.870954 0.989060 0.508769 -0.085747
C20   C     C_R   0.131144 0.995059 0.513970 -0.086628
C21   C     C_R   0.914491 0.918696 0.484275 0.000805
C22   C     C_R   0.088615 0.058150 0.548741 0.009279
C23   C     C_R   0.461949 0.190272 0.204897 -0.227716
C24   C     C_R   0.528428 0.813609 0.795750 -0.221831
C25   C     C_R   0.409890 0.224445 0.026491 0.273026
C26   C     C_R   0.591863 0.783615 0.972885 0.287175
C27   C     C_R   0.442603 0.157072 0.125732 0.381165
C28   C     C_R   0.593170 0.847871 0.871055 0.369229
C29   C     C_R   0.468066 0.293914 0.181497 -0.341619
C30   C     C_R   0.469797 0.713550 0.823486 -0.329967
C31   C     C_R   0.443191 0.364489 0.081922 0.042160
C32   C     C_R   0.476860 0.644628 0.924971 0.024717
C33   C     C_R   0.406606 0.327186 0.004750 -0.045023
C34   C     C_R   0.535286 0.681920 0.000193 -0.029306
C35   C     C_R   0.459317 0.471225 0.056187 0.119346
C36   C     C_R   0.436827 0.538481 0.953161 0.089953
C37   C     C_R   0.383153 0.496611 0.881098 -0.218168
C38   C     C_R   0.503234 0.513366 0.129112 -0.255395
C39   C     C_R   0.370046 0.393437 0.906328 -0.145502
C40   C     C_R   0.538966 0.616434 0.101526 -0.144465
H13   H     H_    0.333067 0.366050 0.847073 0.173905
H14   H     H_    0.574815 0.643632 0.161024 0.178755
H15   H     H_    0.422442 0.690822 0.763387 0.200497
H16   H     H_    0.493853 0.317703 0.243038 0.172263
H17   H     H_    0.353764 0.541266 0.803163 0.161852
H18   H     H_    0.515606 0.469086 0.208863 0.124706
N1    N     N_R   0.584450 0.204570 0.560790 -0.204037
N2    N     N_R   0.415550 0.795430 0.439210 -0.209437
C41   C     C_R   0.681989 0.269707 0.684600 -0.263759
C42   C     C_R   0.277644 0.712308 0.341803 -0.272644
C43   C     C_R   0.663323 0.195005 0.647127 0.069877
C44   C     C_R   0.317417 0.796668 0.365541 0.096519
C45   C     C_R   0.525550 0.288637 0.506281 0.077675
C46   C     C_R   0.476936 0.712507 0.492189 0.088432
C47   C     C_R   0.533601 0.364973 0.543408 -0.009558
C48   C     C_R   0.436272 0.621622 0.475930 -0.001748
C49   C     C_R   0.616250 0.354005 0.633787 0.074218
C50   C     C_R   0.337669 0.625202 0.395922 0.071922
C51   C     C_R   0.462531 0.449785 0.495981 -0.086162
C52   C     C_R   0.491769 0.529558 0.533082 -0.083819
C53   C     C_R   0.570773 0.512470 0.627633 0.426598
C54   C     C_R   0.358466 0.454826 0.417483 0.420947
C55   C     C_R   0.629166 0.424163 0.676222 -0.270794
C56   C     C_R   0.296851 0.541572 0.371190 -0.288705
H19   H     H_    0.684719 0.408855 0.749624 0.165573
H20   H     H_    0.213921 0.543494 0.315657 0.152405
H21   H     H_    0.559829 0.720983 0.543378 0.172553
H22   H     H_    0.473499 0.293659 0.434759 0.163404
H23   H     H_    0.270280 0.863561 0.325012 0.149728
H24   H     H_    0.709211 0.127935 0.687789 0.156413
H25   H     H_    0.744472 0.260136 0.754555 0.145372
H26   H     H_    0.200223 0.715067 0.281596 0.156545
N3    N     N_R   0.400150 0.191456 0.946615 0.097936
O9    O     O_R   0.328193 0.108181 0.948981 -0.354076
O10   O     O_R   0.484833 0.231490 0.885624 -0.466347
N4    N     N_R   0.655975 0.821277 0.047785 0.102490
O11   O     O_R   0.756913 0.784510 0.105506 -0.418389
O12   O     O_R   0.625023 0.902239 0.047678 -0.381979
O13   O     O_3   0.572399 0.572145 0.680580 -0.626398
C57   C     C_3   0.697211 0.601248 0.720937 0.028714
H27   H     H_    0.712533 0.685140 0.694480 0.156276
H28   H     H_    0.773308 0.580968 0.695633 0.127925
C58   C     C_3   0.712377 0.556298 0.836098 -0.322918
H29   H     H_    0.653615 0.592347 0.860562 0.237453
H30   H     H_    0.679779 0.473606 0.865601 0.234644
C59   C     C_3   0.849553 0.574991 0.881539 -0.930551
H31   H     H_    0.911199 0.537166 0.860853 0.256394
H32   H     H_    0.856507 0.543559 0.964866 0.267196
H33   H     H_    0.883177 0.657566 0.854252 0.253904
O14   O     O_3   0.299430 0.367214 0.403644 -0.624127
C60   C     C_3   0.265857 0.381843 0.300909 0.015693
H34   H     H_    0.310630 0.327269 0.289046 0.165798
H35   H     H_    0.299594 0.458600 0.246645 0.139178
C61   C     C_3   0.122574 0.356587 0.277486 -0.330417
H36   H     H_    0.092747 0.276712 0.326783 0.224589
H37   H     H_    0.072903 0.406388 0.292930 0.211605
C62   C     C_3   0.083767 0.369838 0.167696 -0.900488
H38   H     H_    0.110018 0.449724 0.116759 0.260598
H39   H     H_    0.979682 0.349936 0.153160 0.254875
H40   H     H_    0.131028 0.319424 0.151045 0.261164
O15   O     O_3   0.661552 0.943518 0.846705 -0.568103
C63   C     C_3   0.786681 0.939322 0.836801 0.068344
H41   H     H_    0.792224 0.960634 0.755987 0.136185
H42   H     H_    0.818297 0.862846 0.880406 0.130957
C64   C     C_3   0.878459 0.014157 0.874288 -0.321111
H43   H     H_    0.844096 0.089229 0.840169 0.207781
H44   H     H_    0.883155 0.986208 0.957294 0.260809
C65   C     C_3   0.010954 0.026962 0.848247 -0.867576
H45   H     H_    0.049123 0.953283 0.883591 0.268348
H46   H     H_    0.074834 0.081479 0.876612 0.290716
H47   H     H_    0.008660 0.057020 0.765381 0.244646
O16   O     O_3   0.459860 0.060301 0.142050 -0.555348
C66   C     C_3   0.590672 0.050468 0.164962 0.103898
H48   H     H_    0.596456 0.969505 0.186827 0.192804
H49   H     H_    0.636736 0.070137 0.230163 0.099893
C67   C     C_3   0.664558 0.111995 0.075146 -0.298303
H50   H     H_    0.620202 0.090950 0.010643 0.306713
H51   H     H_    0.663388 0.194288 0.052090 0.206966
C68   C     C_3   0.802648 0.092754 0.102127 -0.900390
H52   H     H_    0.850293 0.116787 0.164259 0.242832
H53   H     H_    0.852721 0.136990 0.035444 0.257857
H54   H     H_    0.809183 0.011212 0.125691 0.296074

loop_
_geom_bond_atom_site_label_1
_geom_bond_atom_site_label_2
_geom_bond_distance
_ccdc_geom_bond_type
C66   C67   1.539134 S    
C27   O16   1.382947 S    
O13   C57   1.422999 S    
C11   H7    1.082781 S    
C31   C33   1.415599 A    
N3    O9    1.300901 A    
C25   N3    1.430215 S    
C41   C49   1.401821 A    
C51   C52   1.444047 A    
O15   C63   1.417940 S    
C25   C27   1.401337 A    
C61   H36   1.111832 S    
O5    C3    1.304730 A    
C58   H30   1.110196 S    
C54   O14   1.391141 S    
C57   C58   1.530874 S    
O1    C1    1.309650 A    
C14   C16   1.395825 A    
C25   C33   1.409833 A    
C46   C48   1.419474 A    
C18   C20   1.399415 A    
C68   H53   1.110543 S    
C48   C50   1.412471 A    
Cu1   N2    2.031615 S    
C23   C29   1.401124 A    
C24   C30   1.397076 A    
C56   H20   1.082551 S    
C59   H31   1.110887 S    
C3    C20   1.464831 S    
C38   C40   1.382904 A    
O4    Cu1   1.951234 S    
C39   H13   1.082740 S    
C40   H14   1.082663 S    
C45   H22   1.070228 S    
C37   H17   1.075425 S    
C61   H37   1.110360 S    
N2    C44   1.354155 A    
C50   C56   1.386442 A    
C13   H9    1.082553 S    
N1    C43   1.351628 A    
C47   C51   1.440525 A    
C66   H48   1.104292 S    
C46   H21   1.072834 S    
C60   C61   1.529786 S    
C42   H26   1.083961 S    
C26   C28   1.402214 A    
C66   H49   1.111599 S    
Cu1   Cu2   2.704530 S    
C19   C21   1.417212 A    
O2    C2    1.301798 A    
C20   C22   1.418019 A    
C9    C22   1.483889 S    
H1    C15   1.078245 S    
O14   C60   1.418252 S    
C30   C32   1.410069 A    
C10   C21   1.479938 S    
C47   C49   1.413115 A    
C58   C59   1.525770 S    
C32   C34   1.418688 A    
C37   C39   1.382360 A    
C55   H19   1.081738 S    
C11   C13   1.392747 A    
C61   C62   1.526838 S    
C12   C14   1.398485 A    
C42   C44   1.387196 A    
C68   H54   1.110192 S    
C41   C43   1.385915 A    
C31   C35   1.429455 A    
C35   C38   1.412637 A    
C36   C37   1.412593 A    
C1    C23   1.482117 S    
C67   C68   1.527144 S    
C5    C7    1.395213 A    
C29   C31   1.407152 A    
C29   H16   1.071220 S    
C14   H10   1.082050 S    
C44   H23   1.081754 S    
C65   H46   1.109791 S    
O7    Cu2   1.984107 S    
C64   H44   1.111622 S    
C4    C19   1.463465 S    
O7    C3    1.300130 A    
C48   C52   1.437674 A    
C23   C27   1.408528 A    
O6    C4    1.308035 A    
C57   H28   1.113819 S    
C45   C47   1.420904 A    
C34   C40   1.396494 A    
C62   H39   1.110543 S    
O8    C4    1.296110 A    
C63   C64   1.530417 S    
C41   H25   1.083982 S    
O4    C2    1.308834 A    
C53   C55   1.401729 A    
C52   C53   1.430990 A    
N4    O12   1.298975 A    
C7    H5    1.083273 S    
N2    C46   1.362117 A    
Cu2   N1    2.031615 S    
C8    H6    1.075087 S    
C65   H47   1.110515 S    
O1    Cu1   1.959919 S    
C64   H43   1.109702 S    
C49   C55   1.385131 A    
C51   C54   1.431599 A    
C63   H42   1.118687 S    
C60   H34   1.106247 S    
C32   C36   1.429185 A    
C62   H40   1.111313 S    
C26   C34   1.411116 A    
C7    C9    1.404647 A    
O6    Cu2   1.969662 S    
C2    C24   1.477449 S    
C6    C8    1.399958 A    
C28   O15   1.383566 S    
C43   H24   1.076564 S    
C54   C56   1.402045 A    
O3    C1    1.302834 A    
O8    Cu1   1.984107 S    
C62   H38   1.111035 S    
N3    O10   1.300357 A    
O16   C66   1.417494 S    
C67   H51   1.110522 S    
O3    Cu2   1.951234 S    
C9    C11   1.408582 A    
C26   N4    1.432062 S    
C58   H29   1.103133 S    
C24   C28   1.408965 A    
C10   C12   1.404849 A    
C59   H33   1.111143 S    
C17   C22   1.390056 A    
C12   H8    1.082962 S    
C65   H45   1.110750 S    
C64   C65   1.526244 S    
C18   C21   1.385409 A    
C17   H11   1.083901 S    
C68   H52   1.111104 S    
H2    C16   1.082601 S    
C18   H12   1.084885 S    
C35   C36   1.426068 A    
C33   C39   1.395882 A    
C13   C15   1.390975 A    
C5    H3    1.080796 S    
C59   H32   1.110629 S    
N1    C45   1.362407 A    
C6    H4    1.079823 S    
C17   C19   1.397422 A    
C57   H27   1.111288 S    
O2    Cu2   1.959919 S    
C67   H50   1.109509 S    
O5    Cu1   1.969661 S    
C38   H18   1.075156 S    
C42   C50   1.402276 A    
N4    O11   1.301134 A    
C8    C10   1.397130 A    
C53   O13   1.393724 S    
C5    C15   1.399437 A    
C6    C16   1.395736 A    
C30   H15   1.073749 S    
C63   H41   1.112157 S    
C60   H35   1.114547 S    
