data_str_m9_o18_o18_f0_sra.sym.15
_audit_creation_date              2012-12-11T15:26:33-0500
_audit_creation_method            fapswitch 2.2
_symmetry_space_group_name_H-M    P1
_symmetry_Int_Tables_number       1
_space_group_crystal_system       triclinic
_cell_length_a                    7.217219
_cell_length_b                    12.051928
_cell_length_c                    29.130219
_cell_angle_alpha                 89.989704
_cell_angle_beta                  88.04656
_cell_angle_gamma                 90.087105
_cell_volume                      2532.31185366

loop_
_atom_site_label
_atom_site_type_symbol
_atom_type_description
_atom_site_fract_x
_atom_site_fract_y
_atom_site_fract_z
_atom_type_partial_charge
O1    O     O_R   0.647170 0.849180 0.201220 -0.534612
O2    O     O_R   0.352830 0.150820 0.798780 -0.533149
O3    O     O_R   0.352830 0.150820 0.701220 -0.534345
O4    O     O_R   0.647170 0.849180 0.298780 -0.539498
O5    O     O_R   0.147170 0.650820 0.298780 -0.546454
O6    O     O_R   0.852830 0.349180 0.701220 -0.545017
O7    O     O_R   0.852830 0.349180 0.798780 -0.542972
O8    O     O_R   0.147170 0.650820 0.201220 -0.544069
O9    O     O_R   0.317430 0.862210 0.298450 -0.536129
O10   O     O_R   0.682570 0.137790 0.701550 -0.546934
O11   O     O_R   0.682570 0.137790 0.798450 -0.542147
O12   O     O_R   0.317430 0.862210 0.201550 -0.539063
O13   O     O_R   0.817430 0.637790 0.201550 -0.537466
O14   O     O_R   0.182570 0.362210 0.798450 -0.537053
O15   O     O_R   0.182570 0.362210 0.701550 -0.533161
O16   O     O_R   0.817430 0.637790 0.298450 -0.533646
H1    H     H_    0.833824 0.237201 0.459763 0.142579
H2    H     H_    0.163608 0.763189 0.540259 0.142811
H3    H     H_    0.830263 0.760552 0.958477 0.140370
H4    H     H_    0.169888 0.239475 0.041524 0.140367
H5    H     H_    0.659770 0.262547 0.041842 0.141347
H6    H     H_    0.341586 0.736619 0.957902 0.141365
H7    H     H_    0.610549 0.727857 0.542309 0.140148
H8    H     H_    0.381673 0.270128 0.458200 0.140372
C1    C     C_R   0.483537 0.888056 0.313498 0.752112
C2    C     C_R   0.516405 0.111619 0.686632 0.737417
C3    C     C_R   0.511829 0.111671 0.813295 0.750883
C4    C     C_R   0.488168 0.888148 0.186628 0.755196
C5    C     C_R   0.988218 0.611581 0.186677 0.695195
C6    C     C_R   0.011782 0.388415 0.813325 0.697133
C7    C     C_R   0.016898 0.388651 0.686609 0.729235
C8    C     C_R   0.983097 0.611335 0.313386 0.727408
H9    H     H_    0.823479 0.272070 0.378850 0.129778
H10   H     H_    0.174997 0.728169 0.621131 0.133432
H11   H     H_    0.833517 0.726229 0.877258 0.140719
H12   H     H_    0.166542 0.273779 0.122746 0.141239
H13   H     H_    0.654460 0.228261 0.123158 0.130565
H14   H     H_    0.346286 0.771147 0.876551 0.130671
H15   H     H_    0.611159 0.761570 0.623330 0.121039
H16   H     H_    0.379408 0.236082 0.376957 0.127022
H17   H     H_    0.923300 0.349051 0.602005 0.113306
H18   H     H_    0.076970 0.650761 0.397986 0.113215
H19   H     H_    0.914681 0.651595 0.101217 0.111594
H20   H     H_    0.085312 0.348396 0.898786 0.111660
H21   H     H_    0.578842 0.153459 0.898970 0.110213
H22   H     H_    0.421508 0.845969 0.100878 0.110100
H23   H     H_    0.548291 0.842049 0.399221 0.109173
H24   H     H_    0.456566 0.157668 0.600926 0.109391
O17   O     O_3   0.480630 0.680630 0.250000 -0.385584
O18   O     O_3   0.519370 0.319370 0.750000 -0.383068
O19   O     O_3   0.980630 0.819370 0.250000 -0.373578
O20   O     O_3   0.019370 0.180630 0.750000 -0.375695
V1    V     V_3+5 0.205800 0.762860 0.250000 1.439766
V2    V     V_3+5 0.794200 0.237140 0.750000 1.422226
V3    V     V_3+5 0.705800 0.737140 0.250000 1.448387
V4    V     V_3+5 0.294200 0.262860 0.750000 1.451240
H25   H     H_    0.883162 0.295084 0.535990 0.129181
H26   H     H_    0.114450 0.705264 0.464036 0.129153
H27   H     H_    0.875320 0.703959 0.035046 0.128288
H28   H     H_    0.124813 0.296065 0.964955 0.128315
H29   H     H_    0.618498 0.205477 0.965162 0.130433
H30   H     H_    0.383047 0.793648 0.034618 0.130525
H31   H     H_    0.578315 0.787461 0.465571 0.130218
H32   H     H_    0.415855 0.210782 0.534877 0.130349
C9    C     C_R   0.979126 0.531181 0.351660 -0.034890
C10   C     C_R   0.020760 0.468777 0.648324 -0.035839
C11   C     C_R   0.993705 0.467651 0.851642 -0.084995
C12   C     C_R   0.006297 0.532344 0.148361 -0.084851
C13   C     C_R   0.505299 0.967016 0.148261 -0.033910
C14   C     C_R   0.494801 0.032595 0.851575 -0.033604
C15   C     C_R   0.516846 0.031716 0.648473 -0.045691
C16   C     C_R   0.482834 0.967454 0.351836 -0.032357
C17   C     C_R   0.879907 0.354509 0.383866 -0.225070
C18   C     C_R   0.118932 0.645641 0.616122 -0.222417
C19   C     C_R   0.888886 0.643848 0.882819 -0.143992
C20   C     C_R   0.111162 0.356157 0.117184 -0.143944
C21   C     C_R   0.602919 0.144965 0.117445 -0.222912
C22   C     C_R   0.397779 0.854440 0.882293 -0.222009
C23   C     C_R   0.576512 0.848009 0.617872 -0.215018
C24   C     C_R   0.416875 0.150163 0.382669 -0.234267
C25   C     C_R   0.904366 0.424560 0.345955 0.191202
C26   C     C_R   0.095130 0.575500 0.654022 0.188021
C27   C     C_R   0.920125 0.574415 0.845146 0.179447
C28   C     C_R   0.079888 0.425582 0.154858 0.178984
C29   C     C_R   0.572464 0.074735 0.155134 0.193204
C30   C     C_R   0.427750 0.924870 0.844635 0.184201
C31   C     C_R   0.561812 0.919798 0.655620 0.196214
C32   C     C_R   0.433765 0.078625 0.345020 0.186826
C33   C     C_R   0.024030 0.567453 0.395664 -0.289012
C34   C     C_R   0.975703 0.432480 0.604332 -0.288105
C35   C     C_R   0.032063 0.431444 0.896023 -0.257628
C36   C     C_R   0.967954 0.568553 0.103980 -0.257754
C37   C     C_R   0.470452 0.930032 0.103779 -0.291060
C38   C     C_R   0.530016 0.069380 0.896049 -0.288470
C39   C     C_R   0.487688 0.070685 0.603969 -0.283331
C40   C     C_R   0.513452 0.928545 0.396298 -0.291593
C41   C     C_R   0.990227 0.499748 0.435029 0.083304
C42   C     C_R   0.008783 0.500316 0.564974 0.083605
C43   C     C_R   0.994490 0.499369 0.935020 0.080269
C44   C     C_R   0.005566 0.500637 0.064983 0.080341
C45   C     C_R   0.505465 0.998762 0.064891 0.087023
C46   C     C_R   0.495396 0.000508 0.934899 0.086387
C47   C     C_R   0.506722 0.999913 0.565192 0.086422
C48   C     C_R   0.491451 0.998886 0.435189 0.088148
C49   C     C_R   0.920085 0.391280 0.428014 0.102907
C50   C     C_R   0.078545 0.608872 0.571988 0.101540
C51   C     C_R   0.923403 0.607262 0.927381 0.068445
C52   C     C_R   0.076670 0.392748 0.072621 0.068308
C53   C     C_R   0.571682 0.107832 0.072739 0.099400
C54   C     C_R   0.429264 0.891438 0.927021 0.100063
C55   C     C_R   0.552059 0.887206 0.573133 0.096858
C56   C     C_R   0.443331 0.111261 0.427339 0.104527
C57   C     C_R   0.019028 0.536691 0.481026 0.060996
C58   C     C_R   0.979661 0.463430 0.518983 0.060905
C59   C     C_R   0.021728 0.463346 0.981197 0.063353
C60   C     C_R   0.978349 0.536664 0.018805 0.063341
C61   C     C_R   0.480154 0.962507 0.018638 0.061636
C62   C     C_R   0.520918 0.036691 0.981147 0.061345
C63   C     C_R   0.485636 0.037449 0.518929 0.062389
C64   C     C_R   0.512056 0.961269 0.481462 0.062114
C65   C     C_R   0.914611 0.355430 0.509634 -0.194101
C66   C     C_R   0.083547 0.644802 0.490381 -0.193493
C67   C     C_R   0.910531 0.643718 0.008951 -0.190107
C68   C     C_R   0.089575 0.356299 0.991050 -0.190126
C69   C     C_R   0.584821 0.144670 0.991175 -0.194691
C70   C     C_R   0.416456 0.854490 0.008597 -0.194693
C71   C     C_R   0.556743 0.849959 0.491560 -0.195818
C72   C     C_R   0.439143 0.148518 0.508871 -0.197604
C73   C     C_R   0.885781 0.320524 0.465128 -0.187882
C74   C     C_R   0.112220 0.679746 0.534886 -0.187916
C75   C     C_R   0.883999 0.677877 0.964231 -0.190969
C76   C     C_R   0.116116 0.322142 0.035771 -0.191158
C77   C     C_R   0.609279 0.179091 0.035968 -0.190808
C78   C     C_R   0.391952 0.820095 0.963789 -0.191116
C79   C     C_R   0.575685 0.814086 0.536387 -0.192797
C80   C     C_R   0.418659 0.184209 0.464087 -0.192512
N1    N     N_3   0.149748 0.612426 0.698242 -0.698526
H33   H     H_    0.291563 0.630455 0.696093 0.236116
H34   H     H_    0.079720 0.686513 0.705701 0.230859
N2    N     N_3   0.849899 0.387695 0.301715 -0.700952
H35   H     H_    0.707910 0.370181 0.303782 0.228860
H36   H     H_    0.919300 0.313359 0.294331 0.226016
N3    N     N_3   0.122659 0.385429 0.199478 -0.682290
H37   H     H_    0.222243 0.437526 0.213333 0.237612
H38   H     H_    0.001879 0.390290 0.220052 0.241125
N4    N     N_3   0.877345 0.614567 0.800527 -0.683420
H39   H     H_    0.777733 0.562482 0.786677 0.237826
H40   H     H_    0.998118 0.609676 0.779952 0.241390
N5    N     N_3   0.389015 0.887125 0.799344 -0.654337
H41   H     H_    0.467858 0.815811 0.792753 0.246535
H42   H     H_    0.249158 0.864452 0.799001 0.237223
N6    N     N_3   0.610572 0.112783 0.200406 -0.662795
H43   H     H_    0.532129 0.184384 0.206711 0.240284
H44   H     H_    0.750540 0.135155 0.200872 0.234909
N7    N     N_3   0.400199 0.118917 0.299824 -0.659700
H45   H     H_    0.264632 0.149390 0.299719 0.233282
H46   H     H_    0.490087 0.185575 0.293213 0.227414
N8    N     N_3   0.592236 0.879727 0.701208 -0.661219
H47   H     H_    0.718527 0.912265 0.711534 0.234420
H48   H     H_    0.606807 0.793403 0.701116 0.224656

loop_
_geom_bond_atom_site_label_1
_geom_bond_atom_site_label_2
_ccdc_geom_bond_type
C7    C10   S    
O14   V4    S    
C11   C27   A    
C60   C67   A    
N7    H46   S    
C4    C13   S    
C44   C60   A    
C19   C27   A    
C20   C28   A    
C23   C31   A    
O4    C1    A    
C64   C71   A    
O9    C1    A    
C10   C34   A    
N6    H44   S    
C9    C33   A    
N1    H34   S    
H11   C19   S    
H6    C78   S    
O8    C5    A    
O13   C5    A    
C14   C38   A    
C56   C80   A    
N4    H39   S    
C26   N1    S    
C13   C37   A    
N5    H42   S    
C43   C59   A    
C42   C58   A    
H3    C75   S    
C10   C26   A    
C45   C53   A    
N3    H37   S    
C5    C12   S    
N3    H38   S    
C68   C76   A    
C47   C55   A    
H5    C77   S    
H28   C68   S    
H12   C20   S    
C58   C65   A    
C9    C25   A    
C57   C66   A    
C39   C47   A    
H32   C72   S    
O1    C4    A    
H23   C40   S    
H16   C24   S    
O2    C3    A    
C62   C69   A    
C61   C70   A    
C25   N2    S    
C6    C11   S    
C46   C62   A    
O5    C8    A    
C41   C49   A    
C63   C72   A    
H8    C80   S    
H17   C34   S    
C21   C29   A    
C20   C52   A    
O7    C6    A    
N8    H48   S    
C2    C15   S    
H4    C76   S    
O10   V2    S    
H21   C38   S    
C17   C25   A    
C16   C32   A    
O20   V2    S    
N4    H40   S    
H27   C67   S    
H26   C66   S    
C44   C52   A    
C53   C77   A    
C12   C28   A    
C32   N7    S    
C19   C51   A    
N2    H35   S    
C51   C75   A    
C30   N5    S    
C37   C45   A    
C48   C56   A    
C49   C73   A    
H14   C22   S    
C28   N3    S    
O17   V3    S    
H13   C21   S    
O18   V4    S    
C33   C41   A    
O19   V1    S    
H15   C23   S    
C18   C50   A    
C27   N4    S    
O3    V4    S    
C17   C49   A    
O11   C3    A    
C69   C77   A    
C24   C56   A    
C11   C35   A    
O10   C2    A    
C22   C54   A    
C1    C16   S    
C21   C53   A    
C3    C14   S    
C38   C46   A    
H20   C35   S    
H10   C18   S    
C15   C31   A    
H9    C17   S    
O12   C4    A    
O6    V2    S    
C40   C48   A    
O4    V3    S    
H24   C39   S    
H2    C74   S    
O9    V1    S    
C41   C57   A    
C14   C30   A    
C13   C29   A    
C36   C44   A    
H30   C70   S    
C57   C58   A    
C18   C26   A    
O5    V1    S    
C50   C74   A    
C54   C78   A    
C65   C73   A    
C52   C76   A    
C59   C68   A    
C67   C75   A    
O3    C2    A    
C47   C63   A    
O12   V1    S    
N2    H36   S    
O8    V1    S    
C63   C64   A    
O15   C7    A    
H7    C79   S    
O16   C8    A    
C43   C51   A    
N1    H33   S    
H19   C36   S    
C42   C50   A    
C31   N8    S    
C23   C55   A    
H18   C33   S    
C45   C61   A    
O15   V4    S    
C72   C80   A    
O1    V3    S    
C29   N6    S    
O14   C6    A    
C24   C32   A    
O2    V4    S    
C61   C62   A    
C55   C79   A    
N8    H47   S    
H22   C37   S    
C12   C36   A    
C34   C42   A    
O6    C7    A    
C71   C79   A    
O13   V3    S    
O16   V3    S    
C46   C54   A    
H25   C65   S    
C16   C40   A    
C15   C39   A    
N6    H43   S    
C70   C78   A    
C22   C30   A    
O11   V2    S    
N7    H45   S    
H29   C69   S    
O7    V2    S    
C35   C43   A    
N5    H41   S    
C66   C74   A    
H1    C73   S    
H31   C71   S    
C59   C60   A    
C8    C9    S    
C48   C64   A    
