data_str_m4_o17_o17_f0_acs.sym.55
_audit_creation_date              2012-12-11T14:30:16-0500
_audit_creation_method            fapswitch 2.2
_symmetry_space_group_name_H-M    P1
_symmetry_Int_Tables_number       1
_space_group_crystal_system       triclinic
_cell_length_a                    12.693075
_cell_length_b                    12.693028
_cell_length_c                    27.122423
_cell_angle_alpha                 89.997531
_cell_angle_beta                  90.000835
_cell_angle_gamma                 120.00317
_cell_volume                      3784.22827978

loop_
_atom_site_label
_atom_site_type_symbol
_atom_type_description
_atom_site_fract_x
_atom_site_fract_y
_atom_site_fract_z
_atom_type_partial_charge
C1    C     C_R   0.558158 0.456787 0.822119 0.559019
C2    C     C_R   0.455716 0.557549 0.177763 0.554614
C3    C     C_R   0.027473 0.321671 0.476624 0.230101
C4    C     C_R   0.322013 0.022804 0.028242 0.235509
C5    C     C_R   0.678399 0.705702 0.476585 0.230082
C6    C     C_R   0.299427 0.977830 0.528161 0.235468
C7    C     C_R   0.972012 0.294006 0.976665 0.229939
C8    C     C_R   0.678382 0.700609 0.528177 0.235483
C9    C     C_R   0.321977 0.027955 0.976654 0.229932
C10   C     C_R   0.022365 0.321691 0.528214 0.235531
C11   C     C_R   0.705967 0.678046 0.976646 0.229972
C12   C     C_R   0.441862 0.898645 0.322116 0.558850
C13   C     C_R   0.101832 0.544285 0.177763 0.554597
C14   C     C_R   0.000034 0.499101 0.973633 -0.020963
C15   C     C_R   0.506686 0.011220 0.525466 -0.022092
C16   C     C_R   0.500860 0.500960 0.973624 -0.020971
C17   C     C_R   0.988928 0.495539 0.525486 -0.022103
C18   C     C_R   0.499057 0.999940 0.973631 -0.020966
C19   C     C_R   0.504522 0.493325 0.525471 -0.022107
C20   C     C_R   0.499158 0.000037 0.473626 -0.020942
C21   C     C_R   0.898195 0.442460 0.677769 0.554685
C22   C     C_R   0.011262 0.506705 0.025469 -0.022144
C23   C     C_R   0.500881 0.500857 0.473631 -0.020953
C24   C     C_R   0.495438 0.988724 0.025467 -0.022148
C25   C     C_R   0.000113 0.499168 0.473646 -0.020952
C26   C     C_R   0.493261 0.504587 0.025460 -0.022144
C27   C     C_R   0.038393 0.706365 0.970784 -0.062769
C28   C     C_R   0.713234 0.047186 0.521871 -0.063313
C29   C     C_R   0.293596 0.332022 0.970785 -0.062753
C30   C     C_R   0.952813 0.666053 0.521853 -0.063265
C31   C     C_R   0.667987 0.961619 0.970790 -0.062791
C32   C     C_R   0.543210 0.101371 0.822119 0.559013
C33   C     C_R   0.333960 0.286733 0.521864 -0.063334
C34   C     C_R   0.706072 0.037399 0.470881 -0.062921
C35   C     C_R   0.048180 0.713585 0.021776 -0.063157
C36   C     C_R   0.331369 0.293876 0.470871 -0.062974
C37   C     C_R   0.665442 0.951875 0.021784 -0.063164
C38   C     C_R   0.962532 0.668618 0.470858 -0.062943
C39   C     C_R   0.286388 0.334580 0.021778 -0.063136
C40   C     C_R   0.988608 0.587141 0.894611 0.215570
C41   C     C_R   0.622381 0.045947 0.601760 0.216324
C42   C     C_R   0.412829 0.401465 0.894609 0.215588
C43   C     C_R   0.557547 0.455737 0.677767 0.554722
C44   C     C_R   0.954081 0.576474 0.601761 0.216344
C45   C     C_R   0.598524 0.011367 0.894612 0.215581
C46   C     C_R   0.423549 0.377606 0.601762 0.216324
C47   C     C_R   0.587094 0.988193 0.394652 0.215516
C48   C     C_R   0.046438 0.622670 0.101707 0.216417
C49   C     C_R   0.401153 0.412871 0.394646 0.215454
C50   C     C_R   0.576258 0.953641 0.101718 0.216419
C51   C     C_R   0.011668 0.598767 0.394639 0.215527
C52   C     C_R   0.377355 0.423764 0.101711 0.216438
C53   C     C_R   0.046414 0.526484 0.128185 -0.010245
C54   C     C_R   0.898622 0.441836 0.822120 0.559009
C55   C     C_R   0.475488 0.955474 0.371567 -0.005400
C56   C     C_R   0.473517 0.519957 0.128181 -0.010245
C57   C     C_R   0.044602 0.519985 0.371582 -0.005351
C58   C     C_R   0.480063 0.953594 0.128186 -0.010246
C59   C     C_R   0.480006 0.524529 0.371570 -0.005382
C60   C     C_R   0.526379 0.046380 0.628186 -0.010221
C61   C     C_R   0.955350 0.475339 0.871588 -0.005270
C62   C     C_R   0.519973 0.473625 0.628192 -0.010221
C63   C     C_R   0.519975 0.044622 0.871584 -0.005271
C64   C     C_R   0.953693 0.480065 0.628201 -0.010228
C65   C     C_R   0.544264 0.101821 0.677765 0.554723
C66   C     C_R   0.524637 0.480022 0.871581 -0.005274
C67   C     C_R   0.010304 0.598733 0.945993 0.023730
C68   C     C_R   0.614264 0.033302 0.550002 0.024107
C69   C     C_R   0.401229 0.411580 0.945990 0.023738
C70   C     C_R   0.966762 0.581005 0.550004 0.024166
C71   C     C_R   0.588425 0.989677 0.945995 0.023732
C72   C     C_R   0.419031 0.385726 0.550002 0.024129
C73   C     C_R   0.598644 0.009844 0.446037 0.023549
C74   C     C_R   0.033805 0.614485 0.049954 0.024318
C75   C     C_R   0.411235 0.401332 0.446033 0.023550
C76   C     C_R   0.456788 0.558139 0.322116 0.558900
C77   C     C_R   0.580697 0.966231 0.049959 0.024317
C78   C     C_R   0.990143 0.588755 0.446033 0.023538
C79   C     C_R   0.385500 0.419327 0.049952 0.024327
C80   C     C_R   0.959825 0.383153 0.898698 -0.116895
C81   C     C_R   0.417280 0.015127 0.603760 -0.114444
C82   C     C_R   0.616812 0.576706 0.898683 -0.116869
C83   C     C_R   0.985051 0.402280 0.603795 -0.114420
C84   C     C_R   0.423302 0.040122 0.898688 -0.116884
C85   C     C_R   0.597800 0.582747 0.603772 -0.114398
C86   C     C_R   0.383542 0.960499 0.398621 -0.116874
C87   C     C_R   0.442456 0.898175 0.177765 0.554596
C88   C     C_R   0.014756 0.417233 0.103809 -0.114392
C89   C     C_R   0.576938 0.616535 0.398634 -0.116721
C90   C     C_R   0.402447 0.985194 0.103801 -0.114380
C91   C     C_R   0.039846 0.423138 0.398668 -0.116799
C92   C     C_R   0.582735 0.597588 0.103794 -0.114434
C93   C     C_R   0.979178 0.392211 0.949456 -0.033187
C94   C     C_R   0.406327 0.999065 0.552699 -0.031866
C95   C     C_R   0.607754 0.587004 0.949442 -0.033191
C96   C     C_R   0.001128 0.407371 0.552736 -0.031876
C97   C     C_R   0.413012 0.020779 0.949449 -0.033201
C98   C     C_R   0.101365 0.543208 0.322118 0.558931
C99   C     C_R   0.592709 0.593701 0.552710 -0.031867
C100  C     C_R   0.392487 0.979676 0.449396 -0.033012
C101  C     C_R   0.998717 0.406239 0.052748 -0.031983
C102  C     C_R   0.587176 0.607563 0.449407 -0.033002
C103  C     C_R   0.407505 0.001249 0.052741 -0.031991
C104  C     C_R   0.020584 0.412894 0.449437 -0.033022
C105  C     C_R   0.593725 0.592531 0.052733 -0.032003
C106  C     C_R   0.977166 0.299194 0.028252 0.235501
C107  C     C_R   0.294347 0.972761 0.476569 0.230023
C108  C     C_R   0.700772 0.678026 0.028233 0.235477
Cl1   Cl    Cl    0.060799 0.752518 0.132641 -0.451970
Cl2   Cl    Cl    0.708400 0.997146 0.859392 -0.468651
Cl3   Cl    Cl    0.940240 0.692168 0.632773 -0.451799
Cl4   Cl    Cl    0.288736 0.291550 0.859393 -0.468604
Cl5   Cl    Cl    0.955469 0.169617 0.061536 -0.416802
Cl6   Cl    Cl    0.164747 0.960498 0.446590 -0.448672
Cl7   Cl    Cl    0.830362 0.785907 0.061511 -0.416771
Cl8   Cl    Cl    0.039532 0.204224 0.446662 -0.448621
Cl9   Cl    Cl    0.214156 0.044549 0.061520 -0.416695
Cl10  Cl    Cl    0.795776 0.835269 0.446614 -0.448506
Cl11  Cl    Cl    0.169848 0.956269 0.561404 -0.417579
Cl12  Cl    Cl    0.711025 0.001786 0.359512 -0.468501
Cl13  Cl    Cl    0.959536 0.164277 0.946732 -0.448440
Cl14  Cl    Cl    0.786430 0.830168 0.561423 -0.417523
Cl15  Cl    Cl    0.204731 0.040461 0.946720 -0.448342
Cl16  Cl    Cl    0.043773 0.213599 0.561473 -0.417488
Cl17  Cl    Cl    0.835736 0.795267 0.946710 -0.448311
Cl18  Cl    Cl    0.247636 0.308188 0.132680 -0.451799
Cl19  Cl    Cl    0.997434 0.708684 0.359420 -0.468491
Cl20  Cl    Cl    0.691840 0.939519 0.132687 -0.451842
Cl21  Cl    Cl    0.290895 0.288875 0.359488 -0.468633
Cl22  Cl    Cl    0.751851 0.059683 0.632795 -0.451742
Cl23  Cl    Cl    0.002807 0.711243 0.859390 -0.468630
Cl24  Cl    Cl    0.307817 0.248111 0.632789 -0.451811
Cr1   Cr    Cr6+3 0.487630 0.241180 0.750000 1.178290
Cr2   Cr    Cr6+3 0.753550 0.512370 0.750000 1.178300
Cr3   Cr    Cr6+3 0.758820 0.246450 0.750000 1.178297
Cr4   Cr    Cr6+3 0.241180 0.487630 0.250000 1.178276
Cr5   Cr    Cr6+3 0.512370 0.753550 0.250000 1.178319
Cr6   Cr    Cr6+3 0.246450 0.758820 0.250000 1.178276
H1    H     H_    0.068116 0.798425 0.038620 0.258600
H2    H     H_    0.734390 0.948585 0.951161 0.264076
H3    H     H_    0.933269 0.731222 0.538718 0.259213
H4    H     H_    0.214160 0.265608 0.951156 0.264092
H5    H     H_    0.010799 0.342898 0.124753 0.238324
H6    H     H_    0.299608 0.939492 0.380413 0.237512
H7    H     H_    0.657051 0.667995 0.124730 0.238322
H8    H     H_    0.061099 0.360317 0.380493 0.237589
H9    H     H_    0.332054 0.989106 0.124739 0.238375
H10   H     H_    0.639822 0.700535 0.380439 0.237663
H11   H     H_    0.343060 0.011530 0.624659 0.238423
H12   H     H_    0.785397 0.050048 0.451290 0.264614
H13   H     H_    0.938259 0.298981 0.880555 0.237445
H14   H     H_    0.668395 0.656987 0.624678 0.238419
H15   H     H_    0.360681 0.061662 0.880539 0.237452
H16   H     H_    0.988713 0.331709 0.624708 0.238380
H17   H     H_    0.700979 0.639330 0.880534 0.237461
H18   H     H_    0.201548 0.269643 0.038625 0.258618
H19   H     H_    0.949836 0.735265 0.451250 0.264573
H20   H     H_    0.730380 0.931987 0.038631 0.258634
H21   H     H_    0.264711 0.214524 0.451273 0.264589
H22   H     H_    0.797927 0.066723 0.538749 0.259212
H23   H     H_    0.051434 0.785799 0.951151 0.264069
H24   H     H_    0.268783 0.202036 0.538740 0.259222
O1    O     O_R   0.460870 0.120930 0.805240 -0.493493
O2    O     O_R   0.120930 0.460870 0.194760 -0.480729
O3    O     O_R   0.539130 0.660060 0.305240 -0.493381
O4    O     O_R   0.339940 0.879070 0.194760 -0.480693
O5    O     O_R   0.498910 0.350470 0.801870 -0.445948
O6    O     O_R   0.851560 0.501090 0.698130 -0.442474
O7    O     O_R   0.649530 0.148440 0.801870 -0.445948
O8    O     O_R   0.498910 0.350470 0.698130 -0.442474
O9    O     O_R   0.851560 0.501090 0.801870 -0.445945
O10   O     O_R   0.649530 0.148440 0.698130 -0.442448
O11   O     O_R   0.350470 0.498910 0.301870 -0.445891
O12   O     O_R   0.660060 0.539130 0.694760 -0.480884
O13   O     O_R   0.501090 0.851560 0.198130 -0.442507
O14   O     O_R   0.148440 0.649530 0.301870 -0.445896
O15   O     O_R   0.350470 0.498910 0.198130 -0.442485
O16   O     O_R   0.501090 0.851560 0.301870 -0.445821
O17   O     O_R   0.148440 0.649530 0.198130 -0.442460
O18   O     O_3   0.666667 0.333333 0.750000 -0.319915
O19   O     O_3   0.333333 0.666667 0.250000 -0.319833
O20   O     O_R   0.879070 0.339940 0.805240 -0.493488
O21   O     O_R   0.460870 0.120930 0.694760 -0.480912
O22   O     O_R   0.660060 0.539130 0.805240 -0.493492
O23   O     O_R   0.879070 0.339940 0.694760 -0.480890
O24   O     O_R   0.120930 0.460870 0.305240 -0.493452
O25   O     O_R   0.539130 0.660060 0.194760 -0.480744
O26   O     O_R   0.339940 0.879070 0.305240 -0.493513

loop_
_geom_bond_atom_site_label_1
_geom_bond_atom_site_label_2
_ccdc_geom_bond_type
C3    C104  A    
C80   H13   S    
C12   O16   A    
C32   O7    A    
C32   O1    A    
C35   C74   A    
C89   C102  A    
C89   H10   S    
Cr6   O26   S    
C91   C104  A    
C8    Cl14  S    
C58   C87   S    
C15   C94   A    
Cr5   O3    S    
C88   C101  A    
C34   H12   S    
C86   H6    S    
C107  Cl6   S    
C83   H16   S    
C44   C64   A    
C22   C101  A    
C46   C62   A    
C18   C24   A    
C84   C97   A    
C108  Cl7   S    
C76   O11   A    
C28   C68   A    
C8    C99   A    
Cr3   O18   S    
Cr5   O13   S    
C10   Cl16  S    
C3    Cl8   S    
Cr1   O5    S    
C65   O21   A    
C41   Cl22  S    
C43   O12   A    
C87   O4    A    
C45   C71   A    
C83   C96   A    
C61   C80   A    
C12   O26   A    
C4    C103  A    
C28   H22   S    
C33   C36   A    
C30   C38   A    
C59   C89   A    
Cr6   O19   S    
C42   Cl4   S    
C2    O25   A    
C21   C64   S    
C33   C72   A    
C35   H1    S    
C5    C102  A    
Cr1   O21   S    
Cr5   O16   S    
C6    C94   A    
C40   C67   A    
Cr4   O19   S    
C9    C97   A    
C6    C107  A    
C54   O20   A    
C44   C70   A    
C51   C57   A    
C18   C97   A    
C52   C79   A    
C86   C100  A    
C14   C93   A    
C13   C53   S    
C36   H21   S    
Cr4   O24   S    
C31   C71   A    
C48   Cl1   S    
C28   C34   A    
C17   C70   A    
C19   C72   A    
C15   C20   A    
C7    Cl13  S    
C80   C93   A    
Cr6   O17   S    
Cr1   O1    S    
C26   C105  A    
C30   C70   A    
C43   O8    A    
Cr3   O10   S    
C41   C68   A    
C29   C69   A    
C16   C26   A    
C48   C53   A    
C7    C93   A    
C62   C85   A    
C84   H15   S    
C106  Cl5   S    
C25   C78   A    
C50   C58   A    
C48   C74   A    
C32   C63   S    
C63   C84   A    
C23   C75   A    
C52   Cl18  S    
C45   Cl2   S    
C38   C78   A    
C27   C35   A    
C13   O17   A    
C37   C77   A    
Cr4   O15   S    
C45   C63   A    
C42   C69   A    
C65   O10   A    
C31   C37   A    
C39   C79   A    
C37   H20   S    
C19   C23   A    
Cr1   O8    S    
C64   C83   A    
C90   H9    S    
C85   C99   A    
C36   C75   A    
C66   C82   A    
C98   O14   A    
C60   C81   A    
C24   C77   A    
C20   C100  A    
C10   C96   A    
C14   C67   A    
C29   C39   A    
C49   C75   A    
C1    C66   S    
C7    C106  A    
C76   O3    A    
C25   C104  A    
C17   C96   A    
C105  C108  A    
C30   H3    S    
C47   C73   A    
C58   C90   A    
Cr2   O12   S    
C57   C91   A    
C82   H17   S    
C47   Cl12  S    
C2    O15   A    
C40   Cl23  S    
C60   C65   S    
Cr2   O9    S    
Cr6   O14   S    
Cr2   O6    S    
C4    Cl9   S    
C50   Cl20  S    
C22   C74   A    
C50   C77   A    
C6    Cl11  S    
C101  C106  A    
C13   O2    A    
C47   C55   A    
Cr4   O2    S    
C11   C95   A    
C18   C71   A    
Cr4   O11   S    
C100  C107  A    
C19   C99   A    
C82   C95   A    
C88   H5    S    
C11   Cl17  S    
C92   H7    S    
C21   O6    A    
C54   O9    A    
C16   C69   A    
C41   C60   A    
Cr2   O22   S    
C5    C8    A    
Cr1   O18   S    
C21   O23   A    
C54   C61   S    
C87   O13   A    
C5    Cl10  S    
C15   C68   A    
C26   C79   A    
C49   C59   A    
C39   H18   S    
Cr6   O4    S    
C24   C103  A    
C17   C25   A    
C38   H19   S    
C55   C86   A    
C33   H24   S    
C4    C9    A    
C85   H14   S    
C51   Cl19  S    
C98   O24   A    
C3    C10   A    
C2    C56   S    
C27   H23   S    
C46   Cl24  S    
C81   C94   A    
C16   C95   A    
C14   C22   A    
C49   Cl21  S    
C81   H11   S    
C29   H4    S    
C9    Cl15  S    
C1    O22   A    
C20   C73   A    
C53   C88   A    
Cr3   O7    S    
C57   C98   S    
C90   C103  A    
C51   C78   A    
C12   C55   S    
C27   C67   A    
C40   C61   A    
C34   C73   A    
C23   C102  A    
C44   Cl3   S    
C92   C105  A    
C56   C92   A    
Cr5   O19   S    
C11   C108  A    
C42   C66   A    
C1    O5    A    
C46   C72   A    
Cr3   O20   S    
Cr2   O18   S    
C31   H2    S    
C59   C76   S    
Cr3   O23   S    
C91   H8    S    
C52   C56   A    
C43   C62   S    
Cr5   O25   S    
