data_str_m2_o40_o41_f0_fof.sym.69
_audit_creation_date              2012-10-26T17:12:52-0400
_audit_creation_method            fapswitch 2.2
_symmetry_space_group_name_H-M    P1
_symmetry_Int_Tables_number       1
_space_group_crystal_system       triclinic
_cell_length_a                    27.889722
_cell_length_b                    18.791706
_cell_length_c                    16.815433
_cell_angle_alpha                 89.992119
_cell_angle_beta                  62.702082
_cell_angle_gamma                 89.878125
_cell_volume                      7831.41340129

loop_
_atom_site_label
_atom_site_type_symbol
_atom_type_description
_atom_site_fract_x
_atom_site_fract_y
_atom_site_fract_z
_atom_type_partial_charge
C1    C     C_R   0.292329 0.722773 0.331209 0.791946
C2    C     C_R   0.707671 0.277227 0.668791 0.791948
C3    C     C_R   0.708251 0.721830 0.668131 0.821984
C4    C     C_R   0.291749 0.278170 0.331869 0.821978
C5    C     C_R   0.796158 0.231166 0.328344 0.820409
C6    C     C_R   0.203842 0.768834 0.671656 0.820414
C7    C     C_R   0.203892 0.231050 0.671719 0.786953
C8    C     C_R   0.796108 0.768950 0.328281 0.786946
C9    C     C_R   0.401185 0.001898 0.490912 0.069738
C10   C     C_R   0.598819 0.998103 0.509072 0.069738
C11   C     C_R   0.901971 0.497751 0.488728 0.067819
C12   C     C_R   0.098040 0.502245 0.511228 0.067817
C13   C     C_R   0.615987 0.878718 0.445894 -0.221539
C14   C     C_R   0.384018 0.121281 0.554090 -0.221533
C15   C     C_R   0.420366 0.883627 0.425322 -0.227768
C16   C     C_R   0.579635 0.116372 0.574669 -0.227764
C17   C     C_R   0.080029 0.383170 0.573842 -0.232682
C18   C     C_R   0.919976 0.616830 0.426128 -0.232690
C19   C     C_R   0.887766 0.376593 0.544918 -0.230404
C20   C     C_R   0.112235 0.623414 0.455068 -0.230439
C21   C     C_R   0.211475 0.750375 0.962310 -0.020032
C22   C     C_R   0.788524 0.249623 0.037693 -0.020035
C23   C     C_R   0.789672 0.749168 0.036050 -0.018666
C24   C     C_R   0.210327 0.250835 0.963950 -0.018669
C25   C     C_R   0.727137 0.281974 0.947668 -0.020427
C26   C     C_R   0.272861 0.718025 0.052335 -0.020430
C27   C     C_R   0.271093 0.284413 0.054731 -0.021644
C28   C     C_R   0.728906 0.715591 0.945269 -0.021641
C29   C     C_R   0.262240 0.716209 0.917058 0.062976
C30   C     C_R   0.737760 0.283793 0.082945 0.062971
C31   C     C_R   0.739001 0.715203 0.081099 0.065658
C32   C     C_R   0.260997 0.284803 0.918902 0.065660
C33   C     C_R   0.781922 0.260845 0.898871 0.066078
C34   C     C_R   0.218076 0.739150 0.101133 0.066073
C35   C     C_R   0.216325 0.263428 0.103554 0.062651
C36   C     C_R   0.783675 0.736574 0.896445 0.062650
C37   C     C_R   0.296522 0.710620 0.958416 0.024940
C38   C     C_R   0.703478 0.289383 0.041586 0.024923
C39   C     C_R   0.705010 0.709269 0.039355 0.024211
C40   C     C_R   0.294988 0.290739 0.960645 0.024218
C41   C     C_R   0.810348 0.234889 0.944972 0.025211
C42   C     C_R   0.189649 0.765106 0.055032 0.025208
C43   C     C_R   0.188228 0.236845 0.056976 0.024884
C44   C     C_R   0.811772 0.763157 0.943024 0.024884
C45   C     C_R   0.134994 0.810043 0.955248 0.018477
C46   C     C_R   0.865005 0.189955 0.044753 0.018479
C47   C     C_R   0.865390 0.809839 0.044107 0.018237
C48   C     C_R   0.134610 0.190161 0.955893 0.018237
C49   C     C_R   0.643011 0.322377 0.948305 0.017980
C50   C     C_R   0.356989 0.677623 0.051697 0.017982
C51   C     C_R   0.355415 0.324352 0.053517 0.018280
C52   C     C_R   0.644584 0.675650 0.946483 0.018281
C53   C     C_R   0.112871 0.841748 0.901839 -0.109837
C54   C     C_R   0.887129 0.158252 0.098161 -0.109838
C55   C     C_R   0.887137 0.841864 0.097937 -0.110040
C56   C     C_R   0.112863 0.158135 0.902063 -0.110039
C57   C     C_R   0.616143 0.347289 0.898956 -0.113641
C58   C     C_R   0.383857 0.652711 0.101044 -0.113643
C59   C     C_R   0.382639 0.348970 0.102317 -0.112567
C60   C     C_R   0.617361 0.651030 0.897682 -0.112566
C61   C     C_R   0.135133 0.824153 0.810960 -0.277358
C62   C     C_R   0.864867 0.175847 0.189041 -0.277357
C63   C     C_R   0.864663 0.824455 0.188923 -0.280683
C64   C     C_R   0.135337 0.175544 0.811077 -0.280682
C65   C     C_R   0.637245 0.329520 0.808560 -0.276332
C66   C     C_R   0.362755 0.670480 0.191441 -0.276329
C67   C     C_R   0.361507 0.331557 0.192762 -0.270972
C68   C     C_R   0.638493 0.668442 0.807237 -0.270971
C69   C     C_R   0.179174 0.777815 0.770567 -0.125930
C70   C     C_R   0.820826 0.222185 0.229434 -0.125928
C71   C     C_R   0.820783 0.778053 0.229182 -0.118427
C72   C     C_R   0.179216 0.221947 0.770818 -0.118430
C73   C     C_R   0.688448 0.299293 0.762827 -0.119976
C74   C     C_R   0.311551 0.700705 0.237174 -0.119972
C75   C     C_R   0.310244 0.301654 0.238720 -0.130010
C76   C     C_R   0.689756 0.698345 0.761279 -0.130014
C77   C     C_R   0.202441 0.748228 0.823490 0.076304
C78   C     C_R   0.797559 0.251771 0.176510 0.076300
C79   C     C_R   0.797876 0.748253 0.175853 0.077815
C80   C     C_R   0.202123 0.251748 0.824147 0.077814
C81   C     C_R   0.720812 0.292602 0.807511 0.078926
C82   C     C_R   0.279187 0.707394 0.192491 0.078923
C83   C     C_R   0.277409 0.295873 0.194847 0.073053
C84   C     C_R   0.722591 0.704127 0.805153 0.073052
C85   C     C_R   0.202127 0.631490 0.508848 0.811652
C86   C     C_R   0.797875 0.368510 0.491145 0.811651
C87   C     C_R   0.801734 0.631011 0.478186 0.799909
C88   C     C_R   0.198267 0.368989 0.521810 0.799906
C89   C     C_R   0.698282 0.131009 0.521834 0.830695
C90   C     C_R   0.301718 0.868991 0.478166 0.830697
C91   C     C_R   0.297401 0.131545 0.492528 0.839737
C92   C     C_R   0.702601 0.868455 0.507468 0.839734
C93   C     C_R   0.182984 0.769929 0.913583 0.072172
C94   C     C_R   0.817016 0.230070 0.086418 0.072172
C95   C     C_R   0.817647 0.769466 0.085425 0.072052
C96   C     C_R   0.182352 0.230535 0.914575 0.072053
C97   C     C_R   0.696698 0.298213 0.901427 0.072078
C98   C     C_R   0.303301 0.701785 0.098576 0.072078
C99   C     C_R   0.301504 0.300991 0.100833 0.074231
C100  C     C_R   0.698496 0.699011 0.899167 0.074231
C101  C     C_R   0.111576 0.818051 0.048740 -0.190368
C102  C     C_R   0.888422 0.181945 0.951262 -0.190370
C103  C     C_R   0.888970 0.817647 0.950506 -0.188897
C104  C     C_R   0.111030 0.182352 0.049493 -0.188899
C105  C     C_R   0.617898 0.319328 0.042249 -0.179156
C106  C     C_R   0.382102 0.680677 0.957753 -0.179165
C107  C     C_R   0.380591 0.320196 0.959675 -0.181263
C108  C     C_R   0.619408 0.679808 0.040325 -0.181272
C109  C     C_R   0.139908 0.803173 0.096989 0.170824
C110  C     C_R   0.860088 0.196820 0.903015 0.170815
C111  C     C_R   0.861201 0.801611 0.901563 0.165819
C112  C     C_R   0.138800 0.198389 0.098436 0.165820
C113  C     C_R   0.646715 0.301306 0.089315 0.162189
C114  C     C_R   0.353286 0.698704 0.910688 0.162203
C115  C     C_R   0.351806 0.301672 0.912878 0.174356
C116  C     C_R   0.648191 0.698338 0.087123 0.174353
C117  C     C_R   0.243715 0.696211 0.791486 -0.186815
C118  C     C_R   0.756287 0.303790 0.208514 -0.186813
C119  C     C_R   0.756685 0.696394 0.207779 -0.198377
C120  C     C_R   0.243311 0.303609 0.792222 -0.198376
C121  C     C_R   0.777024 0.285343 0.761349 -0.190369
C122  C     C_R   0.222975 0.714649 0.238654 -0.190358
C123  C     C_R   0.221005 0.289168 0.241645 -0.186239
C124  C     C_R   0.778995 0.710831 0.758355 -0.186237
C125  C     C_R   0.274352 0.682735 0.835664 -0.218938
C126  C     C_R   0.725650 0.317267 0.164337 -0.218914
C127  C     C_R   0.726485 0.682470 0.163038 -0.223709
C128  C     C_R   0.273511 0.317536 0.836964 -0.223700
C129  C     C_R   0.807111 0.271744 0.806123 -0.212154
C130  C     C_R   0.192887 0.728248 0.193880 -0.212150
C131  C     C_R   0.191034 0.274709 0.196582 -0.209501
C132  C     C_R   0.808965 0.725291 0.803417 -0.209501
C133  C     C_R   0.928268 0.899929 0.064530 0.806551
C134  C     C_R   0.071733 0.100071 0.935470 0.806553
C135  C     C_R   0.071716 0.899883 0.935454 0.807477
C136  C     C_R   0.928284 0.100117 0.064546 0.807478
C137  C     C_R   0.427697 0.400833 0.065094 0.803280
C138  C     C_R   0.572303 0.599167 0.934906 0.803280
C139  C     C_R   0.571876 0.400350 0.935319 0.805431
C140  C     C_R   0.428124 0.599650 0.064681 0.805430
C141  C     C_R   0.065006 0.621584 0.446224 0.105050
C142  C     C_R   0.934999 0.378417 0.553747 0.105048
C143  C     C_R   0.969012 0.617895 0.430268 0.108487
C144  C     C_R   0.030995 0.382104 0.569696 0.108481
C145  C     C_R   0.529904 0.116876 0.572488 0.108566
C146  C     C_R   0.470100 0.883124 0.427497 0.108568
C147  C     C_R   0.432133 0.119738 0.561022 0.102608
C148  C     C_R   0.567873 0.880262 0.438957 0.102616
C149  C     C_R   0.050076 0.679761 0.409862 -0.214098
C150  C     C_R   0.949923 0.320249 0.590128 -0.214085
C151  C     C_R   0.002661 0.677681 0.401228 -0.200627
C152  C     C_R   0.997339 0.322327 0.598755 -0.200636
C153  C     C_R   0.494955 0.175509 0.605125 -0.200155
C154  C     C_R   0.505047 0.824488 0.394863 -0.200161
C155  C     C_R   0.446581 0.177016 0.599166 -0.202637
C156  C     C_R   0.553423 0.822981 0.400817 -0.202633
C157  C     C_R   0.984114 0.559207 0.466070 0.025458
C158  C     C_R   0.015899 0.440786 0.533877 0.025459
C159  C     C_R   0.032476 0.560804 0.473390 0.028393
C160  C     C_R   0.967537 0.439189 0.526558 0.028389
C161  C     C_R   0.466232 0.060024 0.529826 0.027508
C162  C     C_R   0.533774 0.939978 0.470151 0.027504
C163  C     C_R   0.515261 0.058695 0.535426 0.027517
C164  C     C_R   0.484745 0.941307 0.464552 0.027516
C165  C     C_R   0.450846 0.001207 0.494653 -0.037442
C166  C     C_R   0.549160 0.998795 0.505325 -0.037443
C167  C     C_R   0.951383 0.498545 0.493169 -0.038523
C168  C     C_R   0.048631 0.501447 0.506776 -0.038524
C169  C     C_R   0.383401 0.940482 0.463123 0.002733
C170  C     C_R   0.616601 0.059518 0.536867 0.002735
C171  C     C_R   0.630875 0.936038 0.484498 0.011560
C172  C     C_R   0.369129 0.063962 0.515489 0.011558
C173  C     C_R   0.870904 0.435170 0.510835 0.014814
C174  C     C_R   0.129103 0.564830 0.489135 0.014836
C175  C     C_R   0.116391 0.440491 0.537547 -0.001157
C176  C     C_R   0.883615 0.559508 0.462421 -0.001156
C177  C     C_R   0.328293 0.937251 0.479371 -0.125330
C178  C     C_R   0.671707 0.062749 0.520626 -0.125331
C179  C     C_R   0.678588 0.935215 0.494631 -0.135793
C180  C     C_R   0.321414 0.064785 0.505363 -0.135793
C181  C     C_R   0.822477 0.434926 0.502616 -0.128843
C182  C     C_R   0.177527 0.565075 0.497369 -0.128839
C183  C     C_R   0.171441 0.437308 0.521198 -0.122041
C184  C     C_R   0.828562 0.562692 0.478788 -0.122039
C185  C     C_R   0.296222 0.999760 0.508686 0.077621
C186  C     C_R   0.703779 0.000240 0.491313 0.077616
C187  C     C_R   0.796837 0.500124 0.507660 0.075483
C188  C     C_R   0.203165 0.499877 0.492330 0.075474
Cu1   Cu    Cu3+1 0.209920 0.785290 0.495070 0.925030
Cu2   Cu    Cu3+1 0.790080 0.214710 0.504930 0.925039
Cu3   Cu    Cu3+1 0.790080 0.785290 0.504930 0.927523
Cu4   Cu    Cu3+1 0.209920 0.214710 0.495070 0.927527
Cu5   Cu    Cu3+1 0.709920 0.285290 0.495070 0.921965
Cu6   Cu    Cu3+1 0.290080 0.714710 0.504930 0.921961
Cu7   Cu    Cu3+1 0.290080 0.285290 0.504930 0.914707
Cu8   Cu    Cu3+1 0.709920 0.714710 0.495070 0.914707
Cu9   Cu    Cu3+1 0.495240 0.500000 0.924150 0.935042
Cu10  Cu    Cu3+1 0.504760 0.500000 0.075850 0.935040
Cu11  Cu    Cu3+1 0.995240 0.000000 0.924150 0.925446
Cu12  Cu    Cu3+1 0.004760 0.000000 0.075850 0.925447
H1    H     H_    0.579307 0.776640 0.376410 0.141846
H2    H     H_    0.420695 0.223353 0.623577 0.141846
H3    H     H_    0.494593 0.779269 0.365968 0.138071
H4    H     H_    0.505406 0.220724 0.634028 0.138072
H5    H     H_    0.008182 0.276646 0.626511 0.136876
H6    H     H_    0.991812 0.723368 0.373491 0.136874
H7    H     H_    0.925065 0.272948 0.611453 0.130171
H8    H     H_    0.074926 0.727071 0.388558 0.130166
H9    H     H_    0.642949 0.834261 0.415732 0.168835
H10   H     H_    0.357057 0.165737 0.584258 0.168836
H11   H     H_    0.411394 0.839494 0.393215 0.163549
H12   H     H_    0.588606 0.160503 0.606781 0.163546
H13   H     H_    0.088987 0.338929 0.605881 0.166399
H14   H     H_    0.911013 0.661076 0.394102 0.166399
H15   H     H_    0.863624 0.329994 0.570058 0.159887
H16   H     H_    0.136358 0.670040 0.429973 0.159913
H17   H     H_    0.119114 0.849087 0.770045 0.188689
H18   H     H_    0.880887 0.150914 0.229955 0.188690
H19   H     H_    0.880440 0.849547 0.230019 0.187581
H20   H     H_    0.119560 0.150451 0.769980 0.187582
H21   H     H_    0.614603 0.342218 0.772494 0.186546
H22   H     H_    0.385398 0.657782 0.227506 0.186546
H23   H     H_    0.384405 0.343708 0.228506 0.188584
H24   H     H_    0.615595 0.656290 0.771493 0.188586
H25   H     H_    0.070689 0.836398 0.087196 0.181069
H26   H     H_    0.929309 0.163599 0.912804 0.181071
H27   H     H_    0.929657 0.836523 0.912379 0.182464
H28   H     H_    0.070343 0.163475 0.087621 0.182466
H29   H     H_    0.574686 0.326270 0.080022 0.169992
H30   H     H_    0.425315 0.673738 0.919980 0.169998
H31   H     H_    0.423849 0.326316 0.921875 0.169116
H32   H     H_    0.576149 0.673687 0.078125 0.169119
H33   H     H_    0.252684 0.663581 0.733731 0.177603
H34   H     H_    0.747321 0.336422 0.266268 0.177599
H35   H     H_    0.747415 0.664178 0.265913 0.179042
H36   H     H_    0.252580 0.335826 0.734089 0.179039
H37   H     H_    0.798737 0.293402 0.690724 0.152698
H38   H     H_    0.201262 0.706585 0.309279 0.152696
H39   H     H_    0.199009 0.298090 0.312978 0.170164
H40   H     H_    0.800991 0.701908 0.687021 0.170161
H41   H     H_    0.306439 0.643832 0.807132 0.160728
H42   H     H_    0.693566 0.356174 0.192866 0.160712
H43   H     H_    0.694338 0.643839 0.191649 0.161102
H44   H     H_    0.305654 0.356172 0.808355 0.161100
H45   H     H_    0.850361 0.272048 0.767248 0.162125
H46   H     H_    0.149638 0.727941 0.232755 0.162135
H47   H     H_    0.147757 0.274678 0.235512 0.164987
H48   H     H_    0.852243 0.725322 0.764488 0.164986
O1    O     O_R   0.255040 0.869590 0.478480 -0.574855
O2    O     O_R   0.744960 0.130410 0.521520 -0.574858
O3    O     O_R   0.744960 0.869590 0.521520 -0.568979
O4    O     O_R   0.255040 0.130410 0.478480 -0.568978
O5    O     O_R   0.755040 0.369590 0.478480 -0.582031
O6    O     O_R   0.244960 0.630410 0.521520 -0.582029
O7    O     O_R   0.244960 0.369590 0.521520 -0.585182
O8    O     O_R   0.755040 0.630410 0.478480 -0.585181
O9    O     O_R   0.182050 0.796550 0.624440 -0.584323
O10   O     O_R   0.817950 0.203450 0.375560 -0.584325
O11   O     O_R   0.817950 0.796550 0.375560 -0.595333
O12   O     O_R   0.182050 0.203450 0.624440 -0.595328
O13   O     O_R   0.682050 0.296550 0.624440 -0.597023
O14   O     O_R   0.317950 0.703450 0.375560 -0.597029
O15   O     O_R   0.317950 0.296550 0.375560 -0.584650
O16   O     O_R   0.682050 0.703450 0.624440 -0.584647
O17   O     O_R   0.250530 0.763330 0.367210 -0.595207
O18   O     O_R   0.749470 0.236670 0.632790 -0.595206
O19   O     O_R   0.749470 0.763330 0.632790 -0.582337
O20   O     O_R   0.250530 0.236670 0.367210 -0.582340
O21   O     O_R   0.750530 0.263330 0.367210 -0.592754
O22   O     O_R   0.249470 0.736670 0.632790 -0.592754
O23   O     O_R   0.249470 0.263330 0.632790 -0.608659
O24   O     O_R   0.750530 0.736670 0.367210 -0.608665
O25   O     O_R   0.177260 0.690030 0.513710 -0.603748
O26   O     O_R   0.822740 0.309970 0.486290 -0.603733
O27   O     O_R   0.822740 0.690030 0.486290 -0.603856
O28   O     O_R   0.177260 0.309970 0.513710 -0.603855
O29   O     O_R   0.677260 0.190030 0.513710 -0.588709
O30   O     O_R   0.322740 0.809970 0.486290 -0.588710
O31   O     O_R   0.322740 0.190030 0.486290 -0.590232
O32   O     O_R   0.677260 0.809970 0.513710 -0.590228
O33   O     O_R   0.051640 0.926880 0.885090 -0.587105
O34   O     O_R   0.948360 0.073120 0.114910 -0.587105
O35   O     O_R   0.948360 0.926880 0.114910 -0.588022
O36   O     O_R   0.051640 0.073120 0.885090 -0.588022
O37   O     O_R   0.551640 0.426880 0.885090 -0.587077
O38   O     O_R   0.448360 0.573120 0.114910 -0.587077
O39   O     O_R   0.448360 0.426880 0.114910 -0.586130
O40   O     O_R   0.551640 0.573120 0.885090 -0.586130
O41   O     O_R   0.940620 0.926560 0.986760 -0.593212
O42   O     O_R   0.059380 0.073440 0.013240 -0.593213
O43   O     O_R   0.059380 0.926560 0.013240 -0.593324
O44   O     O_R   0.940620 0.073440 0.986760 -0.593325
O45   O     O_R   0.440620 0.426560 0.986760 -0.589711
O46   O     O_R   0.559380 0.573440 0.013240 -0.589711
O47   O     O_R   0.559380 0.426560 0.013240 -0.589007
O48   O     O_R   0.440620 0.573440 0.986760 -0.589005
C189  C     C_3   0.234899 0.996922 0.558812 -0.738085
H49   H     H_    0.217557 0.044345 0.602109 0.213877
H50   H     H_    0.217677 0.993204 0.511111 0.248837
H51   H     H_    0.221411 0.951424 0.606195 0.221357
C190  C     C_3   0.765102 0.003078 0.441197 -0.738085
H52   H     H_    0.778594 0.048574 0.393812 0.221360
H53   H     H_    0.782318 0.006798 0.488906 0.248840
H54   H     H_    0.782447 0.955654 0.397903 0.213881
C191  C     C_3   0.735553 0.503066 0.559157 -0.739908
H55   H     H_    0.718694 0.455732 0.602667 0.213707
H56   H     H_    0.722315 0.548678 0.606484 0.218745
H57   H     H_    0.717687 0.506696 0.512334 0.246127
C192  C     C_3   0.264450 0.496936 0.440849 -0.739918
H58   H     H_    0.277693 0.451323 0.393520 0.218750
H59   H     H_    0.281312 0.544270 0.397343 0.213716
H60   H     H_    0.282308 0.493304 0.487683 0.246129
C193  C     C_3   0.118650 0.839475 0.187226 -0.892054
H61   H     H_    0.086938 0.806443 0.239693 0.218711
H62   H     H_    0.151433 0.852379 0.204748 0.247061
H63   H     H_    0.100057 0.891598 0.185994 0.235146
C194  C     C_3   0.881343 0.160512 0.812783 -0.892047
H64   H     H_    0.848558 0.147610 0.795262 0.247062
H65   H     H_    0.913057 0.193538 0.760311 0.218707
H66   H     H_    0.899931 0.108387 0.814021 0.235150
C195  C     C_3   0.882531 0.837215 0.811005 -0.882321
H67   H     H_    0.914292 0.803805 0.758935 0.225015
H68   H     H_    0.849754 0.849895 0.793296 0.246828
H69   H     H_    0.901070 0.889377 0.811745 0.233456
C196  C     C_3   0.117471 0.162785 0.188995 -0.882322
H70   H     H_    0.150247 0.150105 0.206702 0.246829
H71   H     H_    0.085709 0.196193 0.241065 0.225015
H72   H     H_    0.098932 0.110622 0.188254 0.233457
C197  C     C_3   0.613714 0.286473 0.188145 -0.878400
H73   H     H_    0.635132 0.250910 0.214034 0.249907
H74   H     H_    0.602567 0.337261 0.226130 0.225471
H75   H     H_    0.575951 0.258161 0.200712 0.233037
C198  C     C_3   0.386289 0.713553 0.811863 -0.878498
H76   H     H_    0.397476 0.662774 0.773874 0.225500
H77   H     H_    0.364862 0.749078 0.785958 0.249913
H78   H     H_    0.424027 0.741914 0.799322 0.233063
C199  C     C_3   0.384832 0.284741 0.814568 -0.903957
H79   H     H_    0.363109 0.248872 0.789752 0.247084
H80   H     H_    0.396524 0.334650 0.774946 0.224308
H81   H     H_    0.422273 0.255850 0.803056 0.232259
C200  C     C_3   0.615164 0.715283 0.185431 -0.903926
H82   H     H_    0.603456 0.665374 0.225061 0.224301
H83   H     H_    0.636893 0.751141 0.210245 0.247084
H84   H     H_    0.577729 0.744197 0.196936 0.232257

loop_
_geom_bond_atom_site_label_1
_geom_bond_atom_site_label_2
_ccdc_geom_bond_type
C85   C182  S    
C107  H31   S    
C6    O22   A    
C197  H74   S    
C9    C169  A    
C34   C42   A    
C66   H22   S    
C171  C179  A    
C154  H3    S    
C181  C187  A    
C129  H45   S    
C198  H76   S    
C86   O5    A    
C27   C99   A    
C170  C178  A    
C175  C183  A    
C42   C109  A    
C61   H17   S    
C24   C96   A    
C198  H78   S    
C137  O39   A    
C103  H27   S    
Cu2   O2    S    
C62   C70   A    
C101  H25   S    
Cu4   O20   S    
C63   H19   S    
C188  C192  S    
Cu3   Cu8   S    
Cu1   Cu6   S    
C155  H2    S    
C136  O34   A    
C138  O46   A    
C123  C131  A    
C143  C151  A    
C90   C177  S    
Cu11  Cu12  S    
C11   C167  A    
C82   C98   A    
C76   C84   A    
C73   C81   A    
C161  C163  A    
C104  H28   S    
C162  C164  A    
C91   O4    A    
Cu5   O29   S    
Cu9   O45   S    
Cu12  O34   S    
C89   O2    A    
Cu7   O31   S    
C84   C100  A    
Cu4   Cu7   S    
C187  C191  S    
C121  C129  A    
C14   H10   S    
C37   C114  A    
C27   C35   A    
C10   C171  A    
C133  O35   A    
C21   C29   A    
C106  H30   S    
C81   C121  A    
Cu5   O5    S    
C194  H66   S    
C24   C32   A    
C5    C70   S    
C146  C154  A    
C67   H23   S    
C119  H35   S    
C87   O8    A    
C63   C71   A    
C128  H44   S    
C36   C44   A    
C10   C170  A    
C199  H81   S    
Cu6   O6    S    
C12   C174  A    
C190  H54   S    
C58   C140  S    
C176  C184  A    
Cu1   O25   S    
C8    C71   S    
Cu11  O41   S    
Cu6   O14   S    
Cu3   O19   S    
C88   C183  S    
C56   C134  S    
C148  C162  A    
C183  C188  A    
Cu4   O28   S    
C108  C116  A    
C21   C93   A    
C78   C94   A    
Cu11  O36   S    
C9    C165  A    
Cu12  O43   S    
C23   C95   A    
C19   H15   S    
C49   C97   A    
C21   C42   A    
C22   C41   A    
C51   C107  A    
C195  H67   S    
C24   C43   A    
C115  C199  S    
C82   C122  A    
C161  C165  A    
C17   C175  A    
C60   C138  S    
Cu10  O38   S    
C18   C176  A    
C6    C69   S    
C29   C125  A    
Cu5   O21   S    
Cu2   O10   S    
C110  C194  S    
C69   C77   A    
C53   C135  S    
C114  C198  S    
C31   C127  A    
C45   C93   A    
C174  C182  A    
C71   C79   A    
C179  C186  A    
C30   C38   A    
C11   C176  A    
C17   C144  A    
C1    C74   S    
C103  C111  A    
C18   C143  A    
C78   C118  A    
C149  C151  A    
C193  H62   S    
C2    O18   A    
C48   C96   A    
C49   C57   A    
C124  C132  A    
C196  H71   S    
C52   C60   A    
C59   C67   A    
C53   C61   A    
C141  C159  A    
C20   C174  A    
C191  H56   S    
C55   C63   A    
C126  H42   S    
C86   C181  S    
Cu3   O3    S    
C56   C64   A    
C35   C43   A    
C45   C53   A    
C22   C94   A    
Cu1   O17   S    
C18   H14   S    
C87   O27   A    
C156  H1    S    
C149  H8    S    
C169  C177  A    
C88   O7    A    
C123  H39   S    
C200  H83   S    
C50   C98   A    
C13   H9    S    
C127  H43   S    
C7    C72   S    
C104  C112  A    
C145  C163  A    
C23   C31   A    
Cu4   O4    S    
C146  C164  A    
C14   C147  A    
C52   C100  A    
C134  O36   A    
C16   C145  A    
C178  C186  A    
C92   O32   A    
C25   C38   A    
C46   C94   A    
C117  H33   S    
C27   C40   A    
C10   C166  A    
C195  H69   S    
C91   C180  S    
C89   O29   A    
C182  C188  A    
C89   C178  S    
C91   O31   A    
C60   C68   A    
C2    C73   S    
C25   C97   A    
Cu6   O30   S    
Cu10  O46   S    
C67   C75   A    
C147  C155  A    
C108  H32   S    
C22   C30   A    
C20   C141  A    
Cu4   O12   S    
C15   C146  A    
C68   C76   A    
C184  C187  A    
C32   C128  A    
C8    O24   A    
C122  H38   S    
C189  H51   S    
C85   O25   A    
Cu9   Cu10  S    
C173  C181  A    
C1    O14   A    
C112  C196  S    
C13   C171  A    
C3    O16   A    
Cu2   O26   S    
Cu12  O42   S    
C140  O38   A    
C117  C125  A    
C25   C33   A    
C119  C127  A    
Cu7   O7    S    
C157  C167  A    
C65   H21   S    
C158  C168  A    
C85   O6    A    
C52   C108  A    
C20   H16   S    
C164  C165  A    
C124  H40   S    
C92   O3    A    
C40   C115  A    
C101  C109  A    
C102  H26   S    
C177  C185  A    
C57   C139  S    
Cu1   O1    S    
C197  H73   S    
C194  H65   S    
C4    C75   S    
Cu2   Cu5   S    
C162  C166  A    
C79   C119  A    
Cu6   O22   S    
Cu3   O11   S    
C153  C155  A    
C154  C156  A    
C172  C180  A    
C198  H77   S    
Cu7   O23   S    
C157  C159  A    
C83   C99   A    
C158  C160  A    
C7    O12   A    
C74   C82   A    
C199  H80   S    
C190  H53   S    
C199  H79   S    
C90   O1    A    
C47   C103  A    
Cu11  O44   S    
C50   C58   A    
C163  C166  A    
C3    O19   A    
C147  C161  A    
C38   C113  A    
C132  H48   S    
C49   C105  A    
C54   C62   A    
C28   C39   A    
C192  H58   S    
C23   C44   A    
C72   C80   A    
C200  H84   S    
C105  H29   S    
C19   C173  A    
C79   C95   A    
C92   C179  S    
Cu8   O16   S    
C46   C54   A    
C189  H50   S    
Cu2   O18   S    
C131  H47   S    
C19   C142  A    
C6    O9    A    
C136  O44   A    
C102  C110  A    
C35   C131  A    
Cu9   O40   S    
Cu10  O39   S    
C33   C129  A    
C36   C132  A    
C109  C193  S    
C190  H52   S    
C134  O42   A    
C57   C65   A    
C120  C128  A    
C26   C37   A    
C4    O20   A    
Cu8   O8    S    
C5    O21   A    
C90   O30   A    
C33   C41   A    
C142  C150  A    
C7    O23   A    
C55   C133  S    
C139  O47   A    
C75   C83   A    
C193  H61   S    
C77   C93   A    
Cu8   O24   S    
C185  C189  S    
C196  H70   S    
C44   C111  A    
C16   C170  A    
C28   C36   A    
C144  C152  A    
C39   C116  A    
C29   C37   A    
C50   C106  A    
C9    C172  A    
C148  C156  A    
C83   C123  A    
C133  O41   A    
C66   C74   A    
C30   C126  A    
C70   C78   A    
C189  H49   S    
C135  O33   A    
C68   H24   S    
C130  H46   S    
C141  C149  A    
C200  H82   S    
C46   C102  A    
C15   C169  A    
C106  C114  A    
C62   H18   S    
C150  H7    S    
C77   C117  A    
C2    O13   A    
C59   C137  S    
Cu11  O33   S    
C138  O40   A    
C65   C73   A    
C159  C168  A    
C139  O37   A    
C160  C167  A    
C15   H11   S    
C58   C66   A    
C195  H68   S    
C105  C113  A    
C125  H41   S    
C80   C96   A    
C153  H4    S    
C145  C153  A    
C28   C100  A    
C32   C40   A    
Cu9   O48   S    
Cu12  O35   S    
Cu10  O47   S    
C48   C104  A    
C111  C195  S    
C17   H13   S    
C26   C34   A    
C143  C157  A    
C51   C99   A    
C11   C173  A    
C64   H20   S    
C152  H5    S    
C16   H12   S    
C14   C172  A    
C87   C184  S    
C193  H63   S    
Cu5   O13   S    
C191  H55   S    
C116  C200  S    
C196  H72   S    
Cu7   O15   S    
Cu8   O32   S    
C113  C197  S    
C118  H34   S    
C191  H57   S    
C54   C136  S    
C3    C76   S    
C107  C115  A    
C45   C101  A    
C26   C98   A    
C12   C175  A    
C41   C110  A    
C197  H75   S    
C150  C152  A    
C80   C120  A    
C186  C190  S    
C51   C59   A    
C43   C112  A    
C144  C158  A    
C47   C55   A    
C192  H60   S    
C61   C69   A    
C48   C56   A    
C142  C160  A    
C140  O48   A    
Cu9   O37   S    
Cu3   O27   S    
C84   C124  A    
Cu1   O9    S    
C8    O11   A    
C137  O45   A    
C88   O28   A    
C120  H36   S    
C192  H59   S    
C81   C97   A    
C4    O15   A    
C121  H37   S    
C5    O10   A    
C31   C39   A    
C64   C72   A    
C151  H6    S    
C194  H64   S    
C180  C185  A    
C1    O17   A    
C34   C130  A    
C12   C168  A    
C86   O26   A    
C47   C95   A    
C118  C126  A    
C13   C148  A    
C135  O43   A    
C122  C130  A    
