data_str_m2_o10_o28_f0_pcu.sym.106
_audit_creation_date              2012-12-10T16:50:06-0500
_audit_creation_method            fapswitch 2.2
_symmetry_space_group_name_H-M    P1
_symmetry_Int_Tables_number       1
_space_group_crystal_system       triclinic
_cell_length_a                    23.461339
_cell_length_b                    8.678063
_cell_length_c                    7.439861
_cell_angle_alpha                 103.002227
_cell_angle_beta                  94.106739
_cell_angle_gamma                 92.344983
_cell_volume                      1469.58565213

loop_
_atom_site_label
_atom_site_type_symbol
_atom_type_description
_atom_site_fract_x
_atom_site_fract_y
_atom_site_fract_z
_atom_type_partial_charge
C1    C     C_R   0.498291 0.199668 0.453201 0.913869
C2    C     C_R   0.501707 0.800332 0.546799 0.914313
C3    C     C_R   0.245313 0.590795 0.657188 -0.067293
C4    C     C_R   0.754702 0.408617 0.343495 -0.067511
C5    C     C_R   0.304468 0.586738 0.653077 -0.215209
C6    C     C_R   0.695544 0.412669 0.347488 -0.215575
C7    C     C_R   0.328502 0.485859 0.506425 -0.110784
C8    C     C_R   0.671487 0.514137 0.493595 -0.110478
C9    C     C_R   0.292108 0.383552 0.364426 -0.054038
C10   C     C_R   0.707849 0.617031 0.635147 -0.054290
C11   C     C_R   0.232735 0.391221 0.369580 -0.134556
C12   C     C_R   0.767228 0.609366 0.630126 -0.134192
C13   C     C_R   0.209403 0.493877 0.514916 0.319888
C14   C     C_R   0.790592 0.506127 0.485344 0.319618
C15   C     C_2   0.497403 0.031741 0.426851 -0.339011
C16   C     C_2   0.502596 0.968259 0.573148 -0.338682
C17   C     C_R   0.391037 0.494491 0.501771 0.833178
C18   C     C_R   0.608958 0.505491 0.498227 0.833551
C19   C     C_R   0.882125 0.628304 0.448755 0.544751
C20   C     C_R   0.117881 0.371722 0.551598 0.544837
C21   C     C_R   0.877832 0.373631 0.521627 0.546096
C22   C     C_R   0.122173 0.626426 0.478807 0.546063
C23   C     C_R   0.937644 0.370174 0.529118 -0.013367
C24   C     C_R   0.062363 0.629886 0.471328 -0.013387
C25   C     C_R   0.969880 0.500098 0.496021 -0.014934
C26   C     C_R   0.030128 0.499957 0.504417 -0.014930
C27   C     C_R   0.942017 0.630260 0.454796 -0.014612
C28   C     C_R   0.057990 0.369785 0.545618 -0.014689
C29   C     C_R   0.965874 0.241182 0.570581 -0.163330
C30   C     C_R   0.034133 0.758880 0.429871 -0.163371
C31   C     C_R   0.025449 0.241002 0.578791 -0.172287
C32   C     C_R   0.974559 0.759049 0.421636 -0.172256
Cu1   Cu    Cu3+1 0.506340 0.517380 0.684380 0.994354
Cu2   Cu    Cu3+1 0.493660 0.482620 0.315620 0.994421
H1    H     H_    0.942064 0.140235 0.597277 0.193138
H2    H     H_    0.057943 0.859829 0.403182 0.193142
H3    H     H_    0.045873 0.139789 0.611261 0.186412
H4    H     H_    0.954134 0.860258 0.389155 0.186431
H5    H     H_    0.204091 0.314908 0.262442 0.181267
H6    H     H_    0.795854 0.686123 0.736928 0.181571
H7    H     H_    0.492465 0.960028 0.285911 0.182650
H8    H     H_    0.507535 0.039972 0.714089 0.182643
H9    H     H_    0.454919 0.379178 0.948847 0.235625
H10   H     H_    0.545080 0.620823 0.051153 0.235613
N1    N     N_R   0.851485 0.501672 0.482874 -0.469396
N2    N     N_R   0.148516 0.498363 0.517498 -0.469461
N3    N     N_2   0.484110 0.456420 0.038520 -0.215498
N4    N     N_2   0.515890 0.543580 0.961480 -0.215539
O1    O     O_R   0.504120 0.286130 0.619770 -0.593337
O2    O     O_R   0.495880 0.713870 0.380230 -0.593373
O3    O     O_R   0.493410 0.256770 0.308360 -0.564390
O4    O     O_R   0.506590 0.743230 0.691640 -0.564363
O5    O     O_R   0.423230 0.514630 0.655730 -0.594857
O6    O     O_R   0.576770 0.485370 0.344270 -0.594768
O7    O     O_R   0.412530 0.485280 0.344320 -0.559709
O8    O     O_R   0.587470 0.514720 0.655680 -0.559753
O9    O     O_2   0.854638 0.751748 0.409152 -0.505683
O10   O     O_2   0.145372 0.248244 0.591097 -0.505531
O11   O     O_2   0.846250 0.251147 0.555033 -0.511409
O12   O     O_2   0.153760 0.748927 0.445459 -0.511339
H11   H     H_    0.227310 0.669946 0.770273 0.157697
H12   H     H_    0.772721 0.329009 0.230827 0.157871
H13   H     H_    0.331577 0.665203 0.762736 0.166606
H14   H     H_    0.668451 0.333746 0.238186 0.166347
C33   C     C_2   0.313777 0.262630 0.214101 0.858730
O13   O     O_2   0.356904 0.194583 0.243451 -0.600666
O14   O     O_R   0.283293 0.221825 0.039909 -0.741929
H15   H     H_    0.301799 0.137033 0.949442 0.341656
C34   C     C_2   0.686138 0.738558 0.784785 0.858742
O15   O     O_2   0.642891 0.805964 0.755000 -0.600924
O16   O     O_R   0.716715 0.780682 0.958778 -0.741904
H16   H     H_    0.698177 0.865799 0.048732 0.341529

loop_
_geom_bond_atom_site_label_1
_geom_bond_atom_site_label_2
_ccdc_geom_bond_type
C12   H6    S    
C11   H5    S    
C23   C29   A    
C19   N1    A    
C21   O11   S    
C1    C15   S    
C32   H4    S    
H10   N4    S    
C25   C27   A    
Cu1   O5    S    
C2    C16   S    
C29   H1    S    
C26   C28   A    
N3    N4    D    
C3    C13   A    
C30   H2    S    
C9    C33   S    
Cu2   N3    S    
Cu1   O8    S    
C3    H11   S    
Cu1   Cu2   S    
C27   C32   A    
C17   O5    A    
Cu2   O7    S    
O16   H16   S    
C29   C31   A    
C4    C14   A    
C19   O9    S    
Cu1   O4    S    
C30   C32   A    
C18   O8    A    
C9    C11   A    
C24   C26   A    
C15   H7    S    
Cu2   O3    S    
C34   O15   D    
C20   C28   A    
C2    O4    A    
C10   C12   A    
C4    C6    A    
C22   N2    A    
C12   C14   A    
Cu2   O6    S    
C14   N1    S    
C21   N1    A    
C23   C25   A    
C21   C23   A    
C22   O12   S    
C13   N2    S    
C22   C24   A    
Cu2   O2    S    
C24   C30   A    
C34   O16   S    
C18   O6    A    
Cu1   O1    S    
C15   C16   D    
C10   C34   S    
C4    H12   S    
C11   C13   A    
C19   C27   A    
C5    H13   S    
C7    C9    A    
C33   O13   D    
C6    H14   S    
C28   C31   A    
C5    C7    A    
Cu1   N4    S    
C17   O7    A    
C33   O14   S    
C6    C8    A    
C1    O3    A    
C2    O2    A    
C7    C17   S    
C25   C26   A    
C16   H8    S    
C20   O10   S    
C8    C10   A    
C8    C18   S    
O14   H15   S    
C31   H3    S    
H9    N3    S    
C3    C5    A    
C20   N2    A    
C1    O1    A    
