data_str_m4_o4_o22_f0_acs.sym.11
_audit_creation_date              2012-12-11T15:48:34-0500
_audit_creation_method            fapswitch 2.2
_symmetry_space_group_name_H-M    P1
_symmetry_Int_Tables_number       1
_space_group_crystal_system       triclinic
_cell_length_a                    10.992683
_cell_length_b                    11.011902
_cell_length_c                    18.778284
_cell_angle_alpha                 90.456629
_cell_angle_beta                  90.044348
_cell_angle_gamma                 60.114444
_cell_volume                      1970.76804459

loop_
_atom_site_label
_atom_site_type_symbol
_atom_type_description
_atom_site_fract_x
_atom_site_fract_y
_atom_site_fract_z
_atom_type_partial_charge
C1    C     C_R   0.233758 0.648349 0.608708 0.545297
C2    C     C_R   0.553371 0.185368 0.717411 -0.163094
C3    C     C_R   0.556483 0.188489 0.790519 -0.140801
C4    C     C_R   0.630145 0.590234 0.608651 0.583250
C5    C     C_3   0.933391 0.070197 0.784175 -0.257225
C6    C     C_3   0.924366 0.079958 0.703629 -0.273708
C7    C     C_R   0.660677 0.183312 0.676734 0.001455
C8    C     C_R   0.164091 0.675466 0.831230 0.007181
C9    C     C_R   0.124446 0.594880 0.789495 0.014962
C10   C     C_R   0.131806 0.593369 0.715826 0.015599
C11   C     C_R   0.189193 0.776093 0.722037 -0.179484
C12   C     C_3   0.749884 0.506078 0.800889 -0.275344
C13   C     C_R   0.194659 0.768212 0.795885 -0.186686
C14   C     C_3   0.172709 0.442585 0.791908 -0.264855
C15   C     C_3   0.179751 0.441556 0.710993 -0.268040
C16   C     C_R   0.627187 0.230382 0.603379 0.524430
C17   C     C_R   0.174964 0.676568 0.680742 0.025748
C18   C     C_R   0.651771 0.658637 0.165087 0.017818
C19   C     C_R   0.747063 0.536750 0.201552 0.030834
C20   C     C_R   0.742967 0.530538 0.274275 0.035933
C21   C     C_R   0.531785 0.753841 0.278068 -0.163081
C22   C     C_R   0.535056 0.761032 0.203224 -0.171519
C23   C     C_3   0.685335 0.665765 0.816590 0.014773
C24   C     C_3   0.904935 0.454701 0.202099 -0.266157
C25   C     C_3   0.898311 0.450828 0.282227 -0.279297
C26   C     C_R   0.643532 0.642387 0.314522 0.017695
C27   C     C_R   0.634226 0.190340 0.168363 0.019765
C28   C     C_R   0.220738 0.649128 0.402141 0.560889
C29   C     C_R   0.516900 0.208347 0.206483 0.019727
C30   C     C_R   0.513830 0.219902 0.279309 0.033203
C31   C     C_R   0.729775 0.224973 0.277503 -0.154267
C32   C     C_R   0.731481 0.216877 0.203241 -0.155333
C33   C     C_3   0.448032 0.120432 0.208931 -0.270411
C34   C     C_3   0.650422 0.620831 0.682750 0.026093
C35   C     C_3   0.444202 0.134681 0.289090 -0.279239
C36   C     C_R   0.626633 0.213694 0.316349 0.021921
C37   C     C_R   0.116728 0.691112 0.188806 0.024678
C38   C     C_R   0.069834 0.810759 0.231643 0.046929
C39   C     C_R   0.083021 0.802221 0.304059 0.017335
C40   C     C_R   0.639337 0.619758 0.390606 0.559315
C41   C     C_R   0.171726 0.552771 0.294910 -0.164614
C42   C     C_R   0.158618 0.562446 0.221076 -0.180377
C43   C     C_3   0.102612 0.926779 0.227331 -0.264862
C44   C     C_3   0.113250 0.920922 0.307487 -0.273618
C45   C     C_3   0.755806 0.676670 0.689410 0.172676
C46   C     C_R   0.147112 0.671101 0.335977 0.020630
C47   C     C_R   0.700755 0.103317 0.896616 0.538912
C48   C     C_R   0.718195 0.684767 0.890721 0.531832
C49   C     C_R   0.115606 0.707196 0.904850 0.536803
C50   C     C_R   0.672594 0.111482 0.102281 0.546104
C51   C     C_R   0.695076 0.688568 0.096822 0.540548
C52   C     C_R   0.612038 0.238254 0.392319 0.550315
C53   C     C_R   0.088556 0.712407 0.113914 0.546618
C54   C     C_3   0.524795 0.736678 0.799743 -0.087185
C55   C     C_3   0.507347 0.719567 0.718909 -0.215677
C56   C     C_3   0.713516 0.482749 0.725009 -0.300958
C57   C     C_3   0.753376 0.728055 0.766430 -0.195171
C58   C     C_2   0.435544 0.887694 0.824093 0.218059
C59   C     C_3   0.631308 0.893873 0.628050 -0.090753
C60   C     C_R   0.676826 0.168925 0.826732 0.001637
C61   C     C_R   0.781727 0.172966 0.786634 -0.009181
C62   C     C_R   0.772723 0.181877 0.712487 0.005476
Cr1   Cr    Cr6+3 0.392960 0.397920 0.502240 1.003817
Cr2   Cr    Cr6+3 0.398340 0.708480 0.501250 0.996117
Cr3   Cr    Cr6+3 0.708670 0.393570 0.496460 1.012633
Cr4   Cr    Cr6+3 0.937650 0.938540 0.007610 1.003203
Cr5   Cr    Cr6+3 0.625330 0.937370 0.994520 1.011025
Cr6   Cr    Cr6+3 0.937940 0.625230 0.001190 1.004211
H1    H     H_    0.810362 0.399632 0.698730 0.142440
H2    H     H_    0.211308 0.851938 0.697817 0.150151
H3    H     H_    0.483285 0.677422 0.829112 0.078178
H4    H     H_    0.212227 0.842816 0.825316 0.133947
H5    H     H_    0.090562 0.421776 0.812782 0.144426
H6    H     H_    0.275310 0.384442 0.818610 0.134935
H7    H     H_    0.286319 0.383582 0.688702 0.166783
H8    H     H_    0.101850 0.419803 0.684928 0.127522
H9    H     H_    0.446013 0.837569 0.307261 0.120256
H10   H     H_    0.453157 0.851160 0.176241 0.114880
H11   H     H_    0.953223 0.516320 0.183932 0.178211
H12   H     H_    0.861860 0.693191 0.783458 0.108236
H13   H     H_    0.947532 0.349820 0.176577 0.122063
H14   H     H_    0.938941 0.343686 0.303254 0.130487
H15   H     H_    0.444196 0.667751 0.712615 0.104502
H16   H     H_    0.938738 0.513298 0.309641 0.148120
H17   H     H_    0.811256 0.234633 0.304415 0.128495
H18   H     H_    0.816231 0.216771 0.174016 0.118812
H19   H     H_    0.519928 0.011871 0.190687 0.169662
H20   H     H_    0.342239 0.173009 0.184185 0.127924
H21   H     H_    0.336125 0.197029 0.310891 0.132873
H22   H     H_    0.512317 0.034254 0.316747 0.140898
H23   H     H_    0.861573 0.582548 0.683568 0.152982
H24   H     H_    0.215941 0.450080 0.318410 0.142558
H25   H     H_    0.187416 0.469239 0.189441 0.121954
H26   H     H_    0.013690 0.025135 0.207571 0.142146
H27   H     H_    0.450392 0.821171 0.691080 0.168295
H28   H     H_    0.204482 0.894074 0.200344 0.137233
H29   H     H_    0.220093 0.891695 0.325608 0.161697
H30   H     H_    0.027639 0.014952 0.334377 0.130116
H31   H     H_    0.697661 0.843733 0.771283 0.172300
H32   H     H_    0.865906 0.451022 0.806085 0.138377
H33   H     H_    0.709903 0.458230 0.839708 0.133817
H34   H     H_    0.466753 0.181457 0.692678 0.146272
H35   H     H_    0.635074 0.447288 0.727611 0.132395
H36   H     H_    0.384212 0.909902 0.875737 0.115054
H37   H     H_    0.571761 0.934748 0.677982 0.146597
H38   H     H_    0.563189 0.889302 0.586232 0.161601
H39   H     H_    0.660533 0.970079 0.608673 0.142650
H40   H     H_    0.471724 0.185467 0.817797 0.189224
H41   H     H_    0.950762 0.969146 0.804890 0.176848
H42   H     H_    0.997891 0.111813 0.808150 0.139728
H43   H     H_    0.982530 0.128926 0.680539 0.135738
H44   H     H_    0.941641 0.982700 0.676331 0.159856
O1    O     O_R   0.507380 0.255700 0.581440 -0.543045
O2    O     O_R   0.837170 0.593410 0.915250 -0.527892
O3    O     O_R   0.065200 0.635530 0.931570 -0.496854
O4    O     O_R   0.280320 0.527350 0.578930 -0.501338
O5    O     O_R   0.068260 0.828890 0.091840 -0.520976
O6    O     O_R   0.798870 0.057410 0.079340 -0.507982
O7    O     O_R   0.584930 0.080350 0.076780 -0.525624
O8    O     O_R   0.626960 0.809650 0.067060 -0.512076
O9    O     O_R   0.816040 0.596610 0.076510 -0.526886
O10   O     O_R   0.045610 0.638500 0.081060 -0.513533
O11   O     O_3   0.833640 0.833710 0.001100 -0.248489
O12   O     O_R   0.524480 0.695810 0.424040 -0.506009
O13   O     O_R   0.260510 0.739590 0.584590 -0.542241
O14   O     O_R   0.532300 0.695080 0.573820 -0.513984
O15   O     O_R   0.744840 0.503500 0.576370 -0.504184
O16   O     O_R   0.699120 0.276560 0.571960 -0.509744
O17   O     O_R   0.498940 0.256500 0.419860 -0.519154
O18   O     O_R   0.272500 0.528080 0.429150 -0.507041
O19   O     O_R   0.252060 0.740380 0.423010 -0.525173
O20   O     O_2   0.421407 0.985197 0.787787 -0.577048
O21   O     O_3   0.756129 0.764576 0.634391 -0.562926
O22   O     O_R   0.736390 0.504290 0.414790 -0.512813
O23   O     O_R   0.691300 0.277290 0.422170 -0.511363
O24   O     O_3   0.499990 0.499990 0.499980 -0.271627
O25   O     O_R   0.089400 0.825690 0.930570 -0.534355
O26   O     O_R   0.818460 0.054440 0.929850 -0.505097
O27   O     O_R   0.606060 0.077150 0.915510 -0.516936
O28   O     O_R   0.646550 0.806680 0.917570 -0.501356

loop_
_geom_bond_atom_site_label_1
_geom_bond_atom_site_label_2
_ccdc_geom_bond_type
C15   H7    S    
C21   C26   A    
Cr2   O24   S    
C34   C56   S    
C8    C13   A    
C31   H17   S    
C49   O25   A    
C27   C29   A    
C42   H25   S    
C41   C42   A    
C2    C7    A    
C43   C44   S    
C16   O1    A    
C11   H2    S    
C12   C23   S    
C45   C57   S    
C59   H37   S    
C20   C26   A    
C30   C35   S    
C19   C24   S    
C52   O17   A    
Cr3   O15   S    
C37   C38   A    
C1    O13   A    
C53   O10   A    
C31   C36   A    
C38   C39   A    
C53   O5    A    
C20   C25   S    
C2    H34   S    
C10   C17   A    
C57   H31   S    
C29   C33   S    
C43   H26   S    
C18   C19   A    
C6    H43   S    
Cr1   O18   S    
C37   C42   A    
C47   C60   S    
C44   H30   S    
C54   H3    S    
C19   C20   A    
C58   O20   D    
C8    C9    A    
Cr4   O5    S    
C25   H16   S    
C41   C46   A    
C1    O4    A    
Cr5   O27   S    
Cr5   O8    S    
Cr3   O22   S    
C36   C52   S    
C27   C50   S    
C37   C53   S    
C3    C60   A    
C15   H8    S    
C34   C55   S    
C50   O6    A    
C21   C22   A    
C57   H12   S    
Cr6   O11   S    
C18   C51   S    
C51   O8    A    
C40   O12   A    
C4    C34   S    
C59   H38   S    
C48   O28   A    
C50   O7    A    
Cr3   O16   S    
C24   C25   S    
C22   H10   S    
C55   H27   S    
Cr6   O10   S    
C9    C14   S    
Cr2   O12   S    
C40   O22   A    
C59   O21   S    
C59   H39   S    
C60   C61   A    
Cr1   O1    S    
C24   H13   S    
C14   H5    S    
C7    C62   A    
C29   C30   A    
C44   H29   S    
C24   H11   S    
C31   C32   A    
Cr4   O26   S    
Cr2   O19   S    
C32   H18   S    
C43   H28   S    
C5    C61   S    
C34   C45   S    
C12   C56   S    
Cr5   O28   S    
C16   O16   A    
Cr3   O23   S    
C39   C46   A    
Cr1   O4    S    
C35   H21   S    
C7    C16   S    
C49   O3    A    
C10   C15   S    
C56   H1    S    
Cr2   O14   S    
Cr4   O6    S    
C25   H14   S    
C51   O9    A    
C58   H36   S    
C55   H15   S    
C14   H6    S    
C23   C54   S    
C48   O2    A    
C54   C58   S    
C23   C57   S    
C54   C55   S    
C11   C17   A    
C23   C48   S    
C4    O15   A    
C27   C32   A    
C18   C22   A    
C6    H44   S    
C33   H20   S    
C56   H35   S    
Cr5   O11   S    
Cr6   O9    S    
C47   O27   A    
C39   C44   S    
C13   H4    S    
C30   C36   A    
C3    H40   S    
C45   O21   S    
C4    O14   A    
C28   C46   S    
C28   O19   A    
Cr1   O24   S    
C6    C62   S    
C2    C3    A    
C33   H19   S    
C12   H33   S    
C11   C13   A    
C26   C40   S    
C5    C6    S    
Cr4   O25   S    
C5    H41   S    
C47   O26   A    
C33   C35   S    
C9    C10   A    
C28   O18   A    
Cr1   O17   S    
C61   C62   A    
C45   H23   S    
C12   H32   S    
Cr3   O24   S    
Cr6   O3    S    
Cr4   O11   S    
C35   H22   S    
C38   C43   S    
C41   H24   S    
C1    C17   S    
Cr2   O13   S    
C5    H42   S    
C21   H9    S    
C52   O23   A    
C14   C15   S    
Cr5   O7    S    
C8    C49   S    
Cr6   O2    S    
