data_str_m3_o4_o18_f0_pcu.sym.232
_audit_creation_date              2013-03-05T16:42:23-0500
_audit_creation_method            fapswitch 2.2
_symmetry_space_group_name_H-M    P1
_symmetry_Int_Tables_number       1
_space_group_crystal_system       triclinic
_cell_length_a                    9.899668
_cell_length_b                    10.732216
_cell_length_c                    15.346521
_cell_angle_alpha                 90.780053
_cell_angle_beta                  66.50798
_cell_angle_gamma                 88.128084
_cell_volume                      1493.92502861

loop_
_atom_site_label
_atom_site_type_symbol
_atom_site_description
_atom_site_fract_x
_atom_site_fract_y
_atom_site_fract_z
_atom_type_partial_charge
O1    O     O_R   0.385310 0.683210 0.499990 -0.590094
O2    O     O_R   0.614650 0.683240 0.500000 -0.635497
C1    C     C_R   0.500102 0.740102 0.497231 0.974117
O3    O     O_R   0.319830 0.499970 0.632240 -0.582933
O4    O     O_R   0.549170 0.500000 0.632250 -0.495711
C2    C     C_R   0.407618 0.488537 0.676750 0.945396
Zn1   Zn    Zn3+2 0.346870 0.499980 0.499990 1.016817
Zn2   Zn    Zn3+2 0.653130 0.500020 0.500010 1.061255
O5    O     O_R   0.385350 0.316760 0.500000 -0.644162
O6    O     O_R   0.614690 0.316790 0.500010 -0.570265
O7    O     O_R   0.450830 0.500000 0.367750 -0.600449
O8    O     O_R   0.680170 0.500030 0.367760 -0.621425
C3    C     C_R   0.506076 0.260113 0.493177 0.913792
C4    C     C_R   0.593364 0.500267 0.323084 0.927036
C5    C     C_R   0.348059 0.460121 0.779892 -0.307038
C6    C     C_R   0.656085 0.479482 0.220121 -0.156451
C7    C     C_R   0.155010 0.495661 0.937094 -0.127678
C8    C     C_R   0.197735 0.483348 0.839517 0.359788
C9    C     C_R   0.445057 0.415114 0.821082 0.248066
C10   C     C_R   0.399041 0.420950 0.921671 -0.108754
C11   C     C_R   0.256365 0.473573 0.978195 -0.020688
C12   C     C_R   0.493769 0.387301 0.967746 0.087664
C13   C     C_R   0.466734 0.443921 0.056956 0.052246
C14   C     C_R   0.323827 0.492744 0.112513 -0.234840
C15   C     C_R   0.216378 0.502987 0.075029 0.470208
C16   C     C_R   0.610036 0.296191 0.930912 -0.092431
C17   C     C_R   0.711305 0.278721 0.972078 -0.170871
C18   C     C_R   0.698928 0.351617 0.051077 0.112650
C19   C     C_R   0.579245 0.439769 0.091879 0.009731
C20   C     C_R   0.800642 0.333773 0.092624 -0.182702
C21   C     C_R   0.775435 0.393398 0.179128 -0.149758
C22   C     C_R   0.574208 0.517987 0.168092 0.224879
H1    H     H_    0.843826 0.366829 0.216514 0.222361
H2    H     H_    0.799218 0.207892 0.942130 0.153308
H3    H     H_    0.041464 0.524026 0.980483 0.227903
H4    H     H_    0.293434 0.519258 0.186404 0.155359
H5    H     H_    0.620279 0.233480 0.872835 0.184929
H6    H     H_    0.892278 0.266305 0.062495 0.165169
C23   C     C_R   0.383615 0.942104 0.489555 0.152714
C24   C     C_R   0.508283 0.870969 0.480777 -0.116915
C25   C     C_R   0.645379 0.927166 0.448942 -0.282345
H7    H     H_    0.746614 0.871254 0.430451 0.198812
C26   C     C_R   0.651811 0.056676 0.443348 0.339075
C27   C     C_R   0.517640 0.128132 0.474676 -0.196812
C28   C     C_R   0.388374 0.068930 0.487962 0.015946
C29   C     C_3   0.237293 0.088977 0.563877 -0.470421
C30   C     C_3   0.230536 0.948495 0.564829 0.219401
H8    H     H_    0.237462 0.132105 0.630204 0.220271
H9    H     H_    0.159152 0.133900 0.537168 0.193230
H10   H     H_    0.149099 0.914125 0.538302 0.102429
C31   C     C_R   0.913846 0.608159 0.517453 0.118151
N1    N     N_R   0.856900 0.500860 0.500610 -0.069790
C32   C     C_R   0.949286 0.396979 0.472209 -0.037108
H11   H     H_    0.911436 0.312915 0.452058 0.212200
C33   C     C_R   0.093760 0.397585 0.470563 -0.097173
H12   H     H_    0.164764 0.314591 0.446951 0.153800
N2    N     N_R   0.142540 0.500820 0.500610 -0.074385
C34   C     C_R   0.052833 0.606034 0.522669 0.106020
C35   C     C_3   0.989232 0.676494 0.616052 0.165443
C36   C     C_3   0.846031 0.693686 0.602371 0.171002
H13   H     H_    0.041991 0.763465 0.618493 0.077866
H14   H     H_    0.824213 0.789639 0.582879 0.065354
O9    O     O_3   0.075049 0.548666 0.130080 -0.770624
H15   H     H_    0.065526 0.564049 0.196191 0.339544
N3    N     N_R   0.792587 0.112357 0.405897 0.210847
O10   O     O_R   0.902308 0.063079 0.421733 -0.427994
O11   O     O_R   0.819017 0.195236 0.340685 -0.443132
O12   O     O_3   0.224086 0.899297 0.650555 -0.737817
H16   H     H_    0.122905 0.920089 0.698148 0.340265
O13   O     O_3   0.975610 0.598942 0.691319 -0.610290
H17   H     H_    0.931283 0.652582 0.749822 0.375902
N4    N     N_R   0.504869 0.642002 0.183617 0.202307
O14   O     O_R   0.497913 0.701418 0.112021 -0.358117
O15   O     O_R   0.477067 0.705530 0.262124 -0.401759
O16   O     O_3   0.724879 0.644769 0.675185 -0.622647
H18   H     H_    0.687034 0.710918 0.725839 0.334858
O17   O     O_3   0.089562 0.495987 0.805431 -0.696406
H19   H     H_    0.108482 0.428569 0.756719 0.374854
N5    N     N_R   0.591103 0.369916 0.759914 0.212017
O18   O     O_R   0.706337 0.424942 0.759812 -0.295125
O19   O     O_R   0.608751 0.275352 0.701848 -0.414368

loop_
_geom_bond_atom_site_label_1
_geom_bond_atom_site_label_2
_geom_bond_distance
_ccdc_geom_bond_type
C5    C8    1.413496 A    
C33   H12   1.079812 S    
C25   H7    1.083664 S    
C9    C10   1.424543 A    
C26   C27   1.413444 A    
C22   N4    1.449370 S    
O17   H19   0.991074 S    
N1    C32   1.368112 A    
C6    C21   1.401987 A    
C5    C9    1.420181 A    
C29   H9    1.110253 S    
C16   C17   1.391121 A    
C14   H4    1.082124 S    
C13   C19   1.415322 A    
C18   C19   1.417781 A    
C19   C22   1.413932 A    
C20   C21   1.391563 A    
O7    C4    1.300044 A    
C20   H6    1.083791 S    
C36   H14   1.114442 S    
C15   O9    1.383160 S    
O5    C3    1.288400 A    
C2    C5    1.492309 S    
O12   H16   0.992108 S    
N3    O11   1.300717 A    
C13   C14   1.407375 A    
C21   H1    1.081857 S    
O13   H17   0.992656 S    
Zn2   N1    2.021258 S    
C26   N3    1.433469 S    
C23   C28   1.363686 A    
C35   C36   1.519575 S    
C25   C26   1.395705 A    
O3    Zn1   1.938483 S    
C30   H10   1.108494 S    
C32   C33   1.420594 A    
C17   H2    1.083924 S    
C29   H8    1.113062 S    
C35   H13   1.091746 S    
C31   N1    1.364250 A    
C14   C15   1.398714 A    
N4    O15   1.301225 A    
C23   C24   1.388259 A    
N5    O19   1.301638 A    
C34   C35   1.497352 S    
C28   C29   1.491152 S    
C7    C11   1.397828 A    
N5    O18   1.301048 A    
O1    C1    1.293707 A    
Zn1   O7    1.874204 S    
O16   H18   0.992001 S    
Zn2   O8    1.938480 S    
C7    C8    1.387360 A    
C31   C34   1.409225 A    
C9    N5    1.437573 S    
O3    C2    1.305953 A    
C24   C25   1.406166 A    
C10   C12   1.422412 A    
C1    C24   1.429589 S    
C33   N2    1.368187 A    
C4    C6    1.459884 S    
C30   O12   1.402780 S    
C27   C28   1.389785 A    
C23   C30   1.493683 S    
Zn1   O5    1.990676 S    
C11   C15   1.405281 A    
C29   C30   1.511367 S    
O1    Zn1   2.015113 S    
O2    Zn2   1.990676 S    
O8    C4    1.295448 A    
N4    O14   1.301970 A    
O6    C3    1.291519 A    
O4    Zn2   1.874204 S    
C16   H5    1.079249 S    
C32   H11   1.075577 S    
C6    C22   1.402993 A    
C36   O16   1.396928 S    
C18   C20   1.399896 A    
O2    C1    1.286103 A    
N2    C34   1.364814 A    
O4    C2    1.302227 A    
C8    O17   1.370354 S    
C35   O13   1.398024 S    
O9    H15   0.991797 S    
C10   C11   1.422736 A    
Zn2   O6    2.015113 S    
N3    O10   1.301926 A    
C12   C16   1.411792 A    
C17   C18   1.395120 A    
C12   C13   1.410620 A    
C31   C36   1.490372 S    
C7    H3    1.083967 S    
Zn1   N2    2.018749 S    
C3    C27   1.432680 S    
