data_str_m9_o11_o17_f0_sra.sym.5
_audit_creation_date              2012-12-11T14:19:32-0500
_audit_creation_method            fapswitch 2.2
_symmetry_space_group_name_H-M    P1
_symmetry_Int_Tables_number       1
_space_group_crystal_system       triclinic
_cell_length_a                    19.594787
_cell_length_b                    7.237546
_cell_length_c                    17.61724
_cell_angle_alpha                 89.958808
_cell_angle_beta                  107.665303
_cell_angle_gamma                 90.048039
_cell_volume                      2380.6305484

loop_
_atom_site_label
_atom_site_type_symbol
_atom_type_description
_atom_site_fract_x
_atom_site_fract_y
_atom_site_fract_z
_atom_type_partial_charge
O1    O     O_R   0.414820 0.494320 0.416790 -0.531685
O2    O     O_R   0.585180 0.994320 0.583210 -0.533153
O3    O     O_R   0.560270 0.819500 0.430140 -0.526499
O4    O     O_R   0.439730 0.319500 0.569860 -0.527479
C1    C     C_R   0.580018 0.655301 0.413718 0.805563
C2    C     C_R   0.419844 0.155259 0.586105 0.807549
O5    O     O_R   0.413840 0.823740 0.407440 -0.524743
O6    O     O_R   0.586160 0.323740 0.592560 -0.524688
O7    O     O_R   0.437710 0.998590 0.560350 -0.529444
O8    O     O_R   0.562290 0.498590 0.439650 -0.529363
C3    C     C_R   0.386571 0.656435 0.387271 0.761953
C4    C     C_R   0.613407 0.156529 0.612799 0.759943
O9    O     O_3   0.508000 0.662290 0.550200 -0.374627
O10   O     O_3   0.492000 0.162290 0.449800 -0.372751
V1    V     V_3+5 0.498520 0.935380 0.490690 1.646701
V2    V     V_3+5 0.501480 0.435380 0.509310 1.646804
C5    C     C_2   0.786117 0.258149 0.785403 -0.160768
C6    C     C_2   0.213572 0.757709 0.215137 -0.165830
C7    C     C_2   0.813759 0.104730 0.826484 0.312727
C8    C     C_2   0.186187 0.604808 0.173515 0.316034
H1    H     H_    0.817102 0.384894 0.793979 0.074109
H2    H     H_    0.182396 0.884013 0.206975 0.073638
C9    C     C_2   0.710946 0.263480 0.732359 0.336150
C10   C     C_2   0.288758 0.763382 0.268065 0.334215
C11   C     C_2   0.687440 0.152208 0.667527 0.189661
C12   C     C_2   0.312504 0.651545 0.332715 0.185890
C13   C     C_R   0.307816 0.042548 0.610139 0.356183
C14   C     C_R   0.694029 0.551594 0.392086 0.359451
C15   C     C_R   0.371214 0.147351 0.636224 -0.269542
C16   C     C_R   0.628533 0.646731 0.363422 -0.262608
C17   C     C_R   0.387593 0.246073 0.708561 0.308072
C18   C     C_R   0.609503 0.732747 0.287961 0.313455
C19   C     C_R   0.338938 0.246300 0.754306 -0.076256
C20   C     C_R   0.655892 0.721942 0.239539 -0.057162
C21   C     C_R   0.275779 0.136195 0.728690 -0.139589
C22   C     C_R   0.722943 0.629661 0.269789 -0.126346
C23   C     C_R   0.261143 0.030451 0.657576 -0.079316
C24   C     C_R   0.741211 0.540108 0.345176 -0.065275
C25   C     C_R   0.351193 0.351473 0.825357 0.494239
C26   C     C_R   0.637420 0.796680 0.161109 0.474394
C27   C     C_R   0.305203 0.334443 0.871888 -0.232367
C28   C     C_R   0.687160 0.795569 0.118612 -0.226494
C29   C     C_R   0.241502 0.233251 0.845903 -0.051353
C30   C     C_R   0.754659 0.714371 0.149428 -0.045172
C31   C     C_R   0.227054 0.130976 0.774555 -0.031001
C32   C     C_R   0.771781 0.624907 0.224057 -0.024710
C33   C     C_R   0.163985 0.023298 0.749058 -0.045447
C34   C     C_R   0.837772 0.530809 0.252995 -0.041093
C35   C     C_R   0.150305 0.921995 0.678219 -0.234204
C36   C     C_R   0.855078 0.445818 0.327852 -0.237160
C37   C     C_R   0.199443 0.916442 0.635170 0.457215
C38   C     C_R   0.806688 0.441486 0.371921 0.456198
C39   C     C_R   0.192080 0.233953 0.890274 0.366356
C40   C     C_R   0.804673 0.718905 0.105796 0.364730
C41   C     C_R   0.130110 0.121870 0.865789 -0.270401
C42   C     C_R   0.869395 0.619307 0.133612 -0.269076
C43   C     C_R   0.116055 0.016094 0.795307 0.371283
C44   C     C_R   0.885052 0.520656 0.206172 0.357451
H3    H     H_    0.319426 0.407406 0.928148 0.188413
H4    H     H_    0.671677 0.859080 0.060207 0.189377
H5    H     H_    0.101881 0.841249 0.655975 0.179342
H6    H     H_    0.906410 0.379126 0.353051 0.181535
O11   O     O_R   0.937810 0.773680 0.060480 -0.536184
O12   O     O_R   0.062190 0.273680 0.939520 -0.534784
O13   O     O_R   0.086190 0.439740 0.092580 -0.532570
O14   O     O_R   0.913810 0.939740 0.907420 -0.534217
C45   C     C_R   0.113625 0.606636 0.113188 0.630946
C46   C     C_R   0.886362 0.106609 0.886799 0.626661
O15   O     O_R   0.939760 0.444210 0.069890 -0.539744
O16   O     O_R   0.060240 0.944210 0.930110 -0.541746
O17   O     O_R   0.914790 0.269640 0.916760 -0.553039
O18   O     O_R   0.085210 0.769640 0.083240 -0.553891
C47   C     C_R   0.919300 0.612255 0.084910 0.822675
C48   C     C_R   0.080627 0.112729 0.914991 0.819728
O19   O     O_3   0.992050 0.601530 0.949880 -0.397791
O20   O     O_3   0.007950 0.101530 0.050120 -0.392342
V3    V     V_3+5 0.001480 0.328340 0.009300 1.407769
V4    V     V_3+5 0.998520 0.828340 0.990700 1.400865
O21   O     O_3   0.051118 0.923620 0.767300 -0.546539
C49   C     C_3   0.061048 0.730590 0.778351 -0.224256
H7    H     H_    0.117270 0.682297 0.789606 0.092313
H8    H     H_    0.027721 0.659565 0.723895 0.157746
H9    H     H_    0.041432 0.685221 0.828011 0.173145
O22   O     O_3   0.949441 0.426175 0.233704 -0.550119
C50   C     C_3   0.937130 0.235641 0.217401 -0.167023
H10   H     H_    0.910361 0.170045 0.257743 0.110228
H11   H     H_    0.989553 0.166203 0.227218 0.158615
H12   H     H_    0.904801 0.209297 0.154786 0.119529
O23   O     O_3   0.184822 0.802023 0.569339 -0.525214
C51   C     C_3   0.210243 0.623229 0.595267 -0.116713
H13   H     H_    0.269088 0.623632 0.625425 0.129921
H14   H     H_    0.200005 0.531824 0.542458 0.186366
H15   H     H_    0.181672 0.563239 0.635349 0.089696
O24   O     O_3   0.825845 0.345471 0.443158 -0.531645
C52   C     C_3   0.809690 0.156857 0.426636 -0.110577
H16   H     H_    0.751768 0.135823 0.394551 0.143362
H17   H     H_    0.821914 0.080823 0.483901 0.192110
H18   H     H_    0.843101 0.096076 0.391966 0.091466
O25   O     O_3   0.767887 0.954769 0.821948 -0.534836
C53   C     C_3   0.795885 0.790145 0.800194 -0.010150
H19   H     H_    0.816934 0.701145 0.853542 0.146022
H20   H     H_    0.837985 0.812299 0.770408 0.122271
H21   H     H_    0.751572 0.714098 0.757414 0.189943
O26   O     O_3   0.232236 0.455666 0.177555 -0.532092
C54   C     C_3   0.204546 0.290157 0.199130 -0.007179
H22   H     H_    0.183638 0.201452 0.145689 0.143514
H23   H     H_    0.162415 0.310974 0.228961 0.119766
H24   H     H_    0.248998 0.214460 0.241823 0.191652
Cl1   Cl    Cl    0.653101 0.415459 0.761196 -0.565435
Cl2   Cl    Cl    0.346434 0.916063 0.239109 -0.569709
Cl3   Cl    Cl    0.748608 0.020228 0.634391 -0.745144
Cl4   Cl    Cl    0.251834 0.516597 0.365668 -0.731979
O27   O     O_3   0.292948 0.947127 0.538798 -0.529161
C55   C     C_3   0.255264 0.065241 0.476399 -0.076176
H25   H     H_    0.288966 0.184000 0.469721 0.128490
H26   H     H_    0.204608 0.115954 0.485299 0.143218
H27   H     H_    0.240900 0.986245 0.419783 0.169335
O28   O     O_3   0.710561 0.464598 0.465549 -0.531943
C56   C     C_3   0.744035 0.593182 0.525493 -0.073212
H28   H     H_    0.706110 0.703118 0.530354 0.132238
H29   H     H_    0.792382 0.655943 0.515193 0.143669
H30   H     H_    0.761614 0.519813 0.583512 0.169370
Cl5   Cl    Cl    0.472928 0.353142 0.743053 -0.506169
Cl6   Cl    Cl    0.526455 0.851418 0.256636 -0.510482
O29   O     O_3   0.408868 0.469969 0.851903 -0.511796
C57   C     C_3   0.384885 0.652478 0.831140 -0.127273
H31   H     H_    0.346767 0.697682 0.863122 0.092429
H32   H     H_    0.359973 0.667451 0.765614 0.122708
H33   H     H_    0.431756 0.746608 0.849050 0.187417
O30   O     O_3   0.571997 0.879863 0.125725 -0.518857
C58   C     C_3   0.528466 0.756894 0.069265 -0.044796
H34   H     H_    0.522349 0.621885 0.096930 0.148873
H35   H     H_    0.549680 0.735408 0.018102 0.121681
H36   H     H_    0.474290 0.818304 0.045408 0.178211
O31   O     O_3   0.208412 0.325524 0.962850 -0.535540
C59   C     C_3   0.193079 0.516054 0.950013 -0.155415
H37   H     H_    0.134710 0.541750 0.932508 0.138156
H38   H     H_    0.215146 0.578145 0.904672 0.083244
H39   H     H_    0.217594 0.590467 0.006806 0.175320
O32   O     O_3   0.786314 0.798680 0.030637 -0.538347
C60   C     C_3   0.795071 0.992549 0.037578 -0.167747
H40   H     H_    0.850646 0.031167 0.041205 0.141504
H41   H     H_    0.781233 0.053064 0.089178 0.094585
H42   H     H_    0.759270 0.057352 0.982880 0.192053

loop_
_geom_bond_atom_site_label_1
_geom_bond_atom_site_label_2
_ccdc_geom_bond_type
O14   C46   A    
C57   H31   S    
C25   O29   S    
C13   C15   A    
O12   V3    S    
C43   O21   S    
C8    C45   S    
O15   V3    S    
C52   H16   S    
O1    C3    A    
C58   H36   S    
O2    C4    A    
C2    O7    A    
C55   H25   S    
C52   H18   S    
O31   C59   S    
C33   C35   A    
C58   H35   S    
C50   H10   S    
O5    C3    A    
C54   H23   S    
C19   C25   A    
C20   C26   A    
C21   C23   A    
C10   C12   D    
C1    C16   S    
C60   H41   S    
C23   C37   A    
C56   H30   S    
O16   V4    S    
C45   O18   A    
C31   C33   A    
C18   Cl6   S    
O28   C56   S    
O18   V4    S    
C5    C7    D    
C41   C48   S    
C29   C39   A    
C40   O32   S    
C14   C16   A    
O13   C45   A    
C39   O31   S    
O16   C48   A    
C36   C38   A    
C17   C19   A    
O15   C47   A    
C20   C22   A    
C34   C36   A    
O6    V2    S    
C27   C29   A    
C28   C30   A    
C49   H9    S    
C9    Cl1   S    
O26   C54   S    
C30   C32   A    
C32   C34   A    
C39   C41   A    
O32   C60   S    
O14   V4    S    
C54   H24   S    
C40   C42   A    
O13   V3    S    
C50   H11   S    
C35   H5    S    
O20   V3    S    
C27   H3    S    
C59   H38   S    
C60   H42   S    
C28   H4    S    
C7    O25   S    
C49   H7    S    
O5    V1    S    
O11   C47   A    
C57   H33   S    
C35   C37   A    
C53   H21   S    
C5    H1    S    
C59   H39   S    
O4    V2    S    
C44   O22   S    
C33   C43   A    
C51   H14   S    
O25   C53   S    
C14   C24   A    
O6    C4    A    
C53   H20   S    
C10   Cl2   S    
C7    C46   S    
O1    V2    S    
C5    C9    S    
O22   C50   S    
C38   O24   S    
O2    V1    S    
C29   C31   A    
C56   H29   S    
C13   O27   S    
O4    C2    A    
C41   C43   A    
O29   C57   S    
C36   H6    S    
C6    C10   S    
C58   H34   S    
C21   C31   A    
C12   Cl4   S    
O17   V3    S    
O3    V1    S    
C51   H15   S    
O27   C55   S    
C50   H12   S    
C26   O30   S    
C57   H32   S    
C42   C47   S    
C6    H2    S    
C59   H37   S    
O3    C1    A    
C55   H26   S    
C56   H28   S    
C52   H17   S    
C34   C44   A    
C8    O26   S    
C54   H22   S    
C3    C12   S    
C4    C11   S    
C22   C24   A    
O30   C58   S    
O7    V1    S    
C17   Cl5   S    
C1    O8    A    
C15   C17   A    
O8    V2    S    
C60   H40   S    
C37   O23   S    
C16   C18   A    
C22   C32   A    
C51   H13   S    
C13   C23   A    
C46   O17   A    
C26   C28   A    
C53   H19   S    
C19   C21   A    
C49   H8    S    
C42   C44   A    
C6    C8    D    
C9    C11   D    
O24   C52   S    
O19   V4    S    
C55   H27   S    
C11   Cl3   S    
O21   C49   S    
C30   C40   A    
C2    C15   S    
C24   C38   A    
C25   C27   A    
O9    V2    S    
O12   C48   A    
O10   V1    S    
C14   O28   S    
O23   C51   S    
C18   C20   A    
O11   V4    S    
