data_str_m3_o1_o29_f0_pcu.sym.33
_audit_creation_date              2012-12-10T18:55:20-0500
_audit_creation_method            fapswitch 2.2
_symmetry_space_group_name_H-M    P1
_symmetry_Int_Tables_number       1
_space_group_crystal_system       triclinic
_cell_length_a                    10.619135
_cell_length_b                    9.879328
_cell_length_c                    26.705435
_cell_angle_alpha                 90.548747
_cell_angle_beta                  89.728012
_cell_angle_gamma                 90.282725
_cell_volume                      2801.47144412

loop_
_atom_site_label
_atom_site_type_symbol
_atom_type_description
_atom_site_fract_x
_atom_site_fract_y
_atom_site_fract_z
_atom_type_partial_charge
C1    C     C_R   0.260410 0.499510 0.498915 0.961891
C2    C     C_R   0.347339 0.741473 0.866363 -0.197651
C3    C     C_R   0.511719 0.498689 0.349705 -0.340508
C4    C     C_R   0.492327 0.508853 0.649244 -0.383574
C5    C     C_R   0.357437 0.679582 0.969072 -0.068834
C6    C     C_R   0.596963 0.624443 0.011290 -0.068940
C7    C     C_R   0.589012 0.691612 0.964750 0.008576
C8    C     C_R   0.365160 0.624044 0.017971 0.005458
C9    C     C_R   0.470080 0.702465 0.941793 -0.074603
C10   C     C_R   0.485490 0.603687 0.039639 -0.075272
C11   C     C_R   0.242570 0.723314 0.946980 0.469540
C12   C     C_R   0.739347 0.500433 0.498955 0.976237
C13   C     C_R   0.710681 0.565859 0.028778 0.506219
C14   C     C_R   0.235711 0.740892 0.894911 0.418064
C15   C     C_R   0.720035 0.523885 0.078598 0.419149
C16   C     C_R   0.502212 0.499485 0.404944 0.929791
C17   C     C_R   0.502031 0.501083 0.594718 1.014333
C18   C     C_R   0.258311 0.574675 0.044203 0.355377
C19   C     C_R   0.694481 0.754445 0.941281 0.354853
C20   C     C_R   0.063453 0.423507 0.533168 0.283340
C21   C     C_R   0.935691 0.567075 0.458139 0.349605
C22   C     C_R   0.933346 0.434294 0.535770 0.268949
C23   C     C_R   0.494529 0.559337 0.089687 -0.207444
C24   C     C_R   0.065360 0.568778 0.458588 0.365505
C25   C     C_R   0.871550 0.500803 0.497248 -0.347019
C26   C     C_R   0.127850 0.497702 0.496641 -0.337111
C27   C     C_R   0.582741 0.072709 0.529059 0.334572
C28   C     C_R   0.424224 0.925896 0.467753 0.354816
C29   C     C_R   0.416341 0.071080 0.471128 0.364038
C30   C     C_R   0.570869 0.929127 0.533461 0.352083
C31   C     C_R   0.398151 0.526731 0.171061 0.665084
C32   C     C_R   0.566123 0.770795 0.811374 0.660351
C33   C     C_R   0.620376 0.501559 0.161929 0.629707
C34   C     C_R   0.464078 0.735751 0.890841 -0.226469
C35   C     C_R   0.349031 0.749122 0.813874 0.674037
C36   C     C_R   0.575745 0.608572 0.271876 0.375992
C37   C     C_R   0.356984 0.583171 0.718392 0.473666
C38   C     C_R   0.567683 0.609687 0.324751 0.246897
C39   C     C_R   0.372560 0.515556 0.671724 0.209724
C40   C     C_R   0.463906 0.388004 0.321650 0.309479
C41   C     C_R   0.599289 0.537331 0.677534 0.354102
C42   C     C_R   0.476638 0.385693 0.269393 0.404159
C43   C     C_R   0.584609 0.582818 0.727017 0.403915
C44   C     C_R   0.525675 0.498816 0.244602 -0.010991
C45   C     C_R   0.384777 0.547861 0.119354 -0.150590
C46   C     C_R   0.466025 0.634882 0.743793 -0.154734
C47   C     C_3   0.272992 0.306408 0.345111 -0.119869
C48   C     C_3   0.788730 0.618884 0.649974 -0.182236
C49   C     C_3   0.793549 0.105788 0.539956 -0.134234
C50   C     C_3   0.366321 0.891981 0.385501 -0.088113
C51   C     C_3   0.207291 0.117463 0.466342 -0.272431
C52   C     C_3   0.568640 0.891534 0.616921 -0.239509
C53   C     C_3   0.523711 0.179796 0.236846 -0.246193
C54   C     C_3   0.669368 0.459294 0.789529 -0.266172
C55   C     C_3   0.090578 0.649800 0.130627 -0.143004
C56   C     C_R   0.574306 0.767924 0.863979 -0.174691
C57   C     C_3   0.784116 0.989119 0.869736 -0.217675
C58   C     C_3   0.140543 0.621025 0.714981 -0.046490
C59   C     C_3   0.756840 0.721196 0.249351 -0.190175
C60   C     C_3   0.055613 0.641470 0.867285 -0.145968
C61   C     C_3   0.849343 0.344065 0.091157 -0.179943
C62   C     C_3   0.154546 0.882665 0.997728 -0.275404
C63   C     C_3   0.783959 0.437736 0.963166 -0.337126
C64   C     C_R   0.265603 0.554814 0.096383 0.379244
C65   C     C_R   0.686706 0.792868 0.890416 0.397280
C66   C     C_R   0.613265 0.529010 0.110346 -0.200272
H1    H     H_    0.236511 0.328838 0.307059 0.180914
H2    H     H_    0.352652 0.802469 0.360688 0.176849
H3    H     H_    0.462254 0.933328 0.377730 0.143671
H4    H     H_    0.294106 0.967269 0.375127 0.179019
H5    H     H_    0.140426 0.193176 0.451663 0.165351
H6    H     H_    0.208331 0.129038 0.507878 0.175493
H7    H     H_    0.170605 0.015744 0.455823 0.194905
H8    H     H_    0.607636 0.827823 0.646883 0.163828
H9    H     H_    0.465940 0.868553 0.614740 0.147912
H10   H     H_    0.583765 0.998635 0.628575 0.200665
H11   H     H_    0.552589 0.139960 0.273902 0.178780
H12   H     H_    0.249760 0.390442 0.371470 0.125903
H13   H     H_    0.606909 0.220633 0.216330 0.162954
H14   H     H_    0.485944 0.093467 0.214596 0.194046
H15   H     H_    0.661911 0.364141 0.767034 0.174618
H16   H     H_    0.585067 0.471395 0.814059 0.141946
H17   H     H_    0.752470 0.450196 0.814273 0.172998
H18   H     H_    0.052379 0.687300 0.094640 0.185807
H19   H     H_    0.150245 0.729251 0.148696 0.131818
H20   H     H_    0.009556 0.630417 0.155980 0.221309
H21   H     H_    0.785565 0.024893 0.909386 0.126342
H22   H     H_    0.698986 0.028206 0.850596 0.159154
H23   H     H_    0.222996 0.214414 0.358101 0.180742
H24   H     H_    0.867834 0.032694 0.850694 0.207512
H25   H     H_    0.300627 0.383224 0.626090 0.381318
H26   H     H_    0.621841 0.797968 0.331307 0.353936
H27   H     H_    0.090479 0.534944 0.696844 0.192323
H28   H     H_    0.168638 0.698141 0.686768 0.133658
H29   H     H_    0.071093 0.669338 0.740563 0.188705
H30   H     H_    0.800185 0.624051 0.261312 0.190371
H31   H     H_    0.786863 0.803075 0.275446 0.162660
H32   H     H_    0.796071 0.745563 0.211903 0.184465
H33   H     H_    0.026028 0.601000 0.904263 0.193409
H34   H     H_    0.784086 0.695359 0.680804 0.177608
H35   H     H_    0.112890 0.565194 0.846418 0.145986
H36   H     H_    0.969196 0.658852 0.845157 0.222957
H37   H     H_    0.869812 0.315815 0.051679 0.148740
H38   H     H_    0.765191 0.287582 0.104984 0.132230
H39   H     H_    0.930932 0.311680 0.113812 0.210263
H40   H     H_    0.170282 0.962183 0.969060 0.158651
H41   H     H_    0.233647 0.881913 0.024895 0.137182
H42   H     H_    0.067797 0.909381 0.018833 0.197514
H43   H     H_    0.725385 0.475571 0.932023 0.155452
H44   H     H_    0.735862 0.350274 0.981247 0.122923
H45   H     H_    0.759419 0.664068 0.614011 0.202842
H46   H     H_    0.873104 0.399801 0.946527 0.192655
H47   H     H_    0.093967 0.483976 0.039968 0.384272
H48   H     H_    0.868952 0.817491 0.947872 0.392026
H49   H     H_    0.076782 0.264834 0.575109 0.322850
H50   H     H_    0.788575 0.595117 0.415709 0.339465
H51   H     H_    0.919864 0.373996 0.605059 0.360274
H52   H     H_    0.214516 0.603999 0.417158 0.326393
H53   H     H_    0.889063 0.590219 0.646045 0.165996
H54   H     H_    0.862798 0.134339 0.569110 0.185974
H55   H     H_    0.817568 0.160302 0.504972 0.150623
H56   H     H_    0.806393 0.995371 0.533515 0.144373
N1    N     N_R   0.514739 0.507725 0.191183 -0.301189
N2    N     N_R   0.459002 0.722312 0.788795 -0.322568
N3    N     N_R   0.500000 0.857200 0.500000 -0.179360
N4    N     N_R   0.500000 0.142800 0.500000 -0.191008
O1    O     O_R   0.316770 0.614620 0.500000 -0.594846
O2    O     O_2   0.662022 0.818804 0.783336 -0.491189
O3    O     O_2   0.248105 0.794897 0.789182 -0.499423
O4    O     O_2   0.731442 0.470589 0.183091 -0.557716
O5    O     O_3   0.403711 0.281079 0.344919 -0.559372
O6    O     O_3   0.716909 0.501140 0.659422 -0.548203
O7    O     O_3   0.671653 0.142680 0.556830 -0.525473
O8    O     O_3   0.348450 0.851034 0.435621 -0.566579
O9    O     O_3   0.326916 0.141336 0.444689 -0.552418
O10   O     O_3   0.631239 0.861352 0.571339 -0.582786
O11   O     O_3   0.428614 0.278012 0.242003 -0.567013
O12   O     O_R   0.683230 0.385380 0.500000 -0.569376
O13   O     O_3   0.687282 0.572429 0.758441 -0.540547
O14   O     O_3   0.157315 0.527769 0.123689 -0.570511
O15   O     O_3   0.790863 0.846700 0.866375 -0.566322
O16   O     O_3   0.270007 0.454630 0.649290 -0.734780
O17   O     O_3   0.613337 0.717405 0.352770 -0.738267
O18   O     O_3   0.242633 0.573232 0.743804 -0.586519
O19   O     O_3   0.623791 0.718379 0.245974 -0.624151
O20   O     O_3   0.120631 0.765607 0.872774 -0.543425
O21   O     O_3   0.836610 0.485630 0.096441 -0.553907
O22   O     O_3   0.136885 0.754363 0.975240 -0.526794
O23   O     O_R   0.683230 0.614620 0.500000 -0.593898
O24   O     O_3   0.813306 0.542687 0.997606 -0.515751
O25   O     O_3   0.153031 0.533088 0.017729 -0.709318
O26   O     O_3   0.799398 0.786115 0.969712 -0.716229
O27   O     O_3   0.129856 0.343501 0.565786 -0.762950
O28   O     O_3   0.875899 0.629323 0.418649 -0.681949
O29   O     O_3   0.864047 0.386279 0.575893 -0.710616
O30   O     O_3   0.126508 0.635271 0.420012 -0.686111
O31   O     O_R   0.316770 0.385380 0.500000 -0.558108
O32   O     O_R   0.500030 0.614650 0.428760 -0.545154
O33   O     O_R   0.499970 0.385350 0.571240 -0.565576
O34   O     O_R   0.499970 0.614650 0.571240 -0.601479
O35   O     O_R   0.500030 0.385350 0.428760 -0.566550
O36   O     O_2   0.296243 0.527831 0.201442 -0.509465
Zn1   Zn    Zn3+2 0.500000 0.653120 0.500000 1.039945
Zn2   Zn    Zn3+2 0.500000 0.346880 0.500000 1.053534

loop_
_geom_bond_atom_site_label_1
_geom_bond_atom_site_label_2
_ccdc_geom_bond_type
C33   O4    S    
C2    C35   A    
C24   O30   S    
C42   C44   A    
C34   C56   A    
C23   C45   A    
C37   O18   S    
C41   C43   A    
C38   O17   S    
H47   O25   S    
H48   O26   S    
C60   H33   S    
C17   O33   A    
C60   O20   S    
C53   O11   S    
C23   C66   A    
C28   C29   A    
C53   H13   S    
C58   H27   S    
C24   C26   A    
C13   O24   S    
C5    C11   A    
C52   H8    S    
C11   C14   A    
C60   H36   S    
C11   O22   S    
C49   H54   S    
C62   H42   S    
C4    C41   A    
C56   C65   A    
C63   H46   S    
H26   O17   S    
C17   O34   A    
C32   N2    A    
C10   C23   A    
C49   O7    S    
C51   O9    S    
C3    C38   A    
C22   C25   A    
H51   O29   S    
C21   O28   S    
C39   O16   S    
C43   O13   S    
O23   Zn1   S    
C61   H39   S    
C35   O3    S    
H50   O28   S    
H25   O16   S    
C2    C34   A    
C40   C42   A    
C30   N3    A    
C62   O22   S    
C29   N4    A    
H49   O27   S    
C27   C30   A    
C47   H23   S    
C46   N2    S    
N3    Zn1   S    
C51   H5    S    
N4    Zn2   S    
C47   H1    S    
C54   H17   S    
C33   C66   A    
C48   H53   S    
C22   O29   S    
C48   H34   S    
C57   H24   S    
C61   O21   S    
C16   O32   A    
C27   O7    S    
O34   Zn1   S    
C1    O1    A    
C61   H38   S    
C50   O8    S    
C62   H41   S    
C15   C66   A    
C8    C18   A    
C55   O14   S    
C57   H21   S    
C47   O5    S    
C55   H19   S    
C53   H11   S    
C58   H29   S    
C63   O24   S    
C5    C9    A    
C5    C8    A    
C65   O15   S    
C54   O13   S    
C4    C39   A    
C49   H55   S    
C53   H14   S    
C19   O26   S    
H52   O30   S    
O31   Zn2   S    
O32   Zn1   S    
C4    C17   S    
C59   O19   S    
C29   O9    S    
C40   O5    S    
C20   C22   A    
C3    C40   A    
C7    C19   A    
C13   C15   A    
C31   C45   A    
C1    C26   S    
C59   H31   S    
C28   O8    S    
C36   C44   A    
C51   H6    S    
C18   O25   S    
C54   H16   S    
O35   Zn2   S    
C28   N3    A    
C64   O14   S    
C7    C9    A    
C21   C25   A    
C35   N2    A    
O1    Zn1   S    
C45   C64   A    
C61   H37   S    
C12   O23   A    
C50   H3    S    
C51   H7    S    
C20   O27   S    
C52   H10   S    
C6    C10   A    
C41   O6    S    
C6    C7    A    
C62   H40   S    
C16   O35   A    
C14   O20   S    
C44   N1    S    
C30   O10   S    
C55   H18   S    
C57   H22   S    
C57   O15   S    
C12   C25   S    
C32   O2    S    
C55   H20   S    
C1    O31   A    
C58   H28   S    
C31   N1    A    
C37   C39   A    
C6    C13   A    
C15   O21   S    
C18   C64   A    
C9    C34   A    
C20   C26   A    
C63   H44   S    
C52   O10   S    
C49   H56   S    
C36   C38   A    
C27   N4    A    
C19   C65   A    
C12   O12   A    
C50   H4    S    
C2    C14   A    
C43   C46   A    
C31   O36   S    
C52   H9    S    
C58   O18   S    
C36   O19   S    
C48   H45   S    
C8    C10   A    
C59   H30   S    
C21   C24   A    
C33   N1    A    
C59   H32   S    
O33   Zn2   S    
C48   O6    S    
O12   Zn2   S    
C47   H12   S    
C37   C46   A    
C50   H2    S    
C32   C56   A    
C54   H15   S    
C3    C16   S    
C60   H35   S    
C63   H43   S    
C42   O11   S    
