data_str_m9_o2_o19_f0_sra.sym.111
_audit_creation_date              2012-12-11T16:28:22-0500
_audit_creation_method            fapswitch 2.2
_symmetry_space_group_name_H-M    P1
_symmetry_Int_Tables_number       1
_space_group_crystal_system       triclinic
_cell_length_a                    16.708763
_cell_length_b                    7.25221
_cell_length_c                    15.113857
_cell_angle_alpha                 89.999981
_cell_angle_beta                  94.45046
_cell_angle_gamma                 90.000015
_cell_volume                      1825.90642188

loop_
_atom_site_label
_atom_site_type_symbol
_atom_type_description
_atom_site_fract_x
_atom_site_fract_y
_atom_site_fract_z
_atom_type_partial_charge
O1    O     O_R   0.663460 0.361760 0.165970 -0.525755
O2    O     O_R   0.336540 0.638240 0.834030 -0.525755
O3    O     O_R   0.836540 0.861760 0.334030 -0.525757
O4    O     O_R   0.163460 0.138240 0.665970 -0.525756
O5    O     O_R   0.827100 0.689870 0.163730 -0.527671
O6    O     O_R   0.172900 0.310130 0.836270 -0.527671
O7    O     O_R   0.672900 0.189870 0.336270 -0.527671
O8    O     O_R   0.327100 0.810130 0.663730 -0.527671
C1    C     C_R   0.853733 0.523117 0.144126 0.779232
C2    C     C_R   0.146267 0.476883 0.855874 0.779231
C3    C     C_R   0.646267 0.023117 0.355874 0.779231
C4    C     C_R   0.353733 0.976883 0.644126 0.779231
O9    O     O_R   0.663490 0.691370 0.155500 -0.545516
O10   O     O_R   0.336510 0.308630 0.844500 -0.545516
O11   O     O_R   0.836510 0.191370 0.344500 -0.545517
O12   O     O_R   0.163490 0.808630 0.655500 -0.545516
O13   O     O_R   0.671770 0.863320 0.325740 -0.524654
O14   O     O_R   0.328230 0.136680 0.674260 -0.524654
O15   O     O_R   0.828230 0.363320 0.174260 -0.524654
O16   O     O_R   0.171770 0.636680 0.825740 -0.524654
C5    C     C_R   0.636747 0.521947 0.132847 0.793908
C6    C     C_R   0.363254 0.478053 0.867153 0.793907
C7    C     C_R   0.863253 0.021947 0.367153 0.793906
C8    C     C_R   0.136747 0.978053 0.632846 0.793906
H1    H     H_    0.123833 0.993122 0.222951 0.139825
H2    H     H_    0.876166 0.006877 0.777049 0.139825
H3    H     H_    0.376166 0.493113 0.277049 0.139826
H4    H     H_    0.623833 0.506888 0.722951 0.139826
O17   O     O_3   0.752910 0.528800 0.305860 -0.382698
O18   O     O_3   0.247090 0.471200 0.694140 -0.382697
O19   O     O_3   0.747090 0.028800 0.194140 -0.382695
O20   O     O_3   0.252910 0.971200 0.805860 -0.382696
V1    V     V_3+5 0.749460 0.803010 0.239640 1.473670
V2    V     V_3+5 0.250540 0.196990 0.760360 1.473670
V3    V     V_3+5 0.750540 0.303010 0.260360 1.473669
V4    V     V_3+5 0.249460 0.696990 0.739640 1.473669
C9    C     C_1   0.468966 0.994654 0.530278 0.009587
C10   C     C_1   0.531034 0.005346 0.469722 0.009586
C11   C     C_1   0.031034 0.494654 0.969722 0.009586
C12   C     C_1   0.968966 0.505346 0.030278 0.009586
H5    H     H_    0.766028 0.977966 0.664539 0.138106
H6    H     H_    0.233972 0.022033 0.335460 0.138106
H7    H     H_    0.733972 0.477979 0.835460 0.138105
H8    H     H_    0.266028 0.522023 0.164539 0.138104
C13   C     C_R   0.031329 0.006548 0.314990 -0.047772
C14   C     C_R   0.968671 0.993451 0.685010 -0.047771
C15   C     C_R   0.468671 0.506544 0.185010 -0.047772
C16   C     C_R   0.531329 0.493456 0.814990 -0.047772
C17   C     C_R   0.110375 0.000389 0.291975 -0.225136
C18   C     C_R   0.889625 0.999611 0.708024 -0.225136
C19   C     C_R   0.389625 0.500381 0.208024 -0.225135
C20   C     C_R   0.610375 0.499620 0.791976 -0.225135
C21   C     C_R   0.173267 0.015046 0.355764 -0.199742
C22   C     C_R   0.826733 0.984954 0.644236 -0.199742
C23   C     C_R   0.326733 0.515038 0.144236 -0.199743
C24   C     C_R   0.673267 0.484963 0.855764 -0.199744
C25   C     C_R   0.159124 0.035390 0.444839 0.423291
C26   C     C_R   0.840876 0.964610 0.555161 0.423291
C27   C     C_R   0.340876 0.535385 0.055161 0.423293
C28   C     C_R   0.659124 0.464616 0.944839 0.423293
C29   C     C_R   0.080033 0.010913 0.473409 -0.017576
C30   C     C_R   0.919967 0.989086 0.526590 -0.017577
C31   C     C_R   0.419967 0.510911 0.026590 -0.017576
C32   C     C_R   0.580033 0.489089 0.973410 -0.017575
C33   C     C_R   0.013578 0.008329 0.407011 -0.031161
C34   C     C_R   0.986422 0.991671 0.592989 -0.031161
C35   C     C_R   0.486421 0.508327 0.092989 -0.031162
C36   C     C_R   0.513578 0.491673 0.907011 -0.031162
C37   C     C_R   0.066643 0.993300 0.565516 -0.167860
C38   C     C_R   0.933357 0.006700 0.434484 -0.167861
C39   C     C_R   0.433357 0.493300 0.934484 -0.167859
C40   C     C_R   0.566643 0.506700 0.065516 -0.167859
C41   C     C_1   0.416342 0.985930 0.581878 -0.145901
C42   C     C_1   0.583658 0.014070 0.418121 -0.145900
C43   C     C_1   0.083658 0.485930 0.918121 -0.145900
C44   C     C_1   0.916342 0.514070 0.081878 -0.145900
O21   O     O_3   0.223350 0.087489 0.502431 -0.578572
C45   C     C_3   0.237134 0.278086 0.490482 -0.197256
H9    H     H_    0.184303 0.361114 0.507168 0.135793
H10   H     H_    0.252787 0.310097 0.421918 0.110755
H11   H     H_    0.289132 0.321691 0.535451 0.187393
O22   O     O_3   0.776650 0.912510 0.497569 -0.578573
C46   C     C_3   0.762867 0.721913 0.509517 -0.197254
H12   H     H_    0.747216 0.689898 0.578082 0.110754
H13   H     H_    0.815698 0.638886 0.492828 0.135794
H14   H     H_    0.710868 0.678309 0.464549 0.187392
O23   O     O_3   0.276650 0.587485 0.997569 -0.578572
C47   C     C_3   0.262865 0.778081 0.009521 -0.197260
H15   H     H_    0.315698 0.861113 0.992843 0.135786
H16   H     H_    0.247204 0.810084 0.078084 0.110759
H17   H     H_    0.210871 0.821691 0.964546 0.187397
O24   O     O_3   0.723350 0.412516 0.002430 -0.578572
C48   C     C_3   0.737137 0.221922 0.990479 -0.197266
H18   H     H_    0.752795 0.189919 0.921916 0.110759
H19   H     H_    0.684306 0.138889 0.007158 0.135790
H20   H     H_    0.789132 0.178314 0.035450 0.187393
C49   C     C_1   0.972971 0.011334 0.239334 0.258219
N1    N     N_1   0.927736 0.016201 0.177404 -0.332504
C50   C     C_1   0.027028 0.988666 0.760666 0.258219
N2    N     N_1   0.072264 0.983799 0.822596 -0.332505
C51   C     C_1   0.527028 0.511331 0.260666 0.258219
N3    N     N_1   0.572263 0.516201 0.322596 -0.332505
C52   C     C_1   0.472972 0.488668 0.739334 0.258219
N4    N     N_1   0.427736 0.483799 0.677404 -0.332505

loop_
_geom_bond_atom_site_label_1
_geom_bond_atom_site_label_2
_ccdc_geom_bond_type
C26   C30   A    
C14   C50   S    
O1    C5    A    
C51   N3    T    
C15   C51   S    
C23   C27   A    
O3    C7    A    
H8    C23   S    
O23   C47   S    
C49   N1    T    
O21   C45   S    
O7    C3    A    
O5    C1    A    
C48   H18   S    
C32   C36   A    
C14   C34   A    
H2    C18   S    
H6    C21   S    
C10   C42   T    
O4    C8    A    
C45   H10   S    
C34   C37   A    
O3    V1    S    
O2    V4    S    
C33   C38   A    
C30   C38   A    
C35   C40   A    
O8    V4    S    
O11   V3    S    
C1    O15   A    
C46   H12   S    
C2    O16   A    
H1    C17   S    
O5    V1    S    
O2    C6    A    
O19   V1    S    
C1    C44   S    
C11   C43   T    
C14   C18   A    
O11   C7    A    
O12   C8    A    
C4    C41   S    
C7    C38   S    
O13   V1    S    
C15   C35   A    
H3    C19   S    
C8    C37   S    
O4    V2    S    
C28   O24   S    
C31   C35   A    
C30   C34   A    
C5    C40   S    
C25   O21   S    
C11   C12   S    
C21   C25   A    
C45   H9    S    
C15   C19   A    
C16   C52   S    
O6    V2    S    
O20   V2    S    
O9    V1    S    
C9    C10   S    
C2    C43   S    
C50   N2    T    
C47   H17   S    
C13   C17   A    
O8    C4    A    
O9    C5    A    
C18   C22   A    
C16   C36   A    
O14   V2    S    
C46   H13   S    
C47   H16   S    
C48   H20   S    
C13   C33   A    
C6    C39   S    
O1    V3    S    
C22   C26   A    
C29   C37   A    
C9    C41   T    
C3    O13   A    
O7    V3    S    
C31   C39   A    
C3    C42   S    
O10   V2    S    
C25   C29   A    
O17   V3    S    
C27   C31   A    
O18   V4    S    
C28   C32   A    
O10   C6    A    
C26   O22   S    
C13   C49   S    
O12   V4    S    
H4    C20   S    
C45   H11   S    
C36   C39   A    
C17   C21   A    
O24   C48   S    
C19   C23   A    
C32   C40   A    
C27   O23   S    
H5    C22   S    
O6    C2    A    
O16   V4    S    
C29   C33   A    
H7    C24   S    
C16   C20   A    
C46   H14   S    
C24   C28   A    
C47   H15   S    
C48   H19   S    
O22   C46   S    
C12   C44   T    
C4    O14   A    
C52   N4    T    
O15   V3    S    
C20   C24   A    
