data_str_m3_o14_o14_f0_pcu.sym.62
_audit_creation_date              2012-12-10T17:41:02-0500
_audit_creation_method            fapswitch 2.2
_symmetry_space_group_name_H-M    P1
_symmetry_Int_Tables_number       1
_space_group_crystal_system       triclinic
_cell_length_a                    14.752981
_cell_length_b                    15.531708
_cell_length_c                    9.943879
_cell_angle_alpha                 90.130554
_cell_angle_beta                  92.22374
_cell_angle_gamma                 90.016934
_cell_volume                      2276.80843775

loop_
_atom_site_label
_atom_site_type_symbol
_atom_type_description
_atom_site_fract_x
_atom_site_fract_y
_atom_site_fract_z
_atom_type_partial_charge
C1    C     C_R   0.382820 0.877813 0.498947 1.069632
C2    C     C_R   0.707050 0.225780 0.387845 -0.300066
C3    C     C_R   0.202826 0.270178 0.388845 -0.298675
C4    C     C_R   0.170607 0.758566 0.442575 -0.220757
C5    C     C_R   0.691724 0.819929 0.503708 -0.112434
C6    C     C_R   0.686336 0.188667 0.510612 -0.122907
C7    C     C_R   0.183786 0.309449 0.510668 -0.120359
C8    C     C_R   0.191305 0.680493 0.504136 -0.111926
C9    C     C_R   0.330095 0.002761 0.123302 0.749238
C10   C     C_R   0.830077 0.496839 0.123313 0.748892
C11   C     C_R   0.250232 0.005842 0.044430 -0.161609
C12   C     C_R   0.386413 0.124955 0.498790 1.017345
C13   C     C_R   0.750220 0.493956 0.044387 -0.162640
C14   C     C_R   0.252722 0.006042 0.906584 -0.339457
C15   C     C_R   0.752711 0.494229 0.906540 -0.337863
C16   C     C_R   0.335347 0.003129 0.846137 -0.133725
C17   C     C_R   0.835338 0.497278 0.846128 -0.133378
C18   C     C_R   0.418385 0.001858 0.921591 0.118214
C19   C     C_R   0.918378 0.498367 0.921589 0.118413
C20   C     C_R   0.417427 0.001736 0.066079 -0.024740
C21   C     C_R   0.917418 0.498286 0.066083 -0.021234
C22   C     C_R   0.577962 0.997467 0.076009 -0.099198
C23   C     C_R   0.887171 0.374541 0.498565 1.013091
C24   C     C_R   0.078003 0.502033 0.076008 -0.104169
C25   C     C_R   0.618645 0.121807 0.503101 0.899659
C26   C     C_R   0.621861 0.882534 0.501320 0.956304
C27   C     C_R   0.121570 0.617759 0.501469 0.954948
C28   C     C_R   0.117954 0.377750 0.502921 0.898674
C29   C     C_R   0.577910 0.997439 0.933163 -0.090802
C30   C     C_R   0.077950 0.502002 0.933189 -0.095454
C31   C     C_R   0.385378 0.250604 0.722688 0.621715
C32   C     C_R   0.432301 0.708070 0.615777 0.581412
C33   C     C_R   0.931659 0.791550 0.620319 0.581603
C34   C     C_R   0.882928 0.622279 0.499163 1.067518
C35   C     C_R   0.887242 0.250534 0.723227 0.619184
C36   C     C_R   0.362761 0.279097 0.849782 -0.212305
C37   C     C_R   0.451770 0.628111 0.672924 -0.173375
C38   C     C_R   0.950647 0.871202 0.679522 -0.173142
C39   C     C_R   0.864273 0.224547 0.851089 -0.199270
C40   C     C_R   0.884453 0.934971 0.681251 0.155495
C41   C     C_R   0.776460 0.196440 0.873279 0.115975
C42   C     C_R   0.274646 0.306235 0.872137 0.120787
C43   C     C_R   0.385513 0.564395 0.674920 0.155396
C44   C     C_R   0.798566 0.918469 0.623094 -0.189043
C45   C     C_R   0.273015 0.213533 0.382482 0.629828
C46   C     C_R   0.714697 0.186613 0.763574 -0.143906
C47   C     C_R   0.212065 0.312755 0.763037 -0.124596
C48   C     C_R   0.299068 0.581278 0.619225 -0.188183
C49   C     C_R   0.777640 0.837537 0.563941 -0.030070
C50   C     C_R   0.739107 0.207801 0.630570 -0.008542
C51   C     C_R   0.236656 0.290959 0.630414 -0.013213
C52   C     C_R   0.277740 0.662488 0.562001 -0.030634
C53   C     C_R   0.318749 0.247521 0.615927 -0.131842
C54   C     C_R   0.344749 0.726910 0.559222 -0.104316
C55   C     C_R   0.844565 0.773012 0.561594 -0.104425
C56   C     C_R   0.234903 0.821999 0.440556 0.590880
C57   C     C_R   0.821017 0.251691 0.615952 -0.128928
C58   C     C_R   0.329544 0.199782 0.496559 -0.231223
C59   C     C_R   0.321291 0.806919 0.497763 -0.254904
C60   C     C_R   0.821485 0.693252 0.498342 -0.255304
C61   C     C_R   0.832248 0.298262 0.495946 -0.231929
C62   C     C_3   0.904853 0.020992 0.743559 -0.857735
C63   C     C_3   0.749246 0.173470 0.012474 -0.836500
C64   C     C_3   0.249095 0.330719 0.011600 -0.884956
C65   C     C_3   0.406357 0.478103 0.735175 -0.858553
C66   C     C_R   0.735601 0.678599 0.438900 0.590485
C67   C     C_R   0.777692 0.281837 0.380711 0.629311
C68   C     C_R   0.671486 0.742157 0.440349 -0.219783
F1    F     F_    0.283548 0.170911 0.265002 -0.659833
F2    F     F_    0.815930 0.498946 0.254306 -0.574235
F3    F     F_    0.211310 0.899725 0.387982 -0.629914
F4    F     F_    0.712207 0.601126 0.384666 -0.631008
F5    F     F_    0.790450 0.321302 0.261266 -0.654844
F6    F     F_    0.473518 0.231032 0.702615 -0.682392
F7    F     F_    0.500833 0.765157 0.615518 -0.694635
F8    F     F_    0.000257 0.734530 0.620138 -0.693687
F9    F     F_    0.975355 0.270117 0.703094 -0.684602
F10   F     F_    0.315974 0.999861 0.254248 -0.571457
H1    H     H_    0.190157 0.007411 0.845886 0.193550
H2    H     H_    0.915007 0.226820 0.932742 0.173957
H3    H     H_    0.749090 0.969893 0.623632 0.148782
H4    H     H_    0.647174 0.167408 0.787685 0.229495
H5    H     H_    0.143936 0.330286 0.786577 0.228433
H6    H     H_    0.249458 0.529951 0.620153 0.149115
H7    H     H_    0.604777 0.730054 0.394419 0.188689
H8    H     H_    0.666988 0.213163 0.296259 0.194334
H9    H     H_    0.161878 0.281686 0.297770 0.194588
H10   H     H_    0.103513 0.770909 0.398299 0.187990
H11   H     H_    0.641774 0.995185 0.133224 0.141496
H12   H     H_    0.690147 0.492964 0.845823 0.192365
H13   H     H_    0.141923 0.503497 0.133082 0.146848
H14   H     H_    0.185218 0.007082 0.091465 0.206370
H15   H     H_    0.685205 0.492432 0.091394 0.204121
H16   H     H_    0.975830 0.024961 0.784699 0.243241
H17   H     H_    0.894734 0.071723 0.666125 0.249809
H18   H     H_    0.858431 0.032422 0.826921 0.243374
H19   H     H_    0.804196 0.187808 0.088722 0.272759
H20   H     H_    0.687993 0.210587 0.038344 0.260884
H21   H     H_    0.734279 0.103700 0.016839 0.209549
H22   H     H_    0.264287 0.276443 0.080698 0.302850
H23   H     H_    0.330436 0.001093 0.739690 0.223682
H24   H     H_    0.288750 0.387953 0.046057 0.233575
H25   H     H_    0.175737 0.345587 0.016150 0.235789
H26   H     H_    0.477809 0.473736 0.774113 0.243313
H27   H     H_    0.361080 0.466633 0.819818 0.242768
H28   H     H_    0.394895 0.427679 0.657199 0.250193
H29   H     H_    0.830438 0.499395 0.739698 0.223593
H30   H     H_    0.641730 0.995182 0.883215 0.131116
H31   H     H_    0.141866 0.503427 0.883396 0.139270
H32   H     H_    0.413672 0.278935 0.931288 0.179397
H33   H     H_    0.519386 0.615839 0.714971 0.167220
H34   H     H_    0.017886 0.883233 0.723276 0.167176
N1    N     N_R   0.498810 1.000000 0.142780 -0.106823
N2    N     N_R   0.998810 0.500000 0.142780 -0.106850
N3    N     N_R   0.498740 1.000000 0.857170 -0.096494
N4    N     N_R   0.998740 0.500000 0.857170 -0.096743
O1    O     O_R   0.408390 0.908380 0.614690 -0.622534
O2    O     O_R   0.591620 0.908390 0.614640 -0.570935
O3    O     O_R   0.091620 0.591610 0.614640 -0.570173
O4    O     O_R   0.091620 0.408390 0.614640 -0.622132
O5    O     O_R   0.591610 0.091610 0.385310 -0.647317
O6    O     O_R   0.591610 0.908390 0.385310 -0.647501
O7    O     O_R   0.091610 0.591610 0.385310 -0.647244
O8    O     O_R   0.091610 0.408390 0.385310 -0.647174
O9    O     O_R   0.408390 0.091620 0.614690 -0.630004
O10   O     O_R   0.908390 0.408380 0.614690 -0.630696
O11   O     O_R   0.908390 0.591620 0.614690 -0.621451
O12   O     O_R   0.408370 0.908380 0.385360 -0.547619
O13   O     O_R   0.408370 0.091620 0.385360 -0.508883
O14   O     O_R   0.908370 0.408380 0.385360 -0.507097
O15   O     O_R   0.908370 0.591620 0.385360 -0.548037
O16   O     O_R   0.591620 0.091610 0.614640 -0.621835
Zn1   Zn    Zn3+2 0.500010 0.000000 0.653130 0.999665
Zn2   Zn    Zn3+2 0.000010 0.500000 0.653130 0.999553
Zn3   Zn    Zn3+2 0.499980 0.000000 0.346870 1.024409
Zn4   Zn    Zn3+2 0.999980 0.500000 0.346870 1.024903

loop_
_geom_bond_atom_site_label_1
_geom_bond_atom_site_label_2
_ccdc_geom_bond_type
C44   C49   A    
C33   C55   A    
C64   H25   S    
C66   C68   A    
C24   N2    A    
C22   C29   A    
C62   H18   S    
C36   C42   A    
O11   Zn2   S    
C4    C8    A    
O1    Zn1   S    
C32   F7    S    
C39   C41   A    
C30   N4    A    
C64   H24   S    
C19   C21   A    
C63   H20   S    
C3    C7    A    
C17   H29   S    
C20   N1    A    
C11   C14   A    
C6    C25   S    
N4    Zn2   S    
C40   C62   S    
C65   H27   S    
C63   H21   S    
C33   F8    S    
C46   H4    S    
C11   H14   S    
C22   N1    A    
C66   F4    S    
O16   Zn1   S    
C41   C46   A    
C1    O12   A    
C29   H30   S    
C67   F5    S    
C47   H5    S    
C43   C48   A    
C8    C52   A    
C40   C44   A    
O4    Zn2   S    
C9    F10   S    
C12   C58   S    
C29   N3    A    
C60   C66   A    
O13   Zn3   S    
C55   C60   A    
C4    C56   A    
C34   C60   S    
C68   H7    S    
C5    C49   A    
C2    C6    A    
C5    C68   A    
C32   C54   A    
C52   C54   A    
C54   C59   A    
C10   C21   A    
C45   C58   A    
O3    Zn2   S    
C12   O13   A    
O8    Zn4   S    
C30   H31   S    
C45   F1    S    
C44   H3    S    
C28   O4    A    
O12   Zn3   S    
C27   O7    A    
C34   O11   A    
C31   F6    S    
C47   C51   A    
C12   O9    A    
N3    Zn1   S    
C14   H1    S    
C3    H9    S    
C3    C45   A    
O5    Zn3   S    
C7    C28   S    
C48   H6    S    
C23   O14   A    
C13   H15   S    
C51   C53   A    
C37   C43   A    
C35   C39   A    
C61   C67   A    
C9    C20   A    
C64   H22   S    
C43   C65   S    
C56   F3    S    
C1    O1    A    
C32   C37   A    
C31   C53   A    
C9    C11   A    
O2    Zn1   S    
C23   O10   A    
C10   F2    S    
C1    C59   S    
C34   O15   A    
O15   Zn4   S    
C13   C15   A    
C36   H32   S    
C14   C16   A    
C41   C63   S    
C38   H34   S    
C24   H13   S    
C42   C64   S    
C65   H28   S    
C23   C61   S    
O9    Zn1   S    
C15   C17   A    
C6    C50   A    
C50   C57   A    
O14   Zn4   S    
C26   O2    A    
C21   N2    A    
C10   C13   A    
C18   N3    A    
C53   C58   A    
C28   O8    A    
C57   C61   A    
C4    H10   S    
C27   O3    A    
C46   C50   A    
C33   C38   A    
C56   C59   A    
O7    Zn4   S    
C35   C57   A    
C39   H2    S    
C62   H16   S    
C7    C51   A    
C63   H19   S    
C49   C55   A    
C15   H12   S    
C38   C40   A    
C19   N4    A    
C17   C19   A    
C22   H11   S    
C35   F9    S    
C2    H8    S    
C18   C20   A    
C42   C47   A    
C24   C30   A    
O6    Zn3   S    
C37   H33   S    
C5    C26   S    
C2    C67   A    
C16   H23   S    
C48   C52   A    
O10   Zn2   S    
C16   C18   A    
N1    Zn3   S    
C8    C27   S    
N2    Zn4   S    
C31   C36   A    
C26   O6    A    
C65   H26   S    
C62   H17   S    
C25   O16   A    
C25   O5    A    
