data_str_m2_o10_o26_f0_pcu.sym.223
_audit_creation_date              2012-12-10T16:48:50-0500
_audit_creation_method            fapswitch 2.2
_symmetry_space_group_name_H-M    P1
_symmetry_Int_Tables_number       1
_space_group_crystal_system       triclinic
_cell_length_a                    17.209134
_cell_length_b                    8.685455
_cell_length_c                    7.436441
_cell_angle_alpha                 102.916908
_cell_angle_beta                  90.364776
_cell_angle_gamma                 92.897874
_cell_volume                      1081.82827563

loop_
_atom_site_label
_atom_site_type_symbol
_atom_type_description
_atom_site_fract_x
_atom_site_fract_y
_atom_site_fract_z
_atom_type_partial_charge
C1    C     C_R   0.497617 0.199722 0.453643 0.881874
C2    C     C_R   0.502375 0.800279 0.546359 0.877154
C3    C     C_2   0.496412 0.031895 0.427459 -0.372274
C4    C     C_2   0.503563 0.968104 0.572546 -0.369798
C5    C     C_R   0.351048 0.494957 0.524806 0.823412
C6    C     C_R   0.649048 0.506359 0.475512 0.811795
C7    C     C_R   0.266517 0.478453 0.537346 -0.111367
C8    C     C_R   0.733669 0.525010 0.462010 -0.134987
C9    C     C_R   0.222218 0.380030 0.391038 0.063106
C10   C     C_R   0.779307 0.622452 0.607500 0.048102
C11   C     C_R   0.140611 0.389083 0.389140 0.495346
C12   C     C_R   0.860831 0.625568 0.597617 0.544500
C13   C     C_R   0.104609 0.476828 0.546038 0.021951
C14   C     C_R   0.895548 0.541500 0.437065 -0.001592
C15   C     C_R   0.148994 0.558785 0.698742 -0.249946
C16   C     C_R   0.850018 0.456534 0.288204 -0.242801
C17   C     C_R   0.229627 0.562954 0.692786 -0.242858
C18   C     C_R   0.769577 0.446600 0.301350 -0.229169
C19   C     C_2   0.020188 0.484906 0.554335 -0.099431
C20   C     C_2   0.979951 0.534680 0.425813 -0.098023
Cu1   Cu    Cu3+1 0.508700 0.517250 0.683000 0.942800
Cu2   Cu    Cu3+1 0.491300 0.482750 0.317000 0.959570
H1    H     H_    0.735446 0.374829 0.187230 0.174721
H2    H     H_    0.263183 0.634723 0.807921 0.175702
H3    H     H_    0.008347 0.564365 0.307513 0.142214
H4    H     H_    0.991232 0.455883 0.672618 0.136917
H5    H     H_    0.121043 0.625508 0.819507 0.164813
H6    H     H_    0.877074 0.392445 0.164583 0.168192
H7    H     H_    0.489648 0.960474 0.287561 0.180030
H8    H     H_    0.510326 0.039525 0.712444 0.180269
H9    H     H_    0.439064 0.378986 0.958038 0.231925
H10   H     H_    0.560954 0.620986 0.041944 0.222034
N1    N     N_2   0.478180 0.456750 0.041980 -0.212445
N2    N     N_2   0.521820 0.543250 0.958020 -0.221580
O1    O     O_R   0.505650 0.286040 0.618880 -0.582557
O2    O     O_R   0.494350 0.713960 0.381120 -0.584073
O3    O     O_R   0.490960 0.256910 0.309800 -0.585874
O4    O     O_R   0.509040 0.743090 0.690200 -0.590525
O5    O     O_R   0.394600 0.516230 0.672450 -0.594948
O6    O     O_R   0.605400 0.483770 0.327550 -0.590418
O7    O     O_R   0.379910 0.487100 0.363380 -0.551969
O8    O     O_R   0.620090 0.512900 0.636620 -0.590445
N3    N     N_3   0.260304 0.268798 0.250102 -0.566504
H11   H     H_    0.220060 0.182702 0.178032 0.242795
H12   H     H_    0.296556 0.204829 0.316350 0.202478
N4    N     N_3   0.744626 0.725773 0.760396 -0.572897
H13   H     H_    0.702796 0.789958 0.710885 0.223023
H14   H     H_    0.718575 0.658468 0.845956 0.233894
O9    O     O_3   0.907546 0.720941 0.735810 -0.564092
C21   C     C_3   0.900489 0.668792 0.902521 -0.295025
H15   H     H_    0.883343 0.540396 0.882721 0.121114
H16   H     H_    0.858537 0.740139 0.993981 0.209872
H17   H     H_    0.957830 0.688711 0.975371 0.171696
O10   O     O_3   0.095013 0.305291 0.241456 -0.584106
C22   C     C_3   0.106502 0.372954 0.086456 -0.327429
H18   H     H_    0.052662 0.349506 0.999631 0.183044
H19   H     H_    0.154298 0.317015 0.000454 0.197250
H20   H     H_    0.118440 0.503763 0.123291 0.135539

loop_
_geom_bond_atom_site_label_1
_geom_bond_atom_site_label_2
_ccdc_geom_bond_type
C16   H6    S    
C21   H16   S    
C22   H18   S    
H9    N1    S    
C15   C17   A    
Cu1   O1    S    
C17   H2    S    
C8    C18   A    
C9    C11   A    
C2    O4    A    
C15   H5    S    
C19   C20   D    
Cu1   O5    S    
C1    O3    A    
N3    H11   S    
Cu2   O6    S    
C13   C15   A    
N1    N2    D    
C3    C4    D    
C16   C18   A    
Cu1   Cu2   S    
N3    H12   S    
C3    H7    S    
C11   O10   S    
C10   C12   A    
Cu2   N1    S    
C2    C4    S    
C8    C10   A    
C12   C14   A    
C21   H15   S    
C14   C16   A    
C12   O9    S    
C22   H19   S    
N4    H14   S    
C9    N3    S    
C21   H17   S    
C20   H3    S    
C13   C19   S    
C18   H1    S    
Cu2   O7    S    
C14   C20   S    
C10   N4    S    
C11   C13   A    
C6    O6    A    
Cu2   O2    S    
C1    O1    A    
C7    C9    A    
O9    C21   S    
C6    O8    A    
C22   H20   S    
C2    O2    A    
C5    C7    S    
C5    O5    A    
C5    O7    A    
N4    H13   S    
C6    C8    S    
Cu1   N2    S    
C1    C3    S    
O10   C22   S    
Cu2   O3    S    
C4    H8    S    
Cu1   O4    S    
Cu1   O8    S    
H10   N2    S    
C7    C17   A    
C19   H4    S    
