data_str_m9_o4_o16_f0_sra.sym.9
_audit_creation_date              2012-12-11T17:00:27-0500
_audit_creation_method            fapswitch 2.2
_symmetry_space_group_name_H-M    P1
_symmetry_Int_Tables_number       1
_space_group_crystal_system       triclinic
_cell_length_a                    6.953364
_cell_length_b                    13.698975
_cell_length_c                    20.166399
_cell_angle_alpha                 102.886186
_cell_angle_beta                  90.199396
_cell_angle_gamma                 90.807755
_cell_volume                      1872.32141159

loop_
_atom_site_label
_atom_site_type_symbol
_atom_type_description
_atom_site_fract_x
_atom_site_fract_y
_atom_site_fract_z
_atom_type_partial_charge
O1    O     O_R   0.506770 0.599700 0.449550 -0.538053
O2    O     O_R   0.179980 0.595740 0.587960 -0.547436
O3    O     O_R   0.004580 0.400300 0.550450 -0.537572
C1    C     C_R   0.349952 0.619240 0.614455 0.706302
O4    O     O_R   0.177380 0.611700 0.452380 -0.543420
O5    O     O_R   0.001970 0.416370 0.413900 -0.542356
C2    C     C_R   0.347208 0.638662 0.436203 0.694727
O6    O     O_R   0.509390 0.583630 0.586100 -0.540324
O7    O     O_3   0.337530 0.435890 0.487530 -0.370552
V1    V     V_3+5 0.064660 0.511890 0.502310 1.407555
O8    O     O_R   0.671950 0.404260 0.412040 -0.541613
C3    C     C_R   0.840095 0.383100 0.384603 0.693049
O9    O     O_R   0.674540 0.388300 0.547620 -0.542010
C4    C     C_R   0.842468 0.360151 0.563217 0.708913
V2    V     V_3+5 0.564030 0.488110 0.497690 1.415327
O10   O     O_3   0.841030 0.564110 0.512470 -0.371635
C5    C     C_R   0.803309 0.105545 0.605801 0.302153
H1    H     H_    0.802658 0.160518 0.513433 0.104202
H2    H     H_    0.771349 0.981073 0.692584 0.174936
C6    C     C_R   0.845042 0.280545 0.601445 -0.066741
C7    C     C_R   0.867887 0.313031 0.927610 -0.154144
C8    C     C_R   0.844529 0.387537 0.891643 -0.117044
C9    C     C_R   0.823385 0.362395 0.821150 -0.177948
C10   C     C_R   0.832252 0.261836 0.784460 0.098344
C11   C     C_R   0.834998 0.185686 0.821971 0.057646
C12   C     C_R   0.832113 0.234746 0.711896 0.027204
C13   C     C_R   0.810327 0.132433 0.677923 0.091972
C14   C     C_R   0.793672 0.059363 0.716650 -0.145396
C15   C     C_R   0.809341 0.085329 0.787250 -0.208886
C16   C     C_R   0.858063 0.306473 0.672170 -0.239817
C17   C     C_R   0.814716 0.180518 0.568420 -0.235500
C18   C     C_R   0.859492 0.212272 0.893666 -0.080119
H3    H     H_    0.890246 0.383169 0.695096 0.119759
H4    H     H_    0.884669 0.333792 0.982433 0.124618
H5    H     H_    0.790510 0.422208 0.796691 0.145250
H6    H     H_    0.840345 0.465251 0.918585 0.127965
H7    H     H_    0.798186 0.025976 0.814614 0.142255
C19   C     C_R   0.708975 0.181808 0.227322 0.102174
C20   C     C_R   0.866691 0.183474 0.184436 -0.108498
C21   C     C_R   0.022254 0.247589 0.210569 -0.168549
H8    H     H_    0.145383 0.252603 0.178981 0.142983
C22   C     C_R   0.014677 0.311114 0.275903 -0.171842
H9    H     H_    0.132850 0.362896 0.292803 0.129002
C23   C     C_R   0.850801 0.312853 0.317066 -0.108172
C24   C     C_R   0.701376 0.244927 0.292060 0.097902
C25   C     C_3   0.494386 0.266255 0.284198 -0.411303
C26   C     C_3   0.502541 0.198454 0.213774 -0.406798
H10   H     H_    0.470323 0.346088 0.283488 0.170272
H11   H     H_    0.402330 0.235673 0.319965 0.174597
H12   H     H_    0.484157 0.238940 0.172164 0.178641
H13   H     H_    0.412287 0.129773 0.208827 0.167151
C27   C     C_R   0.489303 0.679531 0.732502 0.054328
C28   C     C_R   0.358449 0.690385 0.681705 -0.215908
C29   C     C_R   0.218318 0.765150 0.699231 -0.176245
H14   H     H_    0.112470 0.774636 0.661691 0.141865
C30   C     C_R   0.217889 0.831922 0.763640 0.324367
C31   C     C_R   0.355431 0.821510 0.814046 -0.198921
C32   C     C_R   0.488083 0.744589 0.796326 0.007914
C33   C     C_3   0.701378 0.751782 0.801045 -0.346487
C34   C     C_3   0.705070 0.679184 0.731979 0.143057
H15   H     H_    0.756584 0.721442 0.844098 0.183334
H16   H     H_    0.756929 0.827680 0.799532 0.172440
H17   H     H_    0.769841 0.709361 0.690115 0.120285
C35   C     C_R   0.451402 0.882846 0.388208 -0.165328
H18   H     H_    0.445184 0.833529 0.481939 0.113432
H19   H     H_    0.510497 0.002597 0.303455 0.124247
H20   H     H_    0.497545 0.958011 0.413166 0.105325
C36   C     C_R   0.361374 0.715292 0.396469 -0.031137
C37   C     C_R   0.292168 0.687610 0.069477 -0.264204
C38   C     C_R   0.260989 0.612553 0.105518 0.411897
C39   C     C_R   0.286339 0.634721 0.176036 -0.163192
C40   C     C_R   0.344383 0.731647 0.212307 0.001035
C41   C     C_R   0.380459 0.806370 0.174636 0.064147
C42   C     C_R   0.366653 0.757139 0.284689 0.094017
C43   C     C_R   0.426543 0.856052 0.317310 0.150359
C44   C     C_R   0.463519 0.927303 0.279020 -0.209708
C45   C     C_R   0.441452 0.902856 0.208884 -0.181163
C46   C     C_R   0.332982 0.687879 0.326071 -0.213961
C47   C     C_R   0.420698 0.812526 0.427479 -0.183330
C48   C     C_R   0.351800 0.783654 0.103308 -0.113434
H21   H     H_    0.289423 0.611326 0.305367 0.091098
H22   H     H_    0.268510 0.671504 0.014920 0.101797
H23   H     H_    0.258402 0.573978 0.200719 0.128312
H24   H     H_    0.473726 0.960372 0.181487 0.116134
O11   O     O_R   0.203450 0.916320 0.913910 -0.539486
O12   O     O_R   0.535520 0.888300 0.047620 -0.541921
O13   O     O_R   0.710860 0.083650 0.086100 -0.539992
C49   C     C_R   0.365748 0.861332 0.063873 0.714316
O14   O     O_R   0.532860 0.904250 0.912040 -0.541975
O15   O     O_R   0.708190 0.099710 0.949550 -0.540116
C50   C     C_R   0.364190 0.886973 0.883465 0.695499
O16   O     O_R   0.206120 0.900260 0.050460 -0.537225
O17   O     O_3   0.375280 0.064080 0.012470 -0.372914
V3    V     V_3+5 0.648180 0.988110 0.997690 1.421679
O18   O     O_R   0.038220 0.111740 0.952370 -0.542072
C51   C     C_R   0.869713 0.136486 0.934383 0.689737
O19   O     O_R   0.040880 0.095790 0.087940 -0.544673
C52   C     C_R   0.872834 0.117678 0.115141 0.698627
V4    V     V_3+5 0.148800 0.011950 0.002300 1.424724
O20   O     O_3   0.871820 0.935920 0.987530 -0.369880
O21   O     O_3   0.089163 0.909110 0.772936 -0.666994
H25   H     H_    0.140052 0.965638 0.808315 0.285774
N1    N     N_2   0.778634 0.582836 0.737148 -0.511784
H26   H     H_    0.726463 0.524680 0.699546 0.252829
C53   C     C_3   0.984683 0.580313 0.747425 -0.560898
H27   H     H_    0.022681 0.519018 0.772305 0.186838
H28   H     H_    0.039515 0.650573 0.781127 0.216356
H29   H     H_    0.057466 0.566726 0.697785 0.207744
O22   O     O_3   0.202849 0.516873 0.073450 -0.649914
H30   H     H_    0.190432 0.513137 0.023926 0.282349
N2    N     N_2   0.780625 0.003666 0.570535 -0.538856
H31   H     H_    0.699579 0.994379 0.526564 0.253592
C54   C     C_3   0.958870 0.949319 0.559187 -0.563004
H32   H     H_    0.053393 0.981374 0.524831 0.199664
H33   H     H_    0.927460 0.869561 0.535120 0.202015
H34   H     H_    0.035506 0.952387 0.608051 0.214419

loop_
_geom_bond_atom_site_label_1
_geom_bond_atom_site_label_2
_ccdc_geom_bond_type
O17   V3    S    
H18   C47   S    
C1    C28   S    
O18   C51   A    
C1    O6    A    
O19   C52   A    
O11   C50   A    
N2    C54   S    
C6    C16   A    
C24   C25   S    
C23   C24   A    
C53   H28   S    
C25   H11   S    
C12   C13   A    
O21   H25   S    
C34   H17   S    
C14   C15   A    
C10   C12   A    
C30   O21   S    
O5    C3    A    
C19   C20   A    
O12   C49   A    
V2    O10   S    
O13   V3    S    
C30   C31   A    
O14   V3    S    
C19   C24   A    
C37   H22   S    
C27   C34   S    
C2    C36   S    
C29   H14   S    
O8    V2    S    
C41   C48   A    
N2    H31   S    
C9    C10   A    
C38   C39   A    
O1    V2    S    
O14   C50   A    
C34   N1    S    
O12   V3    S    
O7    V1    S    
O17   V4    S    
O13   C52   A    
C7    C18   A    
C11   C18   A    
C21   C22   A    
C33   C34   S    
O9    C4    A    
C11   C15   A    
C22   C23   A    
C5    N2    S    
O19   V4    S    
O15   V3    S    
C26   H12   S    
C39   H23   S    
C36   C46   A    
C53   H29   S    
C29   C30   A    
C33   H15   S    
C42   C43   A    
C5    C13   A    
C35   H20   S    
C4    C6    S    
C10   C11   A    
C40   C42   A    
C20   C21   A    
O4    C2    A    
C20   C52   S    
C26   H13   S    
C7    H4    S    
C45   H24   S    
C32   C33   S    
C28   C29   A    
O2    C1    A    
C43   C44   A    
O11   V4    S    
C38   O22   S    
V4    O20   S    
V3    O20   S    
H19   C44   S    
N1    C53   S    
C49   O16   A    
C44   C45   A    
H2    C14   S    
C19   C26   S    
O3    C4    A    
C27   C32   A    
C21   H8    S    
C18   C51   S    
C12   C16   A    
O6    V2    S    
C9    H5    S    
O9    V2    S    
C5    C17   A    
C35   C47   A    
C22   H9    S    
O2    V1    S    
N1    H26   S    
C27   C28   A    
C54   H32   S    
C25   C26   S    
C33   H16   S    
C31   C50   S    
C16   H3    S    
O1    C2    A    
C40   C41   A    
O5    V1    S    
O8    C3    A    
O15   C51   A    
C8    H6    S    
C53   H27   S    
C54   H34   S    
O7    V2    S    
O4    V1    S    
C48   C49   S    
O3    V1    S    
V1    O10   S    
O22   H30   S    
C46   H21   S    
C31   C32   A    
C36   C47   A    
C35   C43   A    
O18   V4    S    
C37   C38   A    
C25   H10   S    
C39   C40   A    
C3    C23   S    
C42   C46   A    
C15   H7    S    
C13   C14   A    
C41   C45   A    
C8    C9    A    
C37   C48   A    
H1    C17   S    
C7    C8    A    
O16   V4    S    
C54   H33   S    
C6    C17   A    
