data_str_m4_o17_o17_f0_acs.sym.82
_audit_creation_date              2012-12-11T14:30:20-0500
_audit_creation_method            fapswitch 2.2
_symmetry_space_group_name_H-M    P1
_symmetry_Int_Tables_number       1
_space_group_crystal_system       triclinic
_cell_length_a                    12.656603
_cell_length_b                    12.616184
_cell_length_c                    26.72409
_cell_angle_alpha                 89.983516
_cell_angle_beta                  90.207802
_cell_angle_gamma                 119.757009
_cell_volume                      3704.53243701

loop_
_atom_site_label
_atom_site_type_symbol
_atom_type_description
_atom_site_fract_x
_atom_site_fract_y
_atom_site_fract_z
_atom_type_partial_charge
C1    C     C_R   0.556504 0.458873 0.821273 0.538944
C2    C     C_R   0.456145 0.556656 0.178049 0.534059
C3    C     C_R   0.997483 0.310154 0.474251 -0.128985
C4    C     C_R   0.296587 0.967061 0.019338 -0.133220
C5    C     C_R   0.688904 0.686674 0.474612 -0.128663
C6    C     C_R   0.309136 0.994106 0.525916 -0.128808
C7    C     C_R   0.978539 0.299699 0.977200 -0.135008
C8    C     C_R   0.684065 0.691245 0.526469 -0.128626
C9    C     C_R   0.294079 0.957436 0.967395 -0.132450
C10   C     C_R   0.006157 0.314507 0.526157 -0.128905
C11   C     C_R   0.697375 0.677711 0.975490 -0.132275
C12   C     C_3   0.919724 0.287374 0.138890 -0.270992
C13   C     C_R   0.443728 0.901672 0.321597 0.540862
C14   C     C_3   0.783856 0.214821 0.127536 -0.456389
C15   C     C_3   0.351590 0.068891 0.365537 -0.261333
C16   C     C_3   0.438150 0.166756 0.328977 -0.432301
C17   C     C_3   0.703715 0.614508 0.136394 -0.273493
C18   C     C_3   0.753720 0.528998 0.126145 -0.451470
C19   C     C_3   0.933054 0.283766 0.365478 -0.260873
C20   C     C_3   0.835468 0.273146 0.328551 -0.432536
C21   C     C_3   0.335545 0.044593 0.126496 -0.270902
C22   C     C_3   0.377132 0.173345 0.107389 -0.453478
C23   C     C_3   0.716193 0.648364 0.366082 -0.260900
C24   C     C_R   0.098165 0.542493 0.178743 0.534745
C25   C     C_3   0.727518 0.561484 0.329333 -0.432360
C26   C     C_3   0.283860 0.930547 0.634665 -0.260878
C27   C     C_3   0.274054 0.833623 0.671789 -0.433219
C28   C     C_3   0.051947 0.337252 0.869552 -0.256873
C29   C     C_3   0.155663 0.422868 0.834991 -0.431823
C30   C     C_3   0.645671 0.717046 0.635146 -0.260453
C31   C     C_3   0.558708 0.727136 0.671985 -0.432949
C32   C     C_3   0.286655 0.907177 0.856791 -0.271233
C33   C     C_3   0.226104 0.769536 0.863782 -0.455421
C34   C     C_3   0.068951 0.351846 0.635125 -0.260297
C35   C     C_R   0.987039 0.496101 0.975498 0.049874
C36   C     C_3   0.165651 0.438475 0.672323 -0.432515
C37   C     C_3   0.668610 0.719997 0.867527 -0.256869
C38   C     C_3   0.590357 0.744367 0.830620 -0.429640
C39   C     C_R   0.503915 0.000133 0.526517 0.049485
C40   C     C_R   0.493869 0.501836 0.972254 0.048538
C41   C     C_R   0.999462 0.503543 0.526510 0.049528
C42   C     C_R   0.494016 0.975083 0.969205 0.046746
C43   C     C_R   0.496385 0.496147 0.526486 0.049377
C44   C     C_R   0.502575 0.997754 0.473823 0.049387
C45   C     C_R   0.901614 0.443789 0.678437 0.540594
C46   C     C_R   0.994779 0.501284 0.027862 0.048070
C47   C     C_R   0.495367 0.497381 0.473795 0.049404
C48   C     C_R   0.488709 0.968196 0.021737 0.048061
C49   C     C_R   0.002436 0.505020 0.473803 0.049462
C50   C     C_R   0.488726 0.502774 0.024750 0.048956
C51   C     C_R   0.988985 0.689853 0.974582 -0.129326
C52   C     C_R   0.699532 0.007155 0.526329 -0.122892
C53   C     C_R   0.291604 0.323105 0.969755 -0.124666
C54   C     C_R   0.991813 0.692445 0.526057 -0.123094
C55   C     C_R   0.691688 0.986970 0.971565 -0.124126
C56   C     C_R   0.542208 0.096657 0.820780 0.535485
C57   C     C_R   0.308825 0.300233 0.525729 -0.122320
C58   C     C_R   0.691541 0.991315 0.474360 -0.122298
C59   C     C_R   0.011949 0.702011 0.026022 -0.129241
C60   C     C_R   0.301026 0.308171 0.473752 -0.122417
C61   C     C_R   0.679324 0.965250 0.023166 -0.128768
C62   C     C_R   0.008276 0.700680 0.474148 -0.122931
C63   C     C_R   0.280527 0.333931 0.021303 -0.131082
C64   C     C_R   0.953043 0.572493 0.897851 -0.164315
C65   C     C_R   0.614809 0.033164 0.604265 -0.155038
C66   C     C_R   0.413328 0.396297 0.893622 -0.157242
C67   C     C_R   0.556149 0.457964 0.678472 0.538885
C68   C     C_R   0.965452 0.581124 0.604055 -0.155120
C69   C     C_R   0.613673 0.024095 0.893593 -0.154326
C70   C     C_R   0.418965 0.385149 0.603971 -0.154928
C71   C     C_R   0.580746 0.965556 0.396191 -0.155016
C72   C     C_R   0.042935 0.620123 0.103718 -0.159389
C73   C     C_R   0.385576 0.419031 0.395879 -0.154936
C74   C     C_R   0.566707 0.940563 0.100418 -0.158715
C75   C     C_R   0.035023 0.615936 0.396155 -0.155171
C76   C     C_R   0.370283 0.435595 0.100457 -0.156686
C77   C     C_R   0.032778 0.520083 0.130920 -0.011591
C78   C     C_R   0.899823 0.442439 0.822047 0.540055
C79   C     C_R   0.485230 0.967568 0.369893 0.003108
C80   C     C_R   0.473559 0.516261 0.128604 -0.004820
C81   C     C_R   0.033286 0.518366 0.369911 0.003639
C82   C     C_R   0.475706 0.951128 0.126463 -0.010124
C83   C     C_R   0.482471 0.514712 0.369870 0.003254
C84   C     C_R   0.517657 0.031586 0.630360 0.003805
C85   C     C_R   0.957927 0.478370 0.871713 0.002925
C86   C     C_R   0.513983 0.482535 0.630344 0.003524
C87   C     C_R   0.517248 0.023178 0.866780 -0.008485
C88   C     C_R   0.967516 0.485443 0.630321 0.003480
C89   C     C_R   0.542134 0.098209 0.678468 0.539087
C90   C     C_R   0.516500 0.487350 0.868930 0.001787
C91   C     C_R   0.978025 0.587791 0.949027 0.005065
C92   C     C_R   0.605616 0.010730 0.552707 0.011979
C93   C     C_R   0.397541 0.407811 0.944799 0.013034
C94   C     C_R   0.988244 0.594601 0.552553 0.012127
C95   C     C_R   0.599506 0.992548 0.944352 0.013005
C96   C     C_R   0.405787 0.394318 0.552394 0.012076
C97   C     C_R   0.593821 0.987530 0.447798 0.012327
C98   C     C_R   0.015047 0.608029 0.052816 0.003707
C99   C     C_R   0.394461 0.405972 0.447480 0.012218
C100  C     C_R   0.457926 0.556291 0.321586 0.539721
C101  C     C_R   0.579584 0.959092 0.048681 0.004571
C102  C     C_R   0.012647 0.606800 0.447697 0.012284
C103  C     C_R   0.379488 0.422391 0.049086 0.004607
C104  C     C_R   0.996176 0.403874 0.897172 0.021405
C105  C     C_R   0.403699 0.987768 0.605688 0.019168
C106  C     C_R   0.594577 0.598234 0.894742 0.021971
C107  C     C_R   0.011601 0.415004 0.605862 0.018985
C108  C     C_R   0.401021 0.970689 0.888957 0.021287
C109  C     C_R   0.583639 0.596765 0.605922 0.019345
C110  C     C_R   0.414504 0.010901 0.394511 0.019301
C111  C     C_R   0.441742 0.898499 0.177429 0.532490
C112  C     C_R   0.981157 0.403917 0.107855 0.017040
C113  C     C_R   0.595956 0.585471 0.394766 0.019156
C114  C     C_R   0.400778 0.986570 0.099823 0.020078
C115  C     C_R   0.990308 0.404302 0.394524 0.019347
C116  C     C_R   0.588877 0.575487 0.105512 0.017379
C117  C     C_R   0.988964 0.399630 0.949759 0.025692
C118  C     C_R   0.403654 0.991952 0.552913 0.024174
C119  C     C_R   0.595459 0.594780 0.947332 0.023653
C120  C     C_R   0.007733 0.411099 0.553060 0.024252
C121  C     C_R   0.394491 0.965842 0.941610 0.032392
C122  C     C_R   0.098567 0.542341 0.321631 0.539868
C123  C     C_R   0.587909 0.596662 0.553165 0.024198
C124  C     C_R   0.410251 0.005945 0.447260 0.024323
C125  C     C_R   0.981141 0.399504 0.055177 0.035169
C126  C     C_R   0.595308 0.589786 0.447524 0.024178
C127  C     C_R   0.394382 0.974074 0.047189 0.037309
C128  C     C_R   0.994855 0.404630 0.447313 0.024181
C129  C     C_R   0.593282 0.582712 0.052783 0.034017
C130  C     C_R   0.970215 0.297778 0.029110 -0.135147
C131  C     C_R   0.313553 0.003358 0.474054 -0.128789
C132  C     C_R   0.698098 0.668514 0.027348 -0.129639
Cr1   Cr    Cr6+3 0.487630 0.241180 0.750000 0.988904
Cr2   Cr    Cr6+3 0.753550 0.512370 0.750000 0.986558
Cr3   Cr    Cr6+3 0.758820 0.246450 0.750000 0.987431
Cr4   Cr    Cr6+3 0.241180 0.487630 0.250000 0.988369
Cr5   Cr    Cr6+3 0.512370 0.753550 0.250000 0.989901
Cr6   Cr    Cr6+3 0.246450 0.758820 0.250000 0.988982
H1    H     H_    0.074670 0.707769 0.121812 0.128741
H2    H     H_    0.701058 0.055063 0.875853 0.120403
H3    H     H_    0.940445 0.641329 0.623077 0.119915
H4    H     H_    0.348023 0.315136 0.873590 0.119345
H5    H     H_    0.024081 0.783083 0.045062 0.089299
H6    H     H_    0.762690 0.984190 0.454867 0.088624
H7    H     H_    0.196469 0.270441 0.039730 0.100405
H8    H     H_    0.015399 0.779220 0.454604 0.088597
H9    H     H_    0.750060 0.958445 0.043404 0.096388
H10   H     H_    0.223155 0.236928 0.454032 0.088469
H11   H     H_    0.778027 0.014643 0.545957 0.088558
H12   H     H_    0.641118 0.941150 0.377095 0.119746
H13   H     H_    0.983531 0.761667 0.954572 0.089017
H14   H     H_    0.238190 0.221669 0.545137 0.088862
H15   H     H_    0.772607 0.998511 0.952931 0.087709
H16   H     H_    0.983899 0.763462 0.545560 0.088758
H17   H     H_    0.216989 0.249805 0.949404 0.091315
H18   H     H_    0.960485 0.218173 0.048462 0.100268
H19   H     H_    0.237068 0.002120 0.455327 0.090896
H20   H     H_    0.779744 0.732588 0.047100 0.102920
H21   H     H_    0.999183 0.234933 0.455632 0.090936
H22   H     H_    0.220157 0.966563 0.037450 0.101339
H23   H     H_    0.282053 0.384918 0.118211 0.132741
H24   H     H_    0.763744 0.763230 0.456122 0.090997
H25   H     H_    0.233908 0.995212 0.544470 0.090918
H26   H     H_    0.970076 0.219408 0.958867 0.091417
H27   H     H_    0.759953 0.766616 0.545266 0.091006
H28   H     H_    0.216544 0.951646 0.947812 0.102930
H29   H     H_    0.005104 0.237904 0.544793 0.090921
H30   H     H_    0.779955 0.745717 0.957653 0.092421
H31   H     H_    0.740959 0.271808 0.134284 0.148592
H32   H     H_    0.767093 0.182964 0.088194 0.174478
H33   H     H_    0.740932 0.134792 0.152857 0.133436
H34   H     H_    0.059244 0.700790 0.377058 0.119649
H35   H     H_    0.963229 0.230797 0.132586 0.130930
H36   H     H_    0.924738 0.306440 0.179535 0.167476
H37   H     H_    0.520358 0.236611 0.349124 0.148589
H38   H     H_    0.466410 0.126346 0.298605 0.154423
H39   H     H_    0.391675 0.212729 0.311628 0.127597
H40   H     H_    0.269043 0.998991 0.345833 0.162443
H41   H     H_    0.320708 0.117298 0.391028 0.126999
H42   H     H_    0.682604 0.433022 0.133450 0.141219
H43   H     H_    0.783741 0.536757 0.086752 0.179259
H44   H     H_    0.831297 0.552091 0.151738 0.138416
H45   H     H_    0.627675 0.917977 0.120347 0.129741
H46   H     H_    0.773302 0.710860 0.129098 0.128292
H47   H     H_    0.686270 0.607139 0.177141 0.166255
H48   H     H_    0.790082 0.180962 0.311155 0.127179
H49   H     H_    0.765495 0.285781 0.348414 0.148286
H50   H     H_    0.875571 0.341735 0.298222 0.153356
H51   H     H_    0.003069 0.270798 0.346072 0.162469
H52   H     H_    0.884925 0.204553 0.390878 0.126771
H53   H     H_    0.477442 0.231279 0.111254 0.155612
H54   H     H_    0.351296 0.172934 0.067736 0.168440
H55   H     H_    0.333049 0.213859 0.130186 0.132288
H56   H     H_    0.301261 0.358534 0.376562 0.120062
H57   H     H_    0.235359 0.986349 0.122561 0.131354
H58   H     H_    0.357258 0.057736 0.166949 0.170201
H59   H     H_    0.715349 0.478871 0.349278 0.148384
H60   H     H_    0.659197 0.533371 0.298798 0.153922
H61   H     H_    0.819466 0.607962 0.312208 0.127069
H62   H     H_    0.728696 0.731353 0.346595 0.162365
H63   H     H_    0.795090 0.679036 0.391748 0.127281
H64   H     H_    0.286610 0.763119 0.652085 0.148062
H65   H     H_    0.342808 0.874702 0.702114 0.152657
H66   H     H_    0.182397 0.788276 0.689177 0.126662
H67   H     H_    0.699570 0.057809 0.623456 0.120050
H68   H     H_    0.270854 0.001016 0.653915 0.161999
H69   H     H_    0.204696 0.881492 0.609224 0.127658
H70   H     H_    0.122493 0.458635 0.804496 0.152731
H71   H     H_    0.226930 0.500767 0.856775 0.151625
H72   H     H_    0.197434 0.372463 0.817683 0.124916
H73   H     H_    0.093779 0.301225 0.896063 0.121391
H74   H     H_    0.982172 0.256759 0.848718 0.163366
H75   H     H_    0.476621 0.715708 0.651926 0.148357
H76   H     H_    0.530241 0.657420 0.701895 0.150526
H77   H     H_    0.604883 0.818701 0.689922 0.127350
H78   H     H_    0.929939 0.633814 0.878451 0.122964
H79   H     H_    0.728624 0.729924 0.654688 0.162655
H80   H     H_    0.675702 0.796461 0.609846 0.127379
H81   H     H_    0.290053 0.736828 0.853440 0.143956
H82   H     H_    0.198440 0.744672 0.903258 0.180587
H83   H     H_    0.145263 0.724012 0.838915 0.133524
H84   H     H_    0.222528 0.940645 0.865260 0.129140
H85   H     H_    0.306577 0.921590 0.816270 0.166711
H86   H     H_    0.235975 0.520851 0.652599 0.147892
H87   H     H_    0.124803 0.467041 0.702361 0.152306
H88   H     H_    0.210761 0.391607 0.690086 0.127059
H89   H     H_    0.359258 0.300203 0.622956 0.120262
H90   H     H_    0.998888 0.268868 0.654369 0.162619
H91   H     H_    0.117846 0.321128 0.609901 0.126806
H92   H     H_    0.556111 0.676453 0.799806 0.154530
H93   H     H_    0.511710 0.741272 0.850338 0.150423
H94   H     H_    0.645581 0.836502 0.813949 0.125117
H95   H     H_    0.704803 0.797590 0.894231 0.123862
H96   H     H_    0.749177 0.725847 0.848668 0.162563
O1    O     O_R   0.460870 0.120930 0.805240 -0.521972
O2    O     O_R   0.120930 0.460870 0.194760 -0.526639
O3    O     O_R   0.539130 0.660060 0.305240 -0.519898
O4    O     O_R   0.339940 0.879070 0.194760 -0.527295
O5    O     O_R   0.498910 0.350470 0.801870 -0.497736
O6    O     O_R   0.851560 0.501090 0.698130 -0.502177
O7    O     O_R   0.649530 0.148440 0.801870 -0.502160
O8    O     O_R   0.498910 0.350470 0.698130 -0.502738
O9    O     O_R   0.851560 0.501090 0.801870 -0.503916
O10   O     O_R   0.649530 0.148440 0.698130 -0.503404
O11   O     O_R   0.350470 0.498910 0.301870 -0.502045
O12   O     O_R   0.660060 0.539130 0.694760 -0.519615
O13   O     O_R   0.501090 0.851560 0.198130 -0.498799
O14   O     O_R   0.148440 0.649530 0.301870 -0.502642
O15   O     O_R   0.350470 0.498910 0.198130 -0.501891
O16   O     O_R   0.501090 0.851560 0.301870 -0.501367
O17   O     O_R   0.148440 0.649530 0.198130 -0.500236
O18   O     O_3   0.666667 0.333333 0.750000 -0.213110
O19   O     O_3   0.333333 0.666667 0.250000 -0.213267
O20   O     O_R   0.879070 0.339940 0.805240 -0.520623
O21   O     O_R   0.460870 0.120930 0.694760 -0.520851
O22   O     O_R   0.660060 0.539130 0.805240 -0.521543
O23   O     O_R   0.879070 0.339940 0.694760 -0.519631
O24   O     O_R   0.120930 0.460870 0.305240 -0.520754
O25   O     O_R   0.539130 0.660060 0.194760 -0.524027
O26   O     O_R   0.339940 0.879070 0.305240 -0.519635

loop_
_geom_bond_atom_site_label_1
_geom_bond_atom_site_label_2
_ccdc_geom_bond_type
C65   C92   A    
C56   O7    A    
C13   C79   S    
C1    C90   S    
C15   H41   S    
C106  C119  A    
C27   H64   S    
C83   C113  A    
C46   C125  A    
C61   C101  A    
C26   H69   S    
Cr2   O18   S    
C40   C93   A    
C14   H32   S    
C60   C99   A    
C11   C119  A    
C11   C132  A    
Cr1   O21   S    
C71   C79   A    
Cr5   O16   S    
C48   C101  A    
C29   H72   S    
C38   H92   S    
C31   H76   S    
C72   C98   A    
C1    O5    A    
C28   H73   S    
C13   O16   A    
C71   C97   A    
C26   C27   S    
C37   C38   S    
C29   H70   S    
C23   H63   S    
C27   H65   S    
C34   C107  S    
C12   H36   S    
C28   C29   S    
C13   O26   A    
C30   C31   S    
Cr5   O13   S    
C67   O12   A    
C40   C50   A    
C71   H12   S    
C23   C113  S    
C18   H44   S    
C15   C16   S    
C57   H14   S    
C55   C61   A    
C47   C99   A    
C73   C99   A    
Cr1   O1    S    
C131  H19   S    
C7    C117  A    
C7    C130  A    
C25   H60   S    
C51   C91   A    
C66   C93   A    
C125  C130  A    
C122  O24   A    
C72   H1    S    
C116  C129  A    
C80   C116  A    
C17   H47   S    
C52   H11   S    
C57   C96   A    
C5    C126  A    
C75   C102  A    
C9    C121  A    
C56   O1    A    
C33   H83   S    
C100  O11   A    
Cr6   O19   S    
C36   H86   S    
C69   C87   A    
C1    O22   A    
C8    C123  A    
Cr4   O15   S    
C30   H80   S    
C129  C132  A    
C110  C124  A    
C16   H38   S    
C76   C103  A    
Cr5   O25   S    
C2    O25   A    
C46   C98   A    
C18   H42   S    
C50   C103  A    
C21   H58   S    
C31   H77   S    
C21   C22   S    
C56   C87   S    
C3    H21   S    
C15   C110  S    
C76   H23   S    
C26   H68   S    
C58   C97   A    
C29   H71   S    
C74   C82   A    
C14   H31   S    
C26   C105  S    
C41   C49   A    
C67   O8    A    
C17   C18   S    
C14   H33   S    
C33   H81   S    
Cr6   O14   S    
Cr6   O26   S    
C10   C120  A    
Cr3   O23   S    
C111  O4    A    
C54   C94   A    
C87   C108  A    
C30   C109  S    
C53   C93   A    
C42   C95   A    
C78   O20   A    
Cr4   O19   S    
C37   H96   S    
C86   C109  A    
C25   H59   S    
C70   H89   S    
C82   C114  A    
C66   C90   A    
Cr6   O17   S    
C2    O15   A    
C49   C102  A    
C88   C107  A    
C3    C128  A    
C109  C123  A    
C65   C84   A    
C38   H94   S    
C113  C126  A    
C54   C62   A    
C18   H43   S    
C20   H48   S    
C23   H62   S    
C44   C124  A    
C68   C94   A    
C115  C128  A    
C27   H66   S    
C124  C131  A    
C20   H49   S    
Cr3   O10   S    
C10   H29   S    
C77   C112  A    
C70   C96   A    
C51   H13   S    
C72   C77   A    
C25   H61   S    
C50   C129  A    
Cr1   O8    S    
C20   H50   S    
C44   C97   A    
C28   C104  S    
C41   C94   A    
C19   C115  S    
C4    C9    A    
C81   C115  A    
C43   C96   A    
C89   O10   A    
C68   H3    S    
C22   H55   S    
C42   C48   A    
C21   H57   S    
C37   H95   S    
Cr1   O18   S    
C90   C106  A    
C112  C125  A    
C39   C44   A    
C85   C104  A    
C52   C58   A    
C66   H4    S    
C19   H51   S    
C30   H79   S    
C31   H75   S    
C45   C88   S    
C16   H37   S    
C55   C95   A    
C12   C14   S    
C53   H17   S    
C83   C100  S    
C74   C101  A    
C32   C108  S    
C11   H30   S    
C68   C88   A    
C105  C118  A    
C35   C117  A    
C34   H91   S    
C51   C59   A    
C84   C89   S    
C22   H54   S    
C63   C103  A    
C70   C86   A    
Cr3   O18   S    
C43   C123  A    
C39   C92   A    
C12   C112  S    
C32   H85   S    
C16   H39   S    
C78   C85   S    
C47   C126  A    
C122  O14   A    
C104  C117  A    
C33   H82   S    
C55   H15   S    
C49   C128  A    
C9    H28   S    
C67   C86   S    
C36   H88   S    
C24   O2    A    
C79   C110  A    
Cr2   O6    S    
C64   H78   S    
C24   O17   A    
C75   C81   A    
C76   C80   A    
C21   C114  S    
C69   C95   A    
C54   H16   S    
C5    C8    A    
C32   H84   S    
C36   H87   S    
C45   O23   A    
C38   H93   S    
C74   H45   S    
C41   C120  A    
C28   H74   S    
C39   C118  A    
Cr1   O5    S    
C7    H26   S    
C78   O9    A    
C6    C131  A    
C81   C122  S    
C63   H7    S    
C82   C111  S    
Cr3   O7    S    
C19   C20   S    
C61   H9    S    
C4    C127  A    
Cr2   O22   S    
C37   C106  S    
C64   C85   A    
C3    C10   A    
C5    H24   S    
C48   C127  A    
Cr4   O24   S    
C114  C127  A    
C53   C63   A    
C17   H46   S    
C107  C120  A    
C4    H22   S    
C108  C121  A    
C69   H2    S    
C100  O3    A    
C84   C105  A    
Cr4   O2    S    
Cr2   O12   S    
Cr4   O11   S    
Cr6   O4    S    
C34   C36   S    
C23   C25   S    
Cr3   O20   S    
Cr5   O3    S    
C32   C33   S    
C34   H90   S    
C132  H20   S    
Cr2   O9    S    
C45   O6    A    
C2    C80   S    
C8    H27   S    
C19   H52   S    
C59   H5    S    
C58   H6    S    
C24   C77   S    
C57   C60   A    
C40   C119  A    
C65   H67   S    
C6    H25   S    
C17   C116  S    
C111  O13   A    
C62   H8    S    
C15   H40   S    
C75   H34   S    
C59   C98   A    
C130  H18   S    
C60   H10   S    
C64   C91   A    
C62   C102  A    
C22   H53   S    
C73   H56   S    
C35   C46   A    
C43   C47   A    
C73   C83   A    
C52   C92   A    
Cr5   O19   S    
C42   C121  A    
C6    C118  A    
C12   H35   S    
C89   O21   A    
C35   C91   A    
