data_str_m9_o18_o22_f0_sra.sym.14
_audit_creation_date              2012-12-11T15:29:35-0500
_audit_creation_method            fapswitch 2.2
_symmetry_space_group_name_H-M    P1
_symmetry_Int_Tables_number       1
_space_group_crystal_system       triclinic
_cell_length_a                    21.489873
_cell_length_b                    7.247729
_cell_length_c                    14.76328
_cell_angle_alpha                 90.217011
_cell_angle_beta                  73.973424
_cell_angle_gamma                 89.820083
_cell_volume                      2210.01510379

loop_
_atom_site_label
_atom_site_type_symbol
_atom_type_description
_atom_site_fract_x
_atom_site_fract_y
_atom_site_fract_z
_atom_type_partial_charge
O1    O     O_R   0.464160 0.506670 0.130070 -0.538435
O2    O     O_R   0.535840 0.006670 0.869930 -0.542408
O3    O     O_R   0.589710 0.179080 0.006710 -0.515293
O4    O     O_R   0.410290 0.679080 0.993290 -0.521864
C1    C     C_R   0.615857 0.344658 0.003638 0.880843
C2    C     C_R   0.383634 0.844965 0.998850 0.882821
O5    O     O_R   0.467940 0.177220 0.138010 -0.533232
O6    O     O_R   0.532060 0.677220 0.861990 -0.530249
O7    O     O_R   0.413200 0.002810 0.002170 -0.524587
O8    O     O_R   0.586800 0.502810 0.997830 -0.507531
C3    C     C_R   0.455868 0.346180 0.174445 0.731438
C4    C     C_R   0.544174 0.845155 0.825465 0.735359
O9    O     O_3   0.482180 0.337850 0.955280 -0.383451
O10   O     O_3   0.517820 0.837850 0.044720 -0.369769
V1    V     V_3+5 0.503310 0.064600 0.008300 1.692550
V2    V     V_3+5 0.496690 0.564600 0.991700 1.699147
C5    C     C_R   0.571524 0.854606 0.723321 -0.186101
C6    C     C_R   0.428141 0.360950 0.276293 -0.172300
C7    C     C_R   0.928388 0.871628 0.277172 -0.207163
C8    C     C_R   0.071960 0.364240 0.722873 -0.214118
C9    C     C_R   0.557214 0.889022 0.567864 0.809330
C10   C     C_R   0.438266 0.466085 0.426622 0.793664
C11   C     C_R   0.530973 0.870370 0.664744 -0.216890
C12   C     C_R   0.466365 0.422881 0.332323 -0.212739
C13   C     C_R   0.638610 0.859089 0.685230 -0.035993
C14   C     C_R   0.361450 0.341019 0.314650 -0.035035
C15   C     C_R   0.666814 0.891857 0.588066 -0.025024
C16   C     C_R   0.330420 0.400073 0.407812 -0.022091
C17   C     C_R   0.625080 0.898627 0.528440 -0.197769
C18   C     C_R   0.370317 0.458425 0.464932 -0.194136
C19   C     C_R   0.735030 0.913574 0.548519 -0.202341
C20   C     C_R   0.261497 0.400320 0.446157 -0.205940
C21   C     C_R   0.761667 0.907721 0.448379 -0.089046
C22   C     C_R   0.234332 0.432218 0.544865 -0.096470
C23   C     C_R   0.718754 0.926055 0.390529 0.275307
C24   C     C_R   0.274526 0.508954 0.597261 0.289891
C25   C     C_R   0.651327 0.919350 0.431070 0.583989
C26   C     C_R   0.341951 0.515613 0.557875 0.595502
C27   C     C_R   0.777245 0.952757 0.605101 0.601439
C28   C     C_R   0.218284 0.380479 0.389159 0.618316
C29   C     C_R   0.843763 0.963364 0.565948 0.619542
C30   C     C_R   0.151886 0.365614 0.429237 0.616684
C31   C     C_R   0.871135 0.932917 0.469840 -0.232361
C32   C     C_R   0.125822 0.368056 0.526880 -0.231253
C33   C     C_R   0.830733 0.898107 0.410138 0.056910
C34   C     C_R   0.166777 0.397799 0.586195 0.053382
C35   C     C_R   0.938729 0.942147 0.432212 -0.108651
C36   C     C_R   0.058874 0.342921 0.565980 -0.105532
C37   C     C_R   0.966921 0.917756 0.336053 0.635560
C38   C     C_R   0.032008 0.343909 0.663312 0.633540
C39   C     C_R   0.861430 0.853012 0.314702 -0.135530
C40   C     C_R   0.138786 0.384452 0.684764 -0.125512
H1    H     H_    0.834752 0.802956 0.267621 0.190547
H2    H     H_    0.167929 0.382387 0.733704 0.209147
H3    H     H_    0.478861 0.867734 0.694168 0.180294
H4    H     H_    0.518081 0.439792 0.302528 0.158805
H5    H     H_    0.667394 0.830915 0.732948 0.223696
H6    H     H_    0.335502 0.279081 0.269633 0.235337
H7    H     H_    0.969867 0.973598 0.476732 0.205702
H8    H     H_    0.027025 0.323065 0.521264 0.207870
C41   C     C_3   0.229162 0.806846 0.907426 0.771488
C42   C     C_3   0.772824 0.248927 0.084068 0.775896
C43   C     C_3   0.302747 0.804546 0.904060 0.215547
C44   C     C_3   0.698951 0.248479 0.088628 0.232516
H9    H     H_    0.330498 0.902496 0.850443 0.077928
H10   H     H_    0.669317 0.312009 0.155139 0.067232
H11   H     H_    0.291868 0.569156 0.049012 0.210483
H12   H     H_    0.716398 0.108046 0.914974 0.216120
C45   C     C_3   0.198433 0.716003 0.081908 0.604269
C46   C     C_3   0.803878 0.274835 0.903315 0.617924
C47   C     C_3   0.209014 0.056940 0.034864 0.010136
C48   C     C_3   0.782381 0.564963 0.007795 0.022537
C49   C     C_3   0.185946 0.862058 0.008785 -0.420171
C50   C     C_3   0.812792 0.364888 0.997034 -0.435505
H13   H     H_    0.203379 0.159493 0.981533 0.124168
H14   H     H_    0.784090 0.620978 0.077574 0.094422
C51   C     C_3   0.311984 0.853993 0.002362 -0.510903
C52   C     C_3   0.686983 0.353352 0.002656 -0.536368
C53   C     C_3   0.273134 0.709004 0.074206 0.477373
C54   C     C_3   0.729430 0.256976 0.911565 0.482352
C55   C     C_3   0.281858 0.050458 0.034062 0.862398
C56   C     C_3   0.710509 0.558797 0.004238 0.872073
O11   O     O_R   0.913210 0.208550 0.002110 -0.516113
O12   O     O_R   0.086790 0.708550 0.997890 -0.518024
O13   O     O_R   0.032060 0.539960 0.861980 -0.523818
O14   O     O_R   0.967940 0.039960 0.138020 -0.525887
C57   C     C_R   0.044318 0.372188 0.825243 0.787377
C58   C     C_R   0.955909 0.873313 0.174788 0.786714
O15   O     O_R   0.910290 0.538020 0.993280 -0.540725
O16   O     O_R   0.089710 0.038020 0.006720 -0.563519
O17   O     O_R   0.964160 0.712340 0.130090 -0.552427
O18   O     O_R   0.035840 0.212340 0.869910 -0.542958
C59   C     C_R   0.884231 0.370415 0.996663 0.870382
C60   C     C_R   0.115001 0.869350 0.006744 0.879009
O19   O     O_3   0.017820 0.379210 0.044690 -0.403277
O20   O     O_3   0.982180 0.879210 0.955310 -0.384676
V3    V     V_3+5 0.996690 0.652500 0.991710 1.600562
V4    V     V_3+5 0.003310 0.152500 0.008290 1.581454
F1    F     F_    0.611203 0.935196 0.374547 -0.611381
F2    F     F_    0.379780 0.582465 0.610616 -0.600004
F3    F     F_    0.212090 0.631024 0.885765 -0.574561
F4    F     F_    0.794762 0.067873 0.074120 -0.593281
O21   O     O_3   0.217200 0.924473 0.838047 -0.628850
H15   H     H_    0.240022 0.042762 0.838326 0.235396
O22   O     O_3   0.783219 0.314364 0.168902 -0.620305
H16   H     H_    0.754735 0.421965 0.192332 0.231215
F5    F     F_    0.329190 0.631903 0.875125 -0.592043
F6    F     F_    0.677429 0.067811 0.090465 -0.566998
O23   O     O_3   0.181075 0.538026 0.058792 -0.592168
H17   H     H_    0.135650 0.513916 0.095188 0.341666
O24   O     O_3   0.830170 0.095212 0.891532 -0.571657
H18   H     H_    0.877260 0.103519 0.859827 0.367397
O25   O     O_3   0.171325 0.117813 0.124111 -0.525162
H19   H     H_    0.135974 0.197698 0.115486 0.355396
O26   O     O_3   0.817872 0.683878 0.936925 -0.542759
H20   H     H_    0.833622 0.788226 0.968053 0.392504
O27   O     O_3   0.316452 0.192605 0.976789 -0.600676
H21   H     H_    0.310458 0.181951 0.912900 0.253101
O28   O     O_3   0.670369 0.659812 0.080169 -0.571748
H22   H     H_    0.676904 0.614275 0.140036 0.240266
F7    F     F_    0.286646 0.084609 0.124555 -0.545347
F8    F     F_    0.705894 0.644862 0.922346 -0.558334
O29   O     O_3   0.160577 0.758597 0.174691 -0.559109
H23   H     H_    0.183530 0.847414 0.204929 0.420890
O30   O     O_3   0.836621 0.379119 0.823444 -0.539543
H24   H     H_    0.809056 0.482899 0.814098 0.410937
F9    F     F_    0.285579 0.729270 0.161111 -0.608967
F10   F     F_    0.714227 0.323506 0.832166 -0.605854
F11   F     F_    0.031806 0.939614 0.300283 -0.623255
F12   F     F_    0.967156 0.323054 0.699398 -0.614794
F13   F     F_    0.881730 0.005235 0.623084 -0.581418
F14   F     F_    0.112758 0.347575 0.371426 -0.588076
F15   F     F_    0.515677 0.900963 0.513502 -0.556060
F16   F     F_    0.477871 0.521327 0.478928 -0.569969
O31   O     O_3   0.743017 0.971418 0.296455 -0.606791
H25   H     H_    0.707826 0.978517 0.265218 0.392138
O32   O     O_3   0.246613 0.595647 0.682444 -0.594363
H26   H     H_    0.280260 0.652724 0.707500 0.402426
F17   F     F_    0.755048 0.003201 0.696976 -0.594192
F18   F     F_    0.237928 0.394939 0.293970 -0.569455

loop_
_geom_bond_atom_site_label_1
_geom_bond_atom_site_label_2
_ccdc_geom_bond_type
H12   C54   S    
C43   H9    S    
C3    C6    S    
O16   C60   A    
C55   O27   S    
C15   C17   A    
C21   C33   A    
O22   H16   S    
O24   H18   S    
O1    C3    A    
C48   H14   S    
O2    C4    A    
C2    O7    A    
O19   V4    S    
O18   V4    S    
O31   H25   S    
C27   C29   A    
C42   O22   S    
O5    C3    A    
C48   O26   S    
C18   C26   A    
C5    C11   A    
C13   H5    S    
C10   F16   S    
C6    C12   A    
O12   V3    S    
C49   C60   S    
C23   C25   A    
C52   C54   S    
C17   C25   A    
C33   C39   A    
O26   H20   S    
O11   C59   A    
C8    C57   S    
C34   C40   A    
O14   C58   A    
C47   O25   S    
C41   C43   S    
C52   C56   S    
C8    C38   A    
C38   F12   S    
C45   O23   S    
C32   C34   A    
C16   C18   A    
O11   V4    S    
C6    C14   A    
C4    C5    S    
C46   C50   S    
C42   C44   S    
C19   C21   A    
C45   C49   S    
C22   C34   A    
C24   O32   S    
O29   H23   S    
C36   C38   A    
O6    V2    S    
C57   O18   A    
C29   C31   A    
C50   C59   S    
C30   C32   A    
C56   O28   S    
C9    F15   S    
C40   H2    S    
C36   H8    S    
C51   C53   S    
C27   F17   S    
O13   C57   A    
C46   C54   S    
C16   C20   A    
H11   C53   S    
C48   C50   S    
C7    C58   S    
C23   O31   S    
C29   F13   S    
C2    C51   S    
C54   F10   S    
C41   C49   S    
C9    C17   A    
C55   F7    S    
C39   H1    S    
C44   H10   S    
O4    V2    S    
C41   F3    S    
C14   H6    S    
C7    C37   A    
C58   O17   A    
C51   C55   S    
O6    C4    A    
O20   V3    S    
O1    V2    S    
O12   C60   A    
O17   V3    S    
O2    V1    S    
C31   C33   A    
C46   O30   S    
C26   F2    S    
C9    C11   A    
C15   C19   A    
O30   H24   S    
C10   C12   A    
C45   C53   S    
O4    C2    A    
C12   H4    S    
C43   F5    S    
C25   F1    S    
O3    V1    S    
C47   C49   S    
O25   H19   S    
C43   C51   S    
C53   F9    S    
C10   C18   A    
C41   O21   S    
C44   C52   S    
C28   C30   A    
O3    C1    A    
O28   H22   S    
C11   H3    S    
C35   C37   A    
O32   H26   S    
C14   C16   A    
C5    C13   A    
C24   C26   A    
O7    V1    S    
C1    O8    A    
C8    C40   A    
O8    V2    S    
O23   H17   S    
C47   H13   S    
C37   F11   S    
C28   F18   S    
O5    V1    S    
C21   C23   A    
C19   C27   A    
C22   C24   A    
C20   C28   A    
O15   C59   A    
O14   V4    S    
C56   F8    S    
O13   V3    S    
C46   O24   S    
C35   H7    S    
C7    C39   A    
O9    V2    S    
O15   V3    S    
O21   H15   S    
C45   O29   S    
O10   V1    S    
C42   C50   S    
C30   F14   S    
C42   F4    S    
C1    C52   S    
O27   H21   S    
C31   C35   A    
O16   V4    S    
C48   C56   S    
C32   C36   A    
C44   F6    S    
C20   C22   A    
C47   C55   S    
C13   C15   A    
