data_str_m9_o1_o16_f0_sra.sym.68
_audit_creation_date              2012-12-11T15:47:08-0500
_audit_creation_method            fapswitch 2.2
_symmetry_space_group_name_H-M    P1
_symmetry_Int_Tables_number       1
_space_group_crystal_system       triclinic
_cell_length_a                    20.136563
_cell_length_b                    7.249849
_cell_length_c                    13.525692
_cell_angle_alpha                 90.132873
_cell_angle_beta                  102.848103
_cell_angle_gamma                 90.081748
_cell_volume                      1925.12932

loop_
_atom_site_label
_atom_site_type_symbol
_atom_type_description
_atom_site_fract_x
_atom_site_fract_y
_atom_site_fract_z
_atom_type_partial_charge
O1    O     O_R   0.449560 0.506810 0.599700 -0.535838
O2    O     O_R   0.550440 0.006810 0.400300 -0.535179
O3    O     O_R   0.587960 0.180060 0.595760 -0.547175
O4    O     O_R   0.412040 0.680060 0.404240 -0.543999
C1    C     C_R   0.615046 0.344520 0.616494 0.758942
C2    C     C_R   0.384966 0.844064 0.383117 0.758802
O5    O     O_R   0.452380 0.177430 0.611700 -0.541069
O6    O     O_R   0.547620 0.677430 0.388300 -0.540830
O7    O     O_R   0.413900 0.001890 0.416350 -0.539177
O8    O     O_R   0.586100 0.501890 0.583650 -0.540192
C3    C     C_R   0.436981 0.346009 0.638690 0.766015
C4    C     C_R   0.562995 0.845723 0.361273 0.766756
O9    O     O_3   0.487530 0.337490 0.435890 -0.379769
O10   O     O_3   0.512470 0.837490 0.564110 -0.382275
V1    V     V_3+5 0.502310 0.064660 0.511890 1.490659
V2    V     V_3+5 0.497690 0.564660 0.488110 1.495494
C5    C     C_R   0.608391 0.882599 0.104976 -0.214586
C6    C     C_R   0.391370 0.403347 0.893909 -0.211819
H1    H     H_    0.582638 0.906735 0.027134 0.159869
H2    H     H_    0.416905 0.436364 0.970897 0.160459
C7    C     C_R   0.600775 0.854050 0.280223 -0.044023
C8    C     C_R   0.399282 0.356007 0.719820 -0.043894
C9    C     C_R   0.930937 0.850548 0.321318 -0.016413
C10   C     C_R   0.069116 0.341197 0.678903 -0.027706
C11   C     C_R   0.892311 0.835209 0.394633 -0.195110
C12   C     C_R   0.107888 0.329384 0.605559 -0.202866
C13   C     C_R   0.821589 0.833074 0.368091 -0.133102
C14   C     C_R   0.178600 0.333433 0.632015 -0.138268
C15   C     C_R   0.785773 0.845961 0.265712 0.073180
C16   C     C_R   0.214306 0.349109 0.734348 0.079100
C17   C     C_R   0.824485 0.858375 0.189931 0.035631
C18   C     C_R   0.175512 0.363427 0.809951 0.035725
C19   C     C_R   0.712926 0.849322 0.236592 0.062089
C20   C     C_R   0.287133 0.354595 0.763478 0.059860
C21   C     C_R   0.679958 0.863876 0.132095 0.122152
C22   C     C_R   0.319977 0.379338 0.867459 0.125430
C23   C     C_R   0.719434 0.865730 0.057421 -0.009750
C24   C     C_R   0.280511 0.385495 0.942102 -0.012913
C25   C     C_R   0.790301 0.867655 0.087311 -0.276377
C26   C     C_R   0.209643 0.380918 0.912308 -0.281220
C27   C     C_R   0.671677 0.841348 0.308609 -0.243487
C28   C     C_R   0.328489 0.337994 0.691945 -0.246513
C29   C     C_R   0.568358 0.877136 0.177304 -0.047441
C30   C     C_R   0.431438 0.391877 0.821787 -0.055151
C31   C     C_R   0.897013 0.860081 0.217730 -0.083997
C32   C     C_R   0.102984 0.358572 0.782289 -0.088683
H3    H     H_    0.692868 0.826405 0.388548 0.101643
H4    H     H_    0.307412 0.311790 0.612802 0.101864
H5    H     H_    0.796917 0.822006 0.430647 0.146218
H6    H     H_    0.203384 0.325837 0.569415 0.138818
H7    H     H_    0.917203 0.826451 0.474272 0.141969
H8    H     H_    0.083112 0.317108 0.525982 0.133595
H9    H     H_    0.818795 0.872945 0.028193 0.088057
H10   H     H_    0.181128 0.388289 0.971349 0.101837
C33   C     C_R   0.227099 0.006619 0.194099 -0.086791
C34   C     C_R   0.775162 0.511802 0.799674 -0.107522
H11   H     H_    0.211989 0.126623 0.146928 0.132576
H12   H     H_    0.792734 0.637983 0.840084 0.110470
C35   C     C_R   0.292467 0.004235 0.256939 -0.070303
C36   C     C_R   0.710322 0.511167 0.735370 -0.074074
C37   C     C_R   0.315555 0.849405 0.316444 -0.088705
C38   C     C_R   0.684300 0.350411 0.683088 -0.071870
C39   C     C_R   0.271229 0.698979 0.314005 -0.153195
C40   C     C_R   0.724967 0.191814 0.694581 -0.159696
H13   H     H_    0.288088 0.581527 0.362503 0.152908
H14   H     H_    0.705611 0.067094 0.653680 0.142728
C41   C     C_R   0.204250 0.701832 0.254439 -0.008369
C42   C     C_R   0.790206 0.189467 0.758428 -0.003686
C43   C     C_R   0.182089 0.856355 0.190765 -0.112245
C44   C     C_R   0.816347 0.352470 0.813132 -0.101837
O11   O     O_R   0.913920 0.203370 0.916260 -0.557977
O12   O     O_R   0.086080 0.703370 0.083740 -0.560081
O13   O     O_R   0.047620 0.535540 0.888290 -0.534588
O14   O     O_R   0.952380 0.035540 0.111710 -0.531757
C45   C     C_R   0.063480 0.368044 0.861650 0.776499
C46   C     C_R   0.936557 0.868318 0.138406 0.761008
O15   O     O_R   0.912040 0.532780 0.904220 -0.535143
O16   O     O_R   0.087960 0.032780 0.095780 -0.523871
O17   O     O_R   0.949550 0.708160 0.099720 -0.548086
O18   O     O_R   0.050450 0.208160 0.900280 -0.536672
C47   C     C_R   0.885481 0.363399 0.882447 0.738701
C48   C     C_R   0.113884 0.864297 0.119081 0.722013
O19   O     O_3   0.012480 0.375300 0.064060 -0.386398
O20   O     O_3   0.987520 0.875300 0.935940 -0.384321
V3    V     V_3+5 0.997690 0.648180 0.988110 1.453601
V4    V     V_3+5 0.002310 0.148180 0.011890 1.481111
C49   C     C_2   0.493321 0.896384 0.140598 0.377104
H15   H     H_    0.471841 0.914622 0.060179 0.065219
O21   O     O_2   0.454504 0.892172 0.198116 -0.534353
C50   C     C_2   0.506269 0.418158 0.857715 0.383025
H16   H     H_    0.527295 0.452836 0.936636 0.072813
O22   O     O_2   0.545454 0.400682 0.801327 -0.530451
H17   H     H_    0.325460 0.122511 0.257546 0.167137
H18   H     H_    0.680182 0.636055 0.727818 0.150517
C51   C     C_2   0.157838 0.547780 0.266238 0.361256
H19   H     H_    0.103106 0.566323 0.248169 0.104664
O23   O     O_2   0.180417 0.398274 0.298998 -0.545087
C52   C     C_2   0.828046 0.013093 0.763908 0.384846
H20   H     H_    0.852745 0.953683 0.835971 0.060410
O24   O     O_2   0.829202 0.926915 0.686615 -0.530000
C53   C     C_2   0.690057 0.862244 0.946408 0.356908
H21   H     H_    0.716332 0.932695 0.895441 0.028557
O25   O     O_2   0.639448 0.771114 0.910133 -0.527226
C54   C     C_2   0.309905 0.392091 0.053104 0.344768
H22   H     H_    0.282733 0.463883 0.102564 0.063453
O26   O     O_2   0.361642 0.307740 0.091285 -0.528539
C55   C     C_2   0.006303 0.855766 0.358042 0.301538
H23   H     H_    0.028719 0.825770 0.437034 0.064195
O27   O     O_2   0.044246 0.897030 0.302753 -0.547974
C56   C     C_2   0.993699 0.334688 0.642250 0.352680
H24   H     H_    0.971835 0.318202 0.561758 0.059499
O28   O     O_2   0.954976 0.347805 0.699576 -0.534732

loop_
_geom_bond_atom_site_label_1
_geom_bond_atom_site_label_2
_ccdc_geom_bond_type
C24   C26   A    
C49   H15   S    
C39   H13   S    
C53   H21   S    
C9    C31   A    
C33   C35   A    
C13   C15   A    
C55   O27   D    
C51   H19   S    
O1    C3    A    
C46   O17   A    
O2    C4    A    
C2    O7    A    
C54   O26   D    
O12   V3    S    
C30   C50   S    
C25   H9    S    
C12   C14   A    
O5    C3    A    
O14   C46   A    
C31   C46   S    
C40   C42   A    
C2    C37   S    
C21   C23   A    
C10   C12   A    
C12   H8    S    
C15   C19   A    
C36   C38   A    
C37   C39   A    
C44   C47   S    
C56   H24   S    
C32   C45   S    
C24   C54   S    
C43   C48   S    
C23   C53   S    
C19   C21   A    
C7    C29   A    
C14   H6    S    
C8    C30   A    
C17   C25   A    
C20   C28   A    
C38   C40   A    
C55   H23   S    
C45   O18   A    
C20   C22   A    
O16   V4    S    
O5    V1    S    
O15   V3    S    
O6    V2    S    
C41   C51   S    
O13   C45   A    
C54   H22   S    
C42   C52   S    
C23   C25   A    
C39   C41   A    
C35   C37   A    
C16   C20   A    
C10   C56   S    
O20   V3    S    
O4    C2    A    
C4    C7    S    
C34   C36   A    
C26   H10   S    
C41   C43   A    
C40   H14   S    
O4    V2    S    
C11   H7    S    
C6    C30   A    
O11   V4    S    
O16   C48   A    
C50   O22   D    
O15   C47   A    
O6    C4    A    
C9    C55   S    
O19   V4    S    
C27   H3    S    
O1    V2    S    
C28   H4    S    
O14   V4    S    
O2    V1    S    
O13   V3    S    
C33   C43   A    
C7    C27   A    
C42   C44   A    
C19   C27   A    
C34   C44   A    
C33   H11   S    
O17   V3    S    
O3    V1    S    
C18   C32   A    
O3    C1    A    
C51   O23   D    
C11   C13   A    
C35   H17   S    
C3    C8    S    
C52   O24   D    
C29   C49   S    
C22   C24   A    
O7    V1    S    
C10   C32   A    
C1    O8    A    
C15   C17   A    
O8    V2    S    
C16   C18   A    
C50   H16   S    
C8    C28   A    
C14   C16   A    
C5    H1    S    
C34   H12   S    
C1    C38   S    
C6    H2    S    
C18   C26   A    
C56   O28   D    
O18   V4    S    
C9    C11   A    
C53   O25   D    
C52   H20   S    
C17   C31   A    
O9    V2    S    
C5    C29   A    
C49   O21   D    
O10   V1    S    
C5    C21   A    
C6    C22   A    
O12   C48   A    
C13   H5    S    
O11   C47   A    
C36   H18   S    
