data_str_m2_o4_o9_f0_pcu.sym.106
_audit_creation_date              2013-03-05T16:34:12-0500
_audit_creation_method            fapswitch 2.2
_symmetry_space_group_name_H-M    P1
_symmetry_Int_Tables_number       1
_space_group_crystal_system       triclinic
_cell_length_a                    10.825383
_cell_length_b                    10.816475
_cell_length_c                    9.539135
_cell_angle_alpha                 90.165694
_cell_angle_beta                  90.520932
_cell_angle_gamma                 90.348391
_cell_volume                      1116.88935281

loop_
_atom_site_label
_atom_site_type_symbol
_atom_site_description
_atom_site_fract_x
_atom_site_fract_y
_atom_site_fract_z
_atom_type_partial_charge
O1    O     O_R   0.500000 0.319640 0.618810 -0.583745
O2    O     O_R   0.500010 0.319680 0.381230 -0.590627
C1    C     C_R   0.501665 0.262518 0.499874 0.802816
O3    O     O_R   0.319640 0.499990 0.618790 -0.599078
O4    O     O_R   0.319650 0.500030 0.381210 -0.573915
C2    C     C_R   0.262296 0.502558 0.499266 0.781918
Cu1   Cu    Cu3+1 0.499990 0.499980 0.640670 0.973439
Cu2   Cu    Cu3+1 0.500010 0.500020 0.359330 0.956902
O5    O     O_R   0.499990 0.680320 0.618770 -0.568312
O6    O     O_R   0.500000 0.680360 0.381190 -0.591295
O7    O     O_R   0.680350 0.499970 0.618790 -0.548026
O8    O     O_R   0.680360 0.500010 0.381210 -0.591514
C3    C     C_R   0.501282 0.737834 0.500280 0.817663
C4    C     C_R   0.737595 0.496872 0.500704 0.844425
H1    H     H_    0.281827 0.751748 0.937084 0.115552
C5    C     C_R   0.250371 0.770014 0.158773 -0.118944
H2    H     H_    0.307798 0.851768 0.170221 0.119230
C6    C     C_R   0.191644 0.719811 0.275732 -0.070076
H3    H     H_    0.204318 0.763183 0.377408 0.102675
C7    C     C_R   0.118766 0.612462 0.261475 0.127322
C8    C     C_R   0.103452 0.557794 0.128681 -0.150156
H4    H     H_    0.048401 0.474545 0.116243 0.132030
C9    C     C_R   0.161784 0.608606 0.012063 -0.101559
H5    H     H_    0.151042 0.565357 0.910184 0.129169
C10   C     C_R   0.235715 0.714065 0.027289 -0.082712
C11   C     C_R   0.932228 0.550049 0.388725 -0.204009
H6    H     H_    0.879788 0.591038 0.303409 0.156808
C12   C     C_R   0.871425 0.495397 0.501706 -0.016350
C13   C     C_R   0.939404 0.441237 0.612339 0.092054
C14   C     C_R   0.067357 0.448809 0.610611 -0.200259
H7    H     H_    0.119687 0.406561 0.695176 0.138599
C15   C     C_R   0.128280 0.504358 0.498088 -0.078424
C16   C     C_R   0.060222 0.554931 0.385086 0.000978
C17   C     C_R   0.875955 0.429282 0.859953 -0.176868
H8    H     H_    0.915098 0.520751 0.874941 0.190120
C18   C     C_R   0.819824 0.370622 0.972881 -0.145496
H9    H     H_    0.816582 0.416207 0.073950 0.152918
C19   C     C_R   0.766092 0.254327 0.955204 -0.153261
H10   H     H_    0.721052 0.209753 0.042604 0.155536
C20   C     C_R   0.771539 0.194510 0.825596 -0.160719
H11   H     H_    0.730637 0.103257 0.816129 0.186103
C21   C     C_R   0.830644 0.250261 0.710473 0.341059
C22   C     C_R   0.880684 0.371631 0.727978 -0.009791
C23   C     C_R   0.486104 0.064883 0.623260 0.143204
C24   C     C_R   0.511225 0.129712 0.500808 -0.079285
C25   C     C_R   0.551473 0.064858 0.382234 -0.133198
H12   H     H_    0.579066 0.113149 0.288125 0.155412
C26   C     C_R   0.552051 0.935965 0.383261 -0.182645
H13   H     H_    0.581428 0.887700 0.290457 0.154808
C27   C     C_R   0.510822 0.871372 0.501847 -0.087877
C28   C     C_R   0.485779 0.937591 0.624107 0.174513
C29   C     C_3   0.374750 0.932998 0.716254 -0.498329
C30   C     C_3   0.375772 0.073073 0.715176 -0.478940
H14   H     H_    0.292382 0.891375 0.663350 0.204463
H15   H     H_    0.396378 0.895949 0.821651 0.185950
H16   H     H_    0.294182 0.113658 0.660969 0.207393
H17   H     H_    0.398849 0.114637 0.819012 0.198294
C31   C     C_R   0.587930 0.564342 0.074804 0.187134
N1    N     N_R   0.500790 0.500930 0.147930 -0.175938
C32   C     C_R   0.420523 0.427186 0.073398 -0.052803
H18   H     H_    0.354288 0.370453 0.128458 0.141765
C33   C     C_R   0.420281 0.427400 0.924439 -0.085963
H19   H     H_    0.353826 0.370855 0.867710 0.135341
N2    N     N_R   0.500790 0.500890 0.852020 -0.206645
C34   C     C_R   0.589591 0.563105 0.927285 0.210363
C35   C     C_3   0.616520 0.698946 0.922729 0.125630
C36   C     C_3   0.610970 0.699709 0.082329 -0.558876
H20   H     H_    0.542438 0.753792 0.872562 0.108560
H21   H     H_    0.698118 0.721420 0.139697 0.235536
H22   H     H_    0.528642 0.749876 0.120389 0.178395
N3    N     N_R   0.841359 0.180899 0.581167 0.097254
O9    O     O_R   0.905022 0.222397 0.476127 -0.381478
O10   O     O_R   0.796270 0.069302 0.572189 -0.349036
N4    N     N_R   0.739071 0.725719 0.865253 0.141660
O11   O     O_R   0.831021 0.760364 0.945384 -0.375275
O12   O     O_R   0.752438 0.730366 0.730092 -0.341563

loop_
_geom_bond_atom_site_label_1
_geom_bond_atom_site_label_2
_geom_bond_distance
_ccdc_geom_bond_type
C2    C15   1.450965 S    
C35   H20   1.106589 S    
Cu1   Cu2   2.683743 S    
C24   C25   1.403347 A    
C23   C24   1.392225 A    
Cu1   O7    1.965477 S    
C11   H6    1.085312 S    
C33   H19   1.081719 S    
N4    O12   1.299807 A    
C12   C13   1.411794 A    
C19   C20   1.395640 A    
C17   H8    1.082507 S    
Cu2   N1    2.016721 S    
C19   H10   1.082641 S    
O7    C4    1.291024 A    
H1    C10   1.078474 S    
C35   N4    1.467633 S    
C32   C33   1.420921 A    
C6    H3    1.083407 S    
O5    C3    1.291903 A    
C33   N2    1.369078 A    
C11   C16   1.387028 A    
C23   C30   1.490990 S    
C5    H2    1.082536 S    
C9    H5    1.082348 S    
C6    C7    1.405400 A    
C29   H15   1.106991 S    
C20   C21   1.411009 A    
C35   C36   1.524186 S    
N1    C32   1.368867 A    
C8    H4    1.082426 S    
C13   C22   1.483068 S    
O3    Cu1   1.961594 S    
C29   H14   1.112685 S    
C25   C26   1.394283 A    
N4    O11   1.302114 A    
C28   C29   1.496156 S    
O3    C2    1.293679 A    
N3    O10   1.301581 A    
C30   H17   1.112289 S    
C31   N1    1.361530 A    
C1    C24   1.440892 S    
C32   H18   1.081625 S    
C36   H21   1.109873 S    
C13   C14   1.387317 A    
C31   C34   1.407505 A    
C14   H7    1.085099 S    
Cu2   O8    1.961595 S    
C27   C28   1.396408 A    
C7    C16   1.480637 S    
C23   C28   1.376883 A    
C5    C6    1.398576 A    
C20   H11   1.082539 S    
O8    C4    1.293056 A    
C8    C9    1.396570 A    
C21   C22   1.425899 A    
C29   C30   1.515155 S    
C30   H16   1.112619 S    
C5    C10   1.398337 A    
Cu1   O5    1.962397 S    
C25   H12   1.083355 S    
C18   H9    1.082559 S    
O1    Cu1   1.961158 S    
O2    Cu2   1.962400 S    
C17   C22   1.404776 A    
O6    C3    1.293339 A    
O4    Cu2   1.965477 S    
C11   C12   1.398595 A    
C36   H22   1.109588 S    
C4    C12   1.448891 S    
C15   C16   1.413460 A    
C18   C19   1.391834 A    
O2    C1    1.291241 A    
N3    O9    1.300699 A    
N2    C34   1.367201 A    
C14   C15   1.399958 A    
O4    C2    1.291197 A    
C26   H13   1.077894 S    
C26   C27   1.406027 A    
C21   N3    1.447787 S    
C17   C18   1.394063 A    
C9    C10   1.395940 A    
Cu1   N2    2.016032 S    
C3    C27   1.447494 S    
C31   C36   1.485204 S    
C7    C8    1.404427 A    
Cu2   O6    1.961158 S    
C34   C35   1.497051 S    
O1    C1    1.290628 A    
