data_str_m9_o4_o2_f0_sra.sym.17
_audit_creation_date              2012-12-11T17:07:26-0500
_audit_creation_method            fapswitch 2.2
_symmetry_space_group_name_H-M    P1
_symmetry_Int_Tables_number       1
_space_group_crystal_system       triclinic
_cell_length_a                    6.956316
_cell_length_b                    14.509705
_cell_length_c                    16.098034
_cell_angle_alpha                 89.99206
_cell_angle_beta                  89.898365
_cell_angle_gamma                 89.92971
_cell_volume                      1624.83666745

loop_
_atom_site_label
_atom_site_type_symbol
_atom_type_description
_atom_site_fract_x
_atom_site_fract_y
_atom_site_fract_z
_atom_type_partial_charge
O1    O     O_R   0.505720 0.583900 0.413310 -0.537733
O2    O     O_R   0.175940 0.594920 0.586080 -0.546998
O3    O     O_R   0.005640 0.416100 0.586690 -0.535208
C1    C     C_R   0.344470 0.617186 0.614558 0.718992
O4    O     O_R   0.176000 0.594930 0.413930 -0.544689
O5    O     O_R   0.005700 0.416110 0.413310 -0.540960
C2    C     C_R   0.344751 0.617208 0.385523 0.715421
O6    O     O_R   0.505660 0.583890 0.586690 -0.537312
O7    O     O_3   0.339200 0.441330 0.500000 -0.366269
V1    V     V_3+5 0.064350 0.510880 0.500000 1.398795
O8    O     O_R   0.675980 0.405080 0.413920 -0.540569
C3    C     C_R   0.845192 0.382703 0.385483 0.699483
O9    O     O_R   0.675920 0.405070 0.586070 -0.537875
C4    C     C_R   0.844707 0.383095 0.614451 0.694240
V2    V     V_3+5 0.564340 0.489120 0.500000 1.418116
O10   O     O_3   0.839360 0.558670 0.500000 -0.374955
C5    C     C_R   0.939433 0.441572 0.779626 -0.157186
C6    C     C_R   0.986392 0.473911 0.857972 -0.171752
C7    C     C_R   0.997849 0.413584 0.924310 -0.163450
C8    C     C_R   0.962125 0.318882 0.913761 0.348907
C9    C     C_R   0.916383 0.283443 0.833108 0.033779
C10   C     C_R   0.904576 0.346925 0.765213 0.026740
C11   C     C_R   0.878547 0.187849 0.818356 -0.171210
C12   C     C_R   0.826441 0.157874 0.737289 0.049366
C13   C     C_R   0.815059 0.221820 0.670550 0.000809
C14   C     C_R   0.854699 0.316138 0.684408 -0.140243
C15   C     C_R   0.787191 0.063925 0.720911 -0.190632
C16   C     C_R   0.738053 0.033878 0.641574 -0.215103
C17   C     C_R   0.727863 0.096537 0.575605 0.404983
C18   C     C_R   0.766636 0.189421 0.590278 -0.139866
H1    H     H_    0.929164 0.492183 0.730552 0.106308
H2    H     H_    0.012296 0.546644 0.867585 0.170277
H3    H     H_    0.032942 0.441210 0.984914 0.131437
H4    H     H_    0.794437 0.012390 0.769178 0.115288
H5    H     H_    0.708728 0.961440 0.631571 0.113256
H6    H     H_    0.759001 0.235649 0.537622 0.115730
C19   C     C_R   0.729192 0.249972 0.188133 0.094132
C20   C     C_R   0.881860 0.187184 0.181725 -0.162500
C21   C     C_R   0.032507 0.195811 0.239629 -0.122131
H7    H     H_    0.153940 0.149419 0.236862 0.121143
C22   C     C_R   0.021333 0.259856 0.305369 -0.155301
H8    H     H_    0.135536 0.261682 0.350823 0.127548
C23   C     C_R   0.858216 0.316444 0.315618 -0.103253
C24   C     C_R   0.716966 0.312232 0.253924 0.041565
C25   C     C_3   0.505216 0.299900 0.262109 -0.368210
C26   C     C_3   0.517724 0.233001 0.189530 0.188409
H9    H     H_    0.424827 0.364359 0.248184 0.191322
H10   H     H_    0.478161 0.160630 0.204722 0.075057
C27   C     C_R   0.505170 0.748211 0.689549 0.086901
C28   C     C_R   0.351539 0.686759 0.681782 -0.167399
C29   C     C_R   0.204909 0.691318 0.741843 -0.179313
H11   H     H_    0.085615 0.643840 0.738402 0.133587
C30   C     C_R   0.220117 0.749218 0.811849 0.331819
C31   C     C_R   0.378000 0.811174 0.819265 -0.189699
C32   C     C_R   0.517157 0.809692 0.756143 0.040430
C33   C     C_3   0.727366 0.791781 0.765238 -0.356857
C34   C     C_3   0.714305 0.726764 0.691974 -0.388373
H12   H     H_    0.758388 0.756036 0.824631 0.225970
H13   H     H_    0.743761 0.653729 0.708604 0.172405
H14   H     H_    0.791018 0.752336 0.635907 0.165997
C35   C     C_R   0.494113 0.754049 0.314017 0.090767
C36   C     C_R   0.351460 0.686382 0.318081 -0.173350
C37   C     C_R   0.209192 0.687546 0.256040 -0.172921
C38   C     C_R   0.222845 0.746784 0.186705 0.337442
C39   C     C_R   0.376157 0.812047 0.181261 -0.191003
C40   C     C_R   0.504432 0.815973 0.248231 0.052691
C41   C     C_3   0.718936 0.814466 0.248802 -0.375582
C42   C     C_3   0.707230 0.746636 0.320701 -0.379242
H15   H     H_    0.780900 0.882178 0.266713 0.165560
H16   H     H_    0.778774 0.783917 0.191124 0.226766
H17   H     H_    0.761254 0.676704 0.304731 0.179679
O11   O     O_R   0.229140 0.916090 0.913340 -0.538729
O12   O     O_R   0.558860 0.905090 0.086080 -0.536462
O13   O     O_R   0.729100 0.083920 0.086690 -0.551880
C43   C     C_R   0.389482 0.881174 0.113339 0.673778
O14   O     O_R   0.558860 0.905090 0.913930 -0.537697
O15   O     O_R   0.729100 0.083920 0.913310 -0.541431
C44   C     C_R   0.389838 0.880957 0.886810 0.684787
O16   O     O_R   0.229140 0.916080 0.086720 -0.541699
O17   O     O_3   0.395570 0.058660 0.000020 -0.375230
V3    V     V_3+5 0.670450 0.989140 0.000000 1.440130
O18   O     O_R   0.058810 0.094980 0.913910 -0.522111
C45   C     C_R   0.889721 0.118282 0.886417 0.805593
O19   O     O_R   0.058810 0.094980 0.086060 -0.526253
C46   C     C_R   0.889923 0.116546 0.115214 0.747565
V4    V     V_3+5 0.170450 0.010950 0.999970 1.460715
O20   O     O_3   0.895460 0.941370 0.999990 -0.368429
O21   O     O_3   0.681131 0.069283 0.496067 -0.652799
H18   H     H_    0.658297 0.001813 0.495940 0.278414
H19   H     H_    0.466208 0.265890 0.321627 0.136269
O22   O     O_3   0.427461 0.268320 0.118557 -0.625368
H20   H     H_    0.448892 0.222255 0.074023 0.317441
O23   O     O_3   0.086603 0.737159 0.874200 -0.661793
H21   H     H_    0.144414 0.755787 0.927597 0.280832
H22   H     H_    0.817095 0.853265 0.752341 0.167825
H23   H     H_    0.094662 0.637051 0.257699 0.140769
O24   O     O_3   0.091656 0.733435 0.123754 -0.651574
H24   H     H_    0.147663 0.755719 0.071072 0.281147
H25   H     H_    0.761927 0.775376 0.380122 0.164311
O25   O     O_3   0.968330 0.261619 0.982134 -0.655831
H26   H     H_    0.004300 0.297467 0.032201 0.293734

loop_
_geom_bond_atom_site_label_1
_geom_bond_atom_site_label_2
_ccdc_geom_bond_type
C33   H22   S    
C32   C33   S    
O23   H21   S    
C22   C23   A    
C22   H8    S    
C7    C8    A    
C12   C15   A    
C1    O6    A    
O24   H24   S    
C21   C22   A    
C30   C31   A    
C36   C37   A    
C11   C45   S    
C16   C17   A    
C19   C20   A    
O19   V4    S    
C3    C23   S    
O5    C3    A    
C20   C21   A    
C34   H13   S    
O15   C45   A    
V2    O10   S    
C27   C34   S    
C33   C34   S    
C6    C7    A    
C17   O21   S    
O11   C44   A    
O8    V2    S    
C35   C40   A    
C16   H5    S    
O17   V4    S    
C11   C12   A    
O1    V2    S    
O7    V1    S    
O21   H18   S    
C40   C41   S    
O9    C4    A    
O12   C43   A    
O12   V3    S    
C28   C29   A    
C25   H9    S    
C15   H4    S    
C26   H10   S    
C20   C46   S    
C30   O23   S    
C41   C42   S    
C12   C13   A    
C7    H3    S    
C21   H7    S    
O4    C2    A    
V4    O20   S    
C34   H14   S    
C26   O22   S    
C13   C14   A    
C27   C32   A    
C37   H23   S    
O18   C45   A    
C4    C14   S    
C29   H11   S    
C1    C28   S    
C41   H15   S    
O2    C1    A    
C23   C24   A    
C2    C36   S    
C17   C18   A    
C8    O25   S    
O15   V3    S    
C5    C6    A    
O19   C46   A    
C25   H19   S    
V3    O20   S    
O3    C4    A    
C38   O24   S    
C39   C40   A    
O6    V2    S    
C9    C11   A    
C5    H1    S    
C6    H2    S    
O13   V3    S    
O2    V1    S    
O22   H20   S    
C24   C25   S    
C13   C18   A    
C31   C32   A    
O1    C2    A    
O14   C44   A    
O17   V3    S    
O14   V3    S    
O5    V1    S    
O11   V4    S    
O8    C3    A    
C5    C10   A    
C39   C43   S    
C18   H6    S    
C41   H16   S    
C38   C39   A    
C19   C24   A    
O9    V2    S    
O7    V2    S    
C42   H25   S    
O4    V1    S    
O3    V1    S    
O18   V4    S    
C35   C42   S    
C42   H17   S    
O25   H26   S    
C33   H12   S    
O13   C46   A    
C35   C36   A    
C37   C38   A    
C25   C26   S    
C8    C9    A    
C27   C28   A    
C10   C14   A    
C15   C16   A    
V1    O10   S    
C29   C30   A    
C19   C26   S    
C9    C10   A    
C43   O16   A    
O16   V4    S    
C31   C44   S    
