data_str_m4_o4_o24_f0_acs.sym.205
_audit_creation_date              2013-03-05T15:51:59-0500
_audit_creation_method            fapswitch 2.2
_symmetry_space_group_name_H-M    P1
_symmetry_Int_Tables_number       1
_space_group_crystal_system       triclinic
_cell_length_a                    18.854148
_cell_length_b                    10.977647
_cell_length_c                    18.777861
_cell_angle_alpha                 90.006316
_cell_angle_beta                  91.414253
_cell_angle_gamma                 90.350662
_cell_volume                      3885.27559524

loop_
_atom_site_label
_atom_site_type_symbol
_atom_site_description
_atom_site_fract_x
_atom_site_fract_y
_atom_site_fract_z
_atom_type_partial_charge
O1    O     O_R   0.214300 0.709080 0.827500 -0.526822
O2    O     O_R   0.785700 0.709080 0.172500 -0.522119
O3    O     O_R   0.714300 0.209080 0.827500 -0.530851
O4    O     O_R   0.285700 0.209080 0.172500 -0.519594
O5    O     O_R   0.236190 0.958390 0.823150 -0.502935
O6    O     O_R   0.763810 0.958390 0.176850 -0.505071
O7    O     O_R   0.736190 0.458390 0.823150 -0.499004
O8    O     O_R   0.263810 0.458390 0.176850 -0.503367
C1    C     C_R   0.273757 0.039685 0.854881 0.543942
C2    C     C_R   0.726312 0.039404 0.145089 0.540342
C3    C     C_R   0.786979 0.506196 0.861524 0.543992
C4    C     C_R   0.226569 0.540195 0.145451 0.549479
O9    O     O_R   0.332090 0.075280 0.831290 -0.528359
O10   O     O_R   0.667910 0.075280 0.168710 -0.530162
O11   O     O_R   0.832090 0.575280 0.831290 -0.519553
O12   O     O_R   0.167910 0.575280 0.168710 -0.525089
O13   O     O_R   0.446280 0.918040 0.826620 -0.504205
O14   O     O_R   0.553720 0.918040 0.173380 -0.491113
O15   O     O_R   0.946280 0.418040 0.826620 -0.515620
O16   O     O_R   0.053720 0.418040 0.173380 -0.496629
C5    C     C_R   0.471935 0.821953 0.854604 0.544976
C6    C     C_R   0.560597 0.817231 0.137715 0.560204
C7    C     C_R   0.970682 0.321753 0.855469 0.539076
C8    C     C_R   0.029979 0.321291 0.144223 0.553550
O17   O     O_R   0.457080 0.716270 0.831760 -0.519305
O18   O     O_R   0.542920 0.716270 0.168240 -0.516122
O19   O     O_R   0.957080 0.216270 0.831760 -0.518470
O20   O     O_R   0.042920 0.216270 0.168240 -0.521279
O21   O     O_R   0.320980 0.624440 0.823040 -0.498378
O22   O     O_R   0.679020 0.624440 0.176960 -0.507526
O23   O     O_R   0.820980 0.124440 0.823040 -0.498296
O24   O     O_R   0.179020 0.124440 0.176960 -0.493208
C9    C     C_R   0.260863 0.635948 0.851552 0.539520
C10   C     C_R   0.739653 0.634589 0.149153 0.554052
C11   C     C_R   0.760642 0.135051 0.851223 0.535011
C12   C     C_R   0.239258 0.135178 0.148676 0.560221
O25   O     O_R   0.213880 0.710510 0.665560 -0.478604
O26   O     O_R   0.786120 0.710510 0.334440 -0.458620
O27   O     O_R   0.713880 0.210510 0.665560 -0.478302
O28   O     O_R   0.286120 0.210510 0.334440 -0.459433
O29   O     O_R   0.235800 0.959720 0.673040 -0.504085
O30   O     O_R   0.764200 0.959720 0.326960 -0.530022
O31   O     O_R   0.735800 0.459720 0.673040 -0.500618
O32   O     O_R   0.264200 0.459720 0.326960 -0.531484
C13   C     C_R   0.270736 0.048282 0.646858 0.545124
C14   C     C_R   0.727999 0.043067 0.355313 0.546606
C15   C     C_R   0.770738 0.548279 0.646857 0.552149
C16   C     C_R   0.228003 0.543080 0.355307 0.546211
O33   O     O_R   0.331670 0.076720 0.669350 -0.520891
O34   O     O_R   0.668330 0.076720 0.330650 -0.513406
O35   O     O_R   0.831670 0.576720 0.669350 -0.517633
O36   O     O_R   0.168330 0.576720 0.330650 -0.514074
O37   O     O_R   0.445900 0.919370 0.676500 -0.499339
O38   O     O_R   0.554100 0.919370 0.323500 -0.475569
O39   O     O_R   0.945900 0.419370 0.676500 -0.498297
O40   O     O_R   0.054100 0.419370 0.323500 -0.480711
C17   C     C_R   0.470437 0.823441 0.647437 0.548049
C18   C     C_R   0.533293 0.823626 0.354764 0.574930
C19   C     C_R   0.970430 0.323441 0.647433 0.549100
C20   C     C_R   0.033283 0.323628 0.354757 0.566704
O41   O     O_R   0.456660 0.717710 0.669820 -0.518595
O42   O     O_R   0.543340 0.717710 0.330180 -0.532691
O43   O     O_R   0.956660 0.217710 0.669820 -0.517623
O44   O     O_R   0.043340 0.217710 0.330180 -0.537353
O45   O     O_R   0.320590 0.625770 0.672930 -0.516570
O46   O     O_R   0.679410 0.625770 0.327070 -0.502278
O47   O     O_R   0.820590 0.125770 0.672930 -0.514994
O48   O     O_R   0.179410 0.125770 0.327070 -0.502660
C21   C     C_R   0.258366 0.634935 0.644913 0.540387
C22   C     C_R   0.725623 0.689999 0.363129 0.572408
C23   C     C_R   0.758364 0.134931 0.644915 0.541638
C24   C     C_R   0.225620 0.190008 0.363139 0.570636
Cr1   Cr    Cr6+3 0.229640 0.835880 0.747370 1.059229
Cr2   Cr    Cr6+3 0.770360 0.835880 0.252630 1.028226
Cr3   Cr    Cr6+3 0.729640 0.335880 0.747370 1.057817
Cr4   Cr    Cr6+3 0.270360 0.335880 0.252630 1.036601
Cr5   Cr    Cr6+3 0.387390 0.989720 0.750850 1.037598
Cr6   Cr    Cr6+3 0.612610 0.989720 0.249150 1.043399
Cr7   Cr    Cr6+3 0.887390 0.489720 0.750850 1.035313
Cr8   Cr    Cr6+3 0.112610 0.489720 0.249150 1.043757
Cr9   Cr    Cr6+3 0.385770 0.677220 0.749340 1.023632
Cr10  Cr    Cr6+3 0.614230 0.677220 0.250660 1.017406
Cr11  Cr    Cr6+3 0.885770 0.177220 0.749340 1.020820
Cr12  Cr    Cr6+3 0.114230 0.177220 0.250660 1.021540
O49   O     O_3   0.334270 0.834280 0.749190 -0.259365
O50   O     O_3   0.665730 0.834280 0.250810 -0.309591
O51   O     O_3   0.834270 0.334280 0.749190 -0.272963
O52   O     O_3   0.165730 0.334280 0.250810 -0.291969
C25   C     C_3   0.484090 0.912734 0.030069 -0.110407
C26   C     C_3   0.534305 0.937153 0.967627 -0.124305
C27   C     C_3   0.973961 0.429528 0.027899 -0.129155
C28   C     C_3   0.032507 0.426702 0.971591 -0.130787
C29   C     C_3   0.449734 0.805276 0.988758 -0.103888
C30   C     C_3   0.589544 0.848173 0.001044 -0.138456
C31   C     C_3   0.931379 0.331090 0.985892 -0.106161
C32   C     C_3   0.071090 0.324754 0.013743 -0.104740
H1    H     H_    0.391769 0.788853 0.982368 0.122069
H2    H     H_    0.647583 0.863286 0.007657 0.118761
H3    H     H_    0.873635 0.332530 0.972802 0.112570
H4    H     H_    0.128803 0.322476 0.027060 0.120051
H5    H     H_    0.455326 0.982821 0.060378 0.123420
H6    H     H_    0.543510 0.027483 0.943323 0.109562
H7    H     H_    0.954880 0.512405 0.054473 0.110556
H8    H     H_    0.056105 0.507068 0.945670 0.110510
C33   C     C_3   0.500537 0.829284 0.927533 0.051820
C34   C     C_3   0.538631 0.823852 0.062134 0.050482
C35   C     C_3   0.990664 0.328197 0.930932 0.052959
C36   C     C_3   0.011645 0.327406 0.068525 0.055466
C37   C     C_3   0.554838 0.740598 0.959569 -0.124892
C38   C     C_3   0.504338 0.716372 0.021479 -0.103434
C39   C     C_3   0.028670 0.226293 0.971946 -0.115796
C40   C     C_3   0.969855 0.229040 0.027607 -0.115680
H9    H     H_    0.583082 0.671776 0.928003 0.128486
H10   H     H_    0.491301 0.625864 0.044038 0.118681
H11   H     H_    0.050645 0.144157 0.946767 0.122769
H12   H     H_    0.944646 0.148921 0.052619 0.123350
C41   C     C_R   0.241489 0.576763 0.072881 0.019767
C42   C     C_R   0.771449 0.543596 0.933447 0.019108
C43   C     C_R   0.740989 0.073956 0.072015 0.015826
C44   C     C_R   0.259675 0.074467 0.927912 0.019421
C45   C     C_R   0.305946 0.554218 0.040144 0.007553
C46   C     C_R   0.703921 0.534353 0.962179 0.009675
C47   C     C_R   0.804526 0.046176 0.038805 -0.001146
C48   C     C_R   0.195041 0.051281 0.960333 -0.002652
C49   C     C_R   0.311563 0.564504 0.966717 0.021111
C50   C     C_R   0.694123 0.554801 0.034104 0.013464
C51   C     C_R   0.810253 0.056456 0.965232 0.023717
C52   C     C_R   0.189030 0.061840 0.033783 0.020423
C53   C     C_R   0.188306 0.619611 0.956802 -0.180009
C54   C     C_R   0.818315 0.603615 0.049110 -0.173529
C55   C     C_R   0.687414 0.114549 0.955802 -0.180645
C56   C     C_R   0.313231 0.114539 0.044440 -0.175080
C57   C     C_R   0.183693 0.615982 0.030064 -0.170442
C58   C     C_R   0.827763 0.585741 0.976944 -0.178616
C59   C     C_R   0.683378 0.113790 0.029232 -0.175159
C60   C     C_R   0.318102 0.111098 0.971130 -0.167492
C61   C     C_3   0.352462 0.445128 0.043776 -0.270178
C62   C     C_3   0.652798 0.430916 0.959781 -0.272523
C63   C     C_3   0.846581 0.931790 0.041812 -0.270476
C64   C     C_3   0.150012 0.939458 0.956963 -0.271146
C65   C     C_3   0.358670 0.455757 0.963625 -0.277490
C66   C     C_3   0.643036 0.450803 0.038852 -0.275545
C67   C     C_3   0.853257 0.942678 0.961870 -0.275708
C68   C     C_3   0.142763 0.951031 0.036828 -0.276150
C69   C     C_R   0.251925 0.591789 0.923710 0.016756
C70   C     C_R   0.751735 0.583916 0.079228 0.017965
C71   C     C_R   0.750976 0.087239 0.922592 0.016230
C72   C     C_R   0.248665 0.089333 0.076987 0.017876
H13   H     H_    0.142244 0.649295 0.926073 0.131992
H14   H     H_    0.862958 0.636501 0.081133 0.137928
H15   H     H_    0.641400 0.144005 0.924980 0.133260
H16   H     H_    0.359881 0.141487 0.075567 0.135352
H17   H     H_    0.132561 0.636112 0.052222 0.145736
H18   H     H_    0.880158 0.599640 0.955837 0.140214
H19   H     H_    0.632654 0.135965 0.051632 0.146285
H20   H     H_    0.369642 0.129613 0.949117 0.144254
H21   H     H_    0.814096 0.852350 0.057835 0.170690
H22   H     H_    0.180864 0.858954 0.941052 0.174322
H23   H     H_    0.323424 0.362250 0.060488 0.170549
H24   H     H_    0.679794 0.345379 0.946829 0.164625
H25   H     H_    0.403130 0.463403 0.073425 0.132324
H26   H     H_    0.604578 0.451037 0.926754 0.135302
H27   H     H_    0.897844 0.943132 0.071594 0.130571
H28   H     H_    0.099477 0.952876 0.926452 0.128906
H29   H     H_    0.413079 0.480404 0.946930 0.143667
H30   H     H_    0.588820 0.481284 0.051801 0.135886
H31   H     H_    0.908480 0.961536 0.945354 0.142259
H32   H     H_    0.087957 0.973518 0.052746 0.141516
H33   H     H_    0.333689 0.378443 0.933845 0.143763
H34   H     H_    0.663913 0.375136 0.072529 0.148521
H35   H     H_    0.825660 0.868219 0.931794 0.150694
H36   H     H_    0.167958 0.875343 0.067367 0.146942
C73   C     C_R   0.516799 0.831910 0.429571 0.054293
C74   C     C_R   0.502629 0.828646 0.577996 0.013753
C75   C     C_R   0.016765 0.331915 0.429556 0.056418
C76   C     C_R   0.002594 0.328637 0.577979 0.012759
C77   C     C_R   0.510902 0.723095 0.466315 0.001525
C78   C     C_R   0.504746 0.720771 0.538569 0.022884
C79   C     C_R   0.010814 0.223098 0.466287 0.002593
C80   C     C_R   0.004648 0.220769 0.538539 0.022371
C81   C     C_R   0.518563 0.938809 0.543623 -0.154429
C82   C     C_R   0.526753 0.940188 0.469398 -0.095573
C83   C     C_R   0.018562 0.438791 0.543615 -0.155009
C84   C     C_R   0.026752 0.440178 0.469391 -0.094901
C85   C     C_3   0.460514 0.620270 0.453613 -0.267990
C86   C     C_3   0.452096 0.618321 0.533366 -0.248428
C87   C     C_3   0.960353 0.120382 0.453570 -0.268415
C88   C     C_3   0.951917 0.118446 0.533321 -0.248250
H37   H     H_    0.520072 0.023555 0.572908 0.182529
H38   H     H_    0.538562 0.025604 0.443364 0.178969
H39   H     H_    0.020101 0.523529 0.572907 0.182603
H40   H     H_    0.038592 0.525588 0.443364 0.179138
H41   H     H_    0.986968 0.037949 0.432961 0.167721
H42   H     H_    0.898799 0.149081 0.549487 0.168903
H43   H     H_    0.487184 0.537891 0.433002 0.167889
H44   H     H_    0.398956 0.648824 0.549541 0.169013
H45   H     H_    0.411750 0.648394 0.423570 0.159815
H46   H     H_    0.471871 0.533751 0.559274 0.192879
H47   H     H_    0.911614 0.148610 0.423519 0.158859
H48   H     H_    0.971616 0.033825 0.559229 0.192906
C89   C     C_R   0.240341 0.567278 0.429523 0.018702
C90   C     C_R   0.747611 0.610255 0.582591 0.024686
C91   C     C_R   0.740324 0.067225 0.429537 0.018039
C92   C     C_R   0.247601 0.110281 0.582602 0.025029
C93   C     C_R   0.185689 0.624072 0.464411 -0.029962
C94   C     C_R   0.797335 0.683304 0.547996 -0.023439
C95   C     C_R   0.685675 0.124023 0.464423 -0.030063
C96   C     C_R   0.297320 0.183347 0.548011 -0.023489
C97   C     C_R   0.184680 0.629950 0.536682 0.041025
C98   C     C_R   0.789129 0.708199 0.477044 -0.002061
C99   C     C_R   0.684652 0.129884 0.536696 0.041039
C100  C     C_R   0.289116 0.208237 0.477058 -0.002160
C101  C     C_R   0.289754 0.504478 0.543947 -0.175323
C102  C     C_R   0.673478 0.613017 0.475639 -0.149273
C103  C     C_R   0.789730 0.004420 0.543963 -0.174949
C104  C     C_R   0.173460 0.113065 0.475652 -0.148984
C105  C     C_R   0.290293 0.500337 0.469717 -0.169826
C106  C     C_R   0.682484 0.584145 0.547936 -0.158192
C107  C     C_R   0.790266 0.000264 0.469732 -0.169946
C108  C     C_R   0.182469 0.084189 0.547951 -0.158286
C109  C     C_3   0.155911 0.747474 0.452197 -0.242945
C110  C     C_3   0.876297 0.668657 0.542405 -0.209812
C111  C     C_3   0.655911 0.247427 0.452203 -0.242929
C112  C     C_3   0.376285 0.168732 0.542429 -0.209483
C113  C     C_3   0.154662 0.757548 0.532659 0.114376
C114  C     C_3   0.866816 0.691702 0.463526 0.101474
C115  C     C_3   0.654636 0.257481 0.532667 0.114367
C116  C     C_3   0.366807 0.191768 0.463547 0.101141
C117  C     C_R   0.241254 0.580748 0.577122 0.004562
C118  C     C_R   0.729352 0.668397 0.438839 0.041993
C119  C     C_R   0.741237 0.080708 0.577135 0.004636
C120  C     C_R   0.229343 0.168420 0.438850 0.042274
H49   H     H_    0.331811 0.460215 0.574354 0.134662
H50   H     H_    0.625716 0.583325 0.447555 0.152920
H51   H     H_    0.831792 0.960170 0.574371 0.135062
H52   H     H_    0.125691 0.083394 0.447571 0.153099
H53   H     H_    0.330593 0.448430 0.443783 0.128658
H54   H     H_    0.641755 0.532278 0.574298 0.161450
H55   H     H_    0.830565 0.948350 0.443801 0.128648
H56   H     H_    0.141738 0.032327 0.574315 0.161356
H57   H     H_    0.103037 0.742756 0.424778 0.187921
H58   H     H_    0.894864 0.575353 0.555451 0.189518
H59   H     H_    0.603054 0.242724 0.424752 0.188185
H60   H     H_    0.394870 0.075438 0.555479 0.189930
H61   H     H_    0.194506 0.810976 0.427683 0.142647
H62   H     H_    0.905833 0.742761 0.570750 0.162442
H63   H     H_    0.694525 0.310923 0.427717 0.142403
H64   H     H_    0.405803 0.242854 0.570777 0.162105
H65   H     H_    0.190845 0.829167 0.554524 0.136167
H66   H     H_    0.894491 0.775093 0.445086 0.125339
H67   H     H_    0.690811 0.329094 0.554544 0.135693
H68   H     H_    0.394476 0.275165 0.445110 0.125387
N1    N     N_R   0.082750 0.764306 0.560064 0.061417
O53   O     O_R   0.070979 0.730707 0.625152 -0.345476
O54   O     O_R   0.034523 0.827131 0.525934 -0.432804
N2    N     N_R   0.881786 0.583641 0.420581 0.096660
O55   O     O_R   0.853094 0.478413 0.434750 -0.361830
O56   O     O_R   0.922300 0.593787 0.365800 -0.333843
N3    N     N_R   0.582720 0.264227 0.560064 0.061444
O57   O     O_R   0.570987 0.230885 0.625203 -0.345407
O58   O     O_R   0.534412 0.326721 0.525824 -0.432868
N4    N     N_R   0.381794 0.083707 0.420608 0.096802
O59   O     O_R   0.353109 0.978473 0.434774 -0.360772
O60   O     O_R   0.422315 0.093864 0.365834 -0.331062

loop_
_geom_bond_atom_site_label_1
_geom_bond_atom_site_label_2
_geom_bond_distance
_ccdc_geom_bond_type
C18   O42   1.267977 A    
C76   C83   1.405199 A    
Cr11  O51   1.983902 S    
O4    C12   1.263683 A    
O47   Cr11  1.947359 S    
C26   C30   1.553341 S    
O39   C19   1.280271 A    
O20   Cr12  2.071517 S    
C10   C70   1.449678 S    
C63   C67   1.514182 S    
C39   C40   1.542936 S    
C38   H10   1.108731 S    
C28   C32   1.545936 S    
C41   C57   1.407759 A    
C43   C47   1.399368 A    
O26   C22   1.291961 A    
C50   C70   1.396526 A    
O1    C9    1.268207 A    
O27   Cr3   2.077105 S    
C102  H50   1.080828 S    
C81   C82   1.406176 A    
O45   C21   1.278368 A    
O7    C3    1.292803 A    
C76   C80   1.397831 A    
C93   C109  1.485241 S    
O5    C1    1.274541 A    
C99   C119  1.404772 A    
C68   H32   1.111934 S    
C113  N1    1.464338 S    
C57   H17   1.083389 S    
O24   C12   1.270445 A    
C86   H44   1.107826 S    
C55   C59   1.382852 A    
C31   C40   1.541731 S    
C63   H27   1.110966 S    
C42   C46   1.398110 A    
N1    O53   1.300619 A    
C100  C120  1.389198 A    
C110  C114  1.509111 S    
C111  C115  1.515741 S    
C56   C60   1.382450 A    
O47   C23   1.278386 A    
C54   C70   1.405047 A    
C88   H48   1.110379 S    
C77   C85   1.486345 S    
C107  H55   1.078280 S    
C97   C117  1.404742 A    
O21   C9    1.272400 A    
O8    Cr4   1.960255 S    
Cr8   O52   1.983712 S    
O23   Cr11  1.954003 S    
C9    C69   1.452512 S    
O30   C14   1.269613 A    
C45   C61   1.489253 S    
O32   Cr4   1.954308 S    
C1    O9    1.255931 A    
O44   Cr12  2.078299 S    
C5    O17   1.264269 A    
C2    C43   1.456327 S    
C80   C88   1.497081 S    
Cr5   O49   1.973133 S    
C64   H22   1.106091 S    
C3    O11   1.279402 A    
C12   C72   1.452460 S    
O11   Cr7   2.083333 S    
O16   C8    1.268891 A    
C63   H21   1.108499 S    
C111  H59   1.111553 S    
N2    O56   1.300702 A    
C25   C34   1.534222 S    
C54   H14   1.082414 S    
C84   H40   1.081996 S    
C55   C71   1.398639 A    
C8    C36   1.456226 S    
C93   C97   1.359243 A    
C15   O35   1.251915 A    
O3    Cr3   2.074189 S    
Cr4   O52   1.972135 S    
C53   C69   1.399782 A    
C42   C58   1.399851 A    
C115  N3    1.464339 S    
C29   C38   1.539844 S    
C66   H34   1.112040 S    
C29   C33   1.536245 S    
O2    C10   1.259790 A    
C114  N2    1.467069 S    
O42   Cr10  2.078299 S    
C88   H42   1.107852 S    
O18   Cr10  2.071517 S    
C99   C115  1.515136 S    
C74   C78   1.397830 A    
C87   H41   1.111545 S    
O17   Cr9   2.068038 S    
C95   C99   1.359276 A    
C98   C114  1.504751 S    
C53   H13   1.082660 S    
C54   C58   1.385227 A    
C81   H37   1.080503 S    
C91   C107  1.403629 A    
C85   H43   1.111541 S    
C101  H49   1.083215 S    
C103  C107  1.394923 A    
O34   Cr6   2.065416 S    
C74   C81   1.405214 A    
Cr7   O51   1.973133 S    
C96   C100  1.365356 A    
C116  N4    1.467064 S    
C14   O34   1.263334 A    
O6    Cr2   1.960255 S    
O31   Cr3   1.953533 S    
C4    O12   1.261451 A    
O24   Cr12  1.958342 S    
C32   C39   1.543428 S    
O9    Cr5   2.083333 S    
C17   C74   1.452791 S    
O30   Cr2   1.954308 S    
O22   C10   1.272734 A    
O48   Cr12  1.951809 S    
C104  C108  1.400651 A    
C112  H64   1.111271 S    
C6    C34   1.470517 S    
C103  C119  1.400949 A    
C103  H51   1.083205 S    
C46   C62   1.484894 S    
O37   C17   1.280279 A    
C62   H26   1.111125 S    
C19   C76   1.452775 S    
C102  C106  1.400606 A    
C59   H19   1.083278 S    
C49   C65   1.494267 S    
C27   C28   1.547712 S    
N1    O54   1.300831 A    
C61   H23   1.108328 S    
C95   C111  1.485179 S    
C112  H60   1.109915 S    
O7    Cr3   1.959002 S    
O26   Cr2   2.079737 S    
C111  H63   1.112526 S    
O27   C23   1.251635 A    
Cr10  O50   1.973546 S    
C91   C95   1.385874 A    
C16   C89   1.431787 S    
C50   C66   1.493274 S    
C32   C36   1.540288 S    
C43   C59   1.406876 A    
O40   C20   1.268725 A    
C109  C113  1.515707 S    
O43   Cr11  2.074866 S    
O48   C24   1.295505 A    
C44   C60   1.408614 A    
C56   C72   1.401662 A    
C46   C50   1.386143 A    
O15   C7    1.271290 A    
C83   C84   1.406152 A    
C22   C118  1.441417 S    
C62   H24   1.100840 S    
C45   C49   1.390028 A    
C21   C117  1.433732 S    
C112  C116  1.509134 S    
C66   H30   1.110137 S    
C101  C105  1.394905 A    
O25   C21   1.251646 A    
C94   C98   1.365335 A    
C28   C35   1.527837 S    
C47   C51   1.392944 A    
C13   O33   1.251927 A    
O8    C4    1.278476 A    
C7    C35   1.458841 S    
N2    O55   1.302811 A    
O13   Cr5   1.951746 S    
C98   C118  1.389163 A    
O16   Cr8   1.946132 S    
C51   C67   1.495437 S    
O29   C13   1.276333 A    
Cr2   O50   1.972135 S    
O15   Cr7   1.951746 S    
O32   C16   1.269621 A    
C52   C68   1.494460 S    
Cr1   O49   1.972350 S    
O2    Cr2   2.076341 S    
C31   C35   1.540406 S    
C89   C93   1.385916 A    
C39   H11   1.105593 S    
Cr3   O51   1.972350 S    
O14   Cr6   1.946132 S    
C92   C108  1.403448 A    
C73   C82   1.413341 A    
O28   C24   1.292066 A    
C7    O19   1.263109 A    
C61   C65   1.516939 S    
C2    O10   1.262406 A    
O37   Cr5   1.961827 S    
C56   H16   1.083577 S    
C47   C63   1.489512 S    
C53   C57   1.381146 A    
C19   O43   1.262181 A    
O38   Cr6   1.956626 S    
C18   C73   1.449179 S    
C96   C112  1.504630 S    
C106  H54   1.082781 S    
O3    C11   1.269582 A    
N3    O57   1.300581 A    
C102  C118  1.408918 A    
C105  H53   1.078284 S    
O39   Cr7   1.961827 S    
C40   H12   1.107259 S    
C101  C117  1.400945 A    
C92   C96   1.401762 A    
C8    O20   1.261024 A    
C115  H67   1.109743 S    
O38   C18   1.268735 A    
C90   C94   1.401761 A    
C114  H66   1.110539 S    
C33   C37   1.529620 S    
C14   C91   1.431815 S    
C100  C116  1.504751 S    
C113  H65   1.109780 S    
O22   Cr10  1.958342 S    
C24   C120  1.441413 S    
C25   H5    1.109157 S    
C65   H33   1.112158 S    
O14   C6    1.302257 A    
C35   C39   1.529967 S    
C27   C36   1.525357 S    
O21   Cr9   1.954003 S    
O5    Cr1   1.959002 S    
C52   C72   1.401501 A    
C48   C64   1.488699 S    
C64   C68   1.514663 S    
C26   C33   1.530129 S    
C27   H7    1.104047 S    
N3    O58   1.300942 A    
C83   H39   1.080496 S    
O6    C2    1.278076 A    
C75   C79   1.384792 A    
C17   O41   1.262191 A    
N4    O59   1.302816 A    
C37   H9    1.107312 S    
C64   H28   1.110214 S    
C82   H38   1.081990 S    
C68   H36   1.111900 S    
C30   C37   1.547415 S    
O25   Cr1   2.077105 S    
O40   Cr8   1.956626 S    
C48   C52   1.391538 A    
C20   O44   1.267985 A    
O1    Cr1   2.074189 S    
C65   H29   1.111892 S    
C90   C106  1.403425 A    
C89   C105  1.403617 A    
O19   Cr11  2.068038 S    
C25   C26   1.547505 S    
C1    C44   1.454644 S    
C67   H35   1.112645 S    
C87   C88   1.510006 S    
C97   C113  1.515146 S    
C23   C119  1.433770 S    
C26   H6    1.106167 S    
C37   C38   1.542842 S    
C109  H57   1.111581 S    
C61   H25   1.110944 S    
C86   H46   1.110388 S    
C110  H62   1.111270 S    
Cr6   O50   1.983712 S    
C85   C86   1.510022 S    
C58   H18   1.083393 S    
Cr12  O52   1.973546 S    
C109  H61   1.112547 S    
C67   H31   1.111954 S    
C94   C110  1.504638 S    
C13   C92   1.444704 S    
C104  H52   1.080852 S    
C32   H4    1.110903 S    
O23   C11   1.272456 A    
C62   C66   1.516598 S    
C104  C120  1.408945 A    
C29   H1    1.110131 S    
O33   Cr5   2.071509 S    
C55   H15   1.082077 S    
C31   H3    1.110390 S    
C11   C71   1.454561 S    
O10   Cr6   2.077722 S    
C60   H20   1.083459 S    
C25   C29   1.542251 S    
C110  H58   1.109902 S    
O35   Cr7   2.071509 S    
O4    Cr4   2.076341 S    
C30   C34   1.536209 S    
C44   C48   1.397617 A    
C28   H8    1.104172 S    
O29   Cr1   1.953533 S    
C79   C80   1.364812 A    
C78   C86   1.497102 S    
C36   C40   1.528633 S    
C16   O36   1.263327 A    
N4    O60   1.300691 A    
C79   C87   1.486344 S    
O46   C22   1.295395 A    
C15   C90   1.444709 S    
C27   C31   1.546752 S    
C34   C38   1.535923 S    
C77   C78   1.364806 A    
C6    O18   1.293460 A    
O28   Cr4   2.079737 S    
C87   H47   1.112124 S    
C85   H45   1.112119 S    
C20   C75   1.449126 S    
C30   H2    1.109712 S    
O45   Cr9   1.947359 S    
C108  H56   1.082785 S    
O41   Cr9   2.074866 S    
C41   C45   1.398781 A    
C4    C41   1.454283 S    
O12   Cr8   2.077722 S    
C73   C77   1.384798 A    
O36   Cr8   2.065416 S    
C3    C42   1.448849 S    
O31   C15   1.276324 A    
C49   C69   1.401995 A    
Cr9   O49   1.983902 S    
C5    C33   1.461408 S    
O46   Cr10  1.951809 S    
C51   C71   1.401736 A    
C75   C84   1.413343 A    
C116  H68   1.110540 S    
O13   C5    1.271430 A    
