data_str_m2_o13_o15_f0_pcu.sym.172
_audit_creation_date              2012-12-10T17:10:25-0500
_audit_creation_method            fapswitch 2.2
_symmetry_space_group_name_H-M    P1
_symmetry_Int_Tables_number       1
_space_group_crystal_system       triclinic
_cell_length_a                    10.820779
_cell_length_b                    12.986028
_cell_length_c                    11.639839
_cell_angle_alpha                 101.096974
_cell_angle_beta                  96.327437
_cell_angle_gamma                 90.743642
_cell_volume                      1594.27847574

loop_
_atom_site_label
_atom_site_type_symbol
_atom_type_description
_atom_site_fract_x
_atom_site_fract_y
_atom_site_fract_z
_atom_type_partial_charge
C1    C     C_R   0.499994 0.298528 0.477353 0.840159
C2    C     C_R   0.500006 0.701472 0.522647 0.840160
C3    C     C_R   0.496501 0.815559 0.536975 -0.140910
C4    C     C_R   0.503502 0.184441 0.463027 -0.140918
C5    C     C_R   0.548580 0.012602 0.355245 -0.305154
C6    C     C_R   0.451427 0.987398 0.644761 -0.305144
C7    C     C_R   0.538551 0.121054 0.359615 0.500162
C8    C     C_R   0.461458 0.878947 0.640389 0.500133
C9    C     C_R   0.473453 0.139169 0.556646 -0.332878
C10   C     C_R   0.526549 0.860830 0.443358 -0.332879
C11   C     C_R   0.480957 0.031772 0.550568 0.111460
C12   C     C_R   0.519047 0.968228 0.449437 0.111474
C13   C     C_R   0.385297 0.398397 0.013767 -0.434984
C14   C     C_R   0.614677 0.601620 0.986236 -0.434982
C15   C     C_R   0.394617 0.407489 0.139085 0.707947
C16   C     C_R   0.605374 0.592518 0.860918 0.707970
C17   C     C_R   0.549476 0.544052 0.161000 -0.051804
C18   C     C_R   0.450521 0.455949 0.839000 -0.051798
C19   C     C_R   0.541414 0.536839 0.037109 0.036358
C20   C     C_R   0.458578 0.463164 0.962891 0.036369
C21   C     C_R   0.262107 0.511892 0.499069 0.804236
C22   C     C_R   0.737891 0.488103 0.500929 0.804230
C23   C     C_R   0.142283 0.608521 0.706669 -0.173213
C24   C     C_R   0.857710 0.391466 0.293318 -0.173203
C25   C     C_R   0.102019 0.612843 0.817570 0.045440
C26   C     C_R   0.897993 0.387122 0.182420 0.045414
C27   C     C_R   0.993570 0.556669 0.825589 -0.208782
C28   C     C_R   0.006459 0.443273 0.174400 -0.208714
C29   C     C_R   0.918705 0.508385 0.723604 -0.103003
C30   C     C_R   0.081309 0.491576 0.276384 -0.102944
C31   C     C_R   0.953672 0.511088 0.610516 0.078159
C32   C     C_R   0.046328 0.488895 0.389475 0.078137
C33   C     C_R   0.074817 0.548343 0.603910 0.050012
C34   C     C_R   0.925178 0.451645 0.396079 0.050012
C35   C     C_R   0.873980 0.475283 0.504376 -0.219950
C36   C     C_R   0.126017 0.524705 0.495616 -0.219951
Cu1   Cu    Cu3+1 0.509250 0.507730 0.615930 0.985479
Cu2   Cu    Cu3+1 0.490750 0.492270 0.384070 0.985474
H1    H     H_    0.035786 0.446060 0.089138 0.120002
H2    H     H_    0.964271 0.553845 0.910846 0.119996
H3    H     H_    0.321359 0.342504 0.954703 0.138305
H4    H     H_    0.678577 0.657540 0.045307 0.138301
H5    H     H_    0.227045 0.651759 0.701234 0.176607
H6    H     H_    0.772940 0.348237 0.298751 0.176631
H7    H     H_    0.836758 0.465320 0.735328 0.154981
H8    H     H_    0.163267 0.534630 0.264654 0.155004
H9    H     H_    0.555367 0.812131 0.364852 0.165800
H10   H     H_    0.444636 0.187868 0.635153 0.165806
H11   H     H_    0.580979 0.962920 0.279438 0.135545
H12   H     H_    0.419032 0.037077 0.720573 0.135562
H13   H     H_    0.386107 0.399244 0.781356 0.146531
H14   H     H_    0.613889 0.600759 0.218643 0.146526
N1    N     N_R   0.523180 0.519350 0.790130 -0.222668
N2    N     N_R   0.476820 0.480650 0.209870 -0.222668
O1    O     O_R   0.506570 0.354460 0.582000 -0.622941
O2    O     O_R   0.493430 0.645540 0.418000 -0.622941
O3    O     O_R   0.490940 0.341410 0.386200 -0.492192
O4    O     O_R   0.509060 0.658590 0.613800 -0.492176
O5    O     O_R   0.327470 0.506520 0.597900 -0.587788
O6    O     O_R   0.672530 0.493480 0.402100 -0.587794
O7    O     O_R   0.311840 0.493460 0.402100 -0.559961
O8    O     O_R   0.688160 0.506540 0.597900 -0.559965
C37   C     C_R   0.173792 0.674971 0.924690 0.105917
C38   C     C_R   0.206064 0.781092 0.929867 -0.120649
C39   C     C_R   0.270757 0.840728 0.032260 -0.159438
C40   C     C_R   0.305859 0.794567 0.129250 -0.121910
C41   C     C_R   0.274940 0.689005 0.124636 -0.127204
C42   C     C_R   0.208484 0.629476 0.023145 -0.153559
H15   H     H_    0.179494 0.818084 0.855421 0.139552
H16   H     H_    0.293991 0.922733 0.036306 0.111099
H17   H     H_    0.356694 0.840663 0.208015 0.133303
H18   H     H_    0.302656 0.653446 0.199784 0.137203
H19   H     H_    0.185718 0.547704 0.020614 0.117759
C43   C     C_R   0.826224 0.324995 0.075298 0.105942
C44   C     C_R   0.791515 0.370501 0.976856 -0.153571
C45   C     C_R   0.725079 0.310973 0.875356 -0.127221
C46   C     C_R   0.694199 0.205400 0.870715 -0.121896
C47   C     C_R   0.729318 0.159229 0.967690 -0.159500
C48   C     C_R   0.793989 0.218864 0.070095 -0.120671
H20   H     H_    0.814260 0.452281 0.979406 0.117759
H21   H     H_    0.697349 0.346538 0.800218 0.137205
H22   H     H_    0.643380 0.159303 0.791941 0.133316
H23   H     H_    0.706112 0.077214 0.963619 0.111099
H24   H     H_    0.820572 0.181864 0.144530 0.139542
O9    O     O_3   0.425934 0.831973 0.729916 -0.572320
C49   C     C_3   0.480720 0.885643 0.841462 -0.318859
H25   H     H_    0.423731 0.952673 0.875823 0.140064
H26   H     H_    0.578508 0.912968 0.840141 0.145651
H27   H     H_    0.482591 0.830790 0.903714 0.201584
O10   O     O_3   0.574084 0.168036 0.270096 -0.572301
C50   C     C_3   0.519406 0.114319 0.158530 -0.319029
H28   H     H_    0.421632 0.086929 0.159789 0.145610
H29   H     H_    0.576481 0.047328 0.124227 0.140132
H30   H     H_    0.517528 0.169162 0.096266 0.201576
O11   O     O_3   0.676818 0.653183 0.804136 -0.537550
C51   C     C_3   0.753784 0.732012 0.880056 -0.359335
H31   H     H_    0.826941 0.697435 0.933979 0.157960
H32   H     H_    0.698817 0.787778 0.937079 0.140621
H33   H     H_    0.801544 0.777559 0.825448 0.199141
O12   O     O_3   0.323139 0.346851 0.195871 -0.537559
C52   C     C_3   0.246326 0.267909 0.119948 -0.359214
H34   H     H_    0.301400 0.212236 0.062925 0.140597
H35   H     H_    0.173066 0.302389 0.066030 0.157983
H36   H     H_    0.198689 0.222272 0.174553 0.199096

loop_
_geom_bond_atom_site_label_1
_geom_bond_atom_site_label_2
_ccdc_geom_bond_type
C52   H34   S    
C27   C29   A    
O11   C51   S    
C15   O12   S    
C13   H3    S    
Cu1   O8    S    
C21   C36   S    
C46   C47   A    
C22   C35   S    
C32   C36   A    
C24   C26   A    
C41   H18   S    
C22   O6    A    
C48   H24   S    
C49   H26   S    
C50   H29   S    
C39   H16   S    
C51   H33   S    
C33   C36   A    
C23   H5    S    
C34   C35   A    
C25   C37   S    
C16   N1    A    
C18   N1    A    
C17   C19   A    
C47   H23   S    
C19   C20   A    
C23   C33   A    
C51   H32   S    
C31   C33   A    
C44   H20   S    
C21   O7    A    
Cu1   O4    S    
C14   H4    S    
Cu2   O7    S    
Cu1   N1    S    
C40   C41   A    
C52   H35   S    
C5    H11   S    
C4    C7    A    
C17   H14   S    
C18   H13   S    
C43   C44   A    
C41   C42   A    
C15   N2    A    
C45   C46   A    
C5    C12   A    
C3    C8    A    
C6    C11   A    
C5    C7    A    
C47   C48   A    
C6    C8    A    
C28   H1    S    
C42   H19   S    
O9    C49   S    
C7    O10   S    
C8    O9    S    
C24   C34   A    
C29   H7    S    
C32   C34   A    
C44   C45   A    
Cu1   Cu2   S    
C1    O3    A    
C22   O8    A    
Cu2   O3    S    
C40   H17   S    
Cu2   N2    S    
C27   H2    S    
C51   H31   S    
C38   H15   S    
C6    H12   S    
C9    C11   A    
Cu1   O5    S    
C10   C12   A    
Cu2   O6    S    
C52   H36   S    
C43   C48   A    
C13   C15   A    
C24   H6    S    
C14   C16   A    
C50   H28   S    
C37   C42   A    
C16   O11   S    
C13   C20   A    
C49   H25   S    
C14   C19   A    
C30   H8    S    
C49   H27   S    
C45   H21   S    
C11   C12   A    
C2    O4    A    
C21   O5    A    
C25   C27   A    
C26   C28   A    
C1    C4    S    
C38   C39   A    
C28   C30   A    
C2    C3    S    
C1    O1    A    
C29   C31   A    
C3    C10   A    
C2    O2    A    
C50   H30   S    
C30   C32   A    
O10   C50   S    
C46   H22   S    
C31   C35   A    
O12   C52   S    
C26   C43   S    
C18   C20   A    
C23   C25   A    
C37   C38   A    
Cu1   O1    S    
Cu2   O2    S    
C9    H10   S    
C39   C40   A    
C10   H9    S    
C4    C9    A    
C17   N2    A    
