data_str_m3_o10_o18_f0_pcu.sym.35
_audit_creation_date              2012-12-10T16:52:39-0500
_audit_creation_method            fapswitch 2.2
_symmetry_space_group_name_H-M    P1
_symmetry_Int_Tables_number       1
_space_group_crystal_system       triclinic
_cell_length_a                    7.838045
_cell_length_b                    8.563851
_cell_length_c                    13.583669
_cell_angle_alpha                 93.419732
_cell_angle_beta                  92.326273
_cell_angle_gamma                 94.361256
_cell_volume                      906.59590132

loop_
_atom_site_label
_atom_site_type_symbol
_atom_type_description
_atom_site_fract_x
_atom_site_fract_y
_atom_site_fract_z
_atom_type_partial_charge
C1    C     C_R   0.045306 0.794775 0.497514 0.970480
C2    C     C_R   0.938252 0.488524 0.317114 0.867538
C3    C     C_R   0.089094 0.529550 0.789822 -0.127536
C4    C     C_R   0.909699 0.467414 0.210351 -0.121021
C5    C     C_R   0.065317 0.677799 0.945405 -0.224575
C6    C     C_R   0.933989 0.316967 0.055551 -0.231200
C7    C     C_R   0.009001 0.643881 0.846872 0.089505
C8    C     C_R   0.990836 0.353092 0.153875 0.091582
C9    C     C_R   0.215430 0.445636 0.833333 -0.015371
C10   C     C_R   0.781468 0.548678 0.166540 -0.011011
C11   C     C_R   0.298463 0.507173 0.922203 0.093331
C12   C     C_R   0.954671 0.205217 0.502382 0.953978
C13   C     C_R   0.698002 0.484223 0.078517 0.090900
C14   C     C_R   0.212386 0.614200 0.982178 0.106182
C15   C     C_R   0.784987 0.377621 0.018866 0.110971
C16   C     C_R   0.464404 0.468142 0.952684 0.066067
C17   C     C_R   0.531227 0.521073 0.048407 0.062593
C18   C     C_R   0.425588 0.601482 0.112867 -0.167430
C19   C     C_R   0.569785 0.386472 0.888633 -0.206758
C20   C     C_R   0.272753 0.654284 0.078661 -0.210921
C21   C     C_R   0.723528 0.335159 0.922845 -0.224049
C22   C     C_2   0.068806 0.958575 0.496019 -0.392696
C23   C     C_2   0.931133 0.041402 0.503697 -0.387892
C24   C     C_R   0.061605 0.511191 0.682898 0.889174
H1    H     H_    0.200584 0.725067 0.128255 0.140625
H2    H     H_    0.512846 0.626484 0.572893 0.190032
H3    H     H_    0.873525 0.773108 0.204000 0.170487
H4    H     H_    0.712283 0.708171 0.273761 0.207359
H5    H     H_    0.283444 0.287886 0.724850 0.207115
H6    H     H_    0.120642 0.222822 0.793447 0.176155
H7    H     H_    0.075221 0.195558 0.245029 0.176262
H8    H     H_    0.185196 0.206303 0.141958 0.179170
H9    H     H_    0.845732 0.820166 0.852384 0.174042
H10   H     H_    0.763510 0.648629 0.798149 0.203601
H11   H     H_    0.795915 0.264256 0.873445 0.145393
H12   H     H_    0.000641 0.760379 0.991463 0.140585
H13   H     H_    0.999088 0.234219 0.009865 0.142642
H14   H     H_    0.457946 0.624425 0.190466 0.172822
H15   H     H_    0.537457 0.362299 0.811163 0.172889
H16   H     H_    0.198370 0.010404 0.488698 0.178649
H17   H     H_    0.801563 0.989572 0.510997 0.180586
H18   H     H_    0.487158 0.373506 0.427116 0.192798
N1    N     N_2   0.440860 0.456490 0.474790 -0.173048
N2    N     N_2   0.559140 0.543510 0.525210 -0.176355
N3    N     N_3   0.755783 0.706540 0.202170 -0.476617
N4    N     N_3   0.239238 0.288117 0.796265 -0.471773
N5    N     N_3   0.128521 0.273872 0.196395 -0.427052
N6    N     N_3   0.873578 0.726138 0.804570 -0.440612
O1    O     O_R   0.891570 0.738930 0.506190 -0.608440
O2    O     O_R   0.108430 0.261070 0.493810 -0.613766
O3    O     O_R   0.174650 0.711050 0.490030 -0.625881
O4    O     O_R   0.825350 0.288950 0.509970 -0.625262
O5    O     O_R   0.909850 0.521900 0.644940 -0.601263
O6    O     O_R   0.090150 0.478100 0.355060 -0.590249
O7    O     O_R   0.192930 0.494020 0.628780 -0.626054
O8    O     O_R   0.807070 0.505980 0.371220 -0.625712
Zn1   Zn    Zn3+2 0.810990 0.518620 0.510790 0.927836
Zn2   Zn    Zn3+2 0.189010 0.481380 0.489210 0.931194

loop_
_geom_bond_atom_site_label_1
_geom_bond_atom_site_label_2
_ccdc_geom_bond_type
C2    C4    S    
N1    N2    D    
C3    C9    A    
C24   O5    A    
C9    C11   A    
C11   C16   A    
H5    N4    S    
C12   O2    A    
C23   H17   S    
C13   C17   A    
N2    Zn1   S    
C4    C8    A    
C22   H16   S    
C7    N6    S    
H3    N3    S    
C10   N3    S    
C17   C18   A    
C18   H14   S    
C6    H13   S    
H2    N2    S    
C9    N4    S    
O3    Zn2   S    
H7    N5    S    
C24   O7    A    
C1    O3    A    
C12   C23   S    
C5    C14   A    
C19   H15   S    
C16   C19   A    
C21   H11   S    
C6    C8    A    
C12   O4    A    
C3    C7    A    
C13   C15   A    
C2    O6    A    
H8    N5    S    
H4    N3    S    
C8    N5    S    
H10   N6    S    
C20   H1    S    
C4    C10   A    
O4    Zn1   S    
O2    Zn2   S    
C5    H12   S    
C14   C20   A    
C15   C21   A    
O1    Zn1   S    
O8    Zn1   S    
C18   C20   A    
O6    Zn2   S    
O7    Zn2   S    
C11   C14   A    
C5    C7    A    
H9    N6    S    
O5    Zn1   S    
C22   C23   D    
C1    C22   S    
C2    O8    A    
N1    Zn2   S    
C19   C21   A    
C6    C15   A    
C1    O1    A    
H6    N4    S    
H18   N1    S    
C3    C24   S    
C16   C17   A    
C10   C13   A    
