data_str_m2_o5_o29_f0_pcu.sym.66
_audit_creation_date              2013-03-05T16:36:15-0500
_audit_creation_method            fapswitch 2.2
_symmetry_space_group_name_H-M    P1
_symmetry_Int_Tables_number       1
_space_group_crystal_system       triclinic
_cell_length_a                    27.833715
_cell_length_b                    9.079896
_cell_length_c                    7.780262
_cell_angle_alpha                 90.038609
_cell_angle_beta                  89.999831
_cell_angle_gamma                 90.000075
_cell_volume                      1966.2836758

loop_
_atom_site_label
_atom_site_type_symbol
_atom_site_description
_atom_site_fract_x
_atom_site_fract_y
_atom_site_fract_z
_atom_type_partial_charge
O1    O     O_R   0.500000 0.288390 0.642760 -0.575227
O2    O     O_R   0.500000 0.711610 0.357240 -0.575227
O3    O     O_R   0.500000 0.711610 0.642760 -0.574872
O4    O     O_R   0.500000 0.288390 0.357240 -0.574872
C1    C     C_R   0.500000 0.220022 0.499965 0.853139
C2    C     C_R   0.500000 0.779978 0.500035 0.853139
O5    O     O_R   0.430260 0.500000 0.642770 -0.585703
O6    O     O_R   0.569740 0.500000 0.357230 -0.585705
O7    O     O_R   0.569740 0.500000 0.642770 -0.585705
O8    O     O_R   0.430260 0.500000 0.357230 -0.585703
C3    C     C_R   0.407180 0.500000 0.500000 0.796680
C4    C     C_R   0.592821 0.500000 0.500000 0.796680
Cu1   Cu    Cu3+1 0.500000 0.500000 0.669080 1.007980
Cu2   Cu    Cu3+1 0.500000 0.500000 0.330920 1.007980
C5    C     C_R   0.178019 0.370868 0.527377 0.536978
C6    C     C_R   0.821976 0.629125 0.472541 0.536999
C7    C     C_R   0.178019 0.629138 0.472628 0.536978
C8    C     C_R   0.821976 0.370874 0.527451 0.536999
O9    O     O_2   0.202888 0.245210 0.553317 -0.516437
O10   O     O_2   0.797105 0.754765 0.446494 -0.516399
O11   O     O_2   0.202888 0.754797 0.446689 -0.516437
O12   O     O_2   0.797105 0.245233 0.553498 -0.516399
N1    N     N_R   0.202053 0.500003 0.500003 -0.472569
N2    N     N_R   0.797944 0.499999 0.499996 -0.472608
C9    C     C_R   0.278653 0.491631 0.655517 -0.099510
C10   C     C_R   0.721349 0.507653 0.344410 -0.099586
C11   C     C_R   0.278653 0.508375 0.344487 -0.099512
C12   C     C_R   0.721349 0.492345 0.655585 -0.099587
C13   C     C_R   0.328753 0.491933 0.655744 -0.205926
C14   C     C_R   0.671249 0.507358 0.344185 -0.205837
C15   C     C_R   0.328753 0.508070 0.344258 -0.205926
C16   C     C_R   0.671249 0.492641 0.655812 -0.205838
C17   C     C_R   0.253513 0.500003 0.500002 0.360700
C18   C     C_R   0.746486 0.499999 0.499997 0.360918
C19   C     C_R   0.101923 0.500002 0.500001 -0.043338
C20   C     C_R   0.898072 0.500000 0.499996 -0.043334
C21   C     C_R   0.127580 0.368414 0.527650 -0.020661
C22   C     C_R   0.872415 0.631582 0.472281 -0.020677
C23   C     C_R   0.127580 0.631591 0.472354 -0.020660
C24   C     C_R   0.872415 0.368418 0.527711 -0.020677
C25   C     C_R   0.102534 0.237425 0.554658 -0.145228
C26   C     C_R   0.897461 0.762564 0.445211 -0.145236
C27   C     C_R   0.102534 0.762579 0.445345 -0.145229
C28   C     C_R   0.897461 0.237435 0.554780 -0.145237
C29   C     C_R   0.354269 0.500001 0.500001 -0.037822
C30   C     C_R   0.645732 0.500000 0.499999 -0.037818
H1    H     H_    0.347449 0.514425 0.222373 0.160683
H2    H     H_    0.652554 0.486861 0.777756 0.160652
H3    H     H_    0.347449 0.485577 0.777629 0.160683
H4    H     H_    0.652554 0.513138 0.222242 0.160652
H5    H     H_    0.259309 0.514649 0.223906 0.136722
H6    H     H_    0.740695 0.486632 0.776218 0.136593
H7    H     H_    0.259309 0.485358 0.776098 0.136722
H8    H     H_    0.740695 0.513366 0.223777 0.136593
C31   C     C_R   0.974434 0.365851 0.527803 0.045043
C32   C     C_R   0.025560 0.634153 0.472218 0.045042
C33   C     C_R   0.974434 0.634150 0.472191 0.045042
C34   C     C_R   0.025560 0.365850 0.527780 0.045042
C35   C     C_R   0.949213 0.500000 0.499997 0.067292
C36   C     C_R   0.050782 0.500002 0.499999 0.067293
C37   C     C_R   0.947320 0.235789 0.554840 -0.208224
C38   C     C_R   0.052675 0.764224 0.445263 -0.208219
C39   C     C_R   0.947320 0.764212 0.445152 -0.208224
C40   C     C_R   0.052675 0.235780 0.554737 -0.208219
H9    H     H_    0.963249 0.129609 0.576905 0.132471
H10   H     H_    0.036746 0.870410 0.423269 0.132447
H11   H     H_    0.963249 0.870391 0.423085 0.132471
H12   H     H_    0.036746 0.129594 0.576731 0.132447
C41   C     C_1   0.500000 0.065395 0.499951 -0.166720
C42   C     C_1   0.500000 0.934605 0.500049 -0.166720
N3    N     N_1   0.500000 0.500000 0.076820 -0.049778
N4    N     N_1   0.500000 0.500000 0.923180 -0.049778
H13   H     H_    0.121425 0.134707 0.576068 0.187076
H14   H     H_    0.878569 0.865276 0.423739 0.187084
H15   H     H_    0.121425 0.865298 0.423936 0.187076
H16   H     H_    0.878570 0.134723 0.576250 0.187085

loop_
_geom_bond_atom_site_label_1
_geom_bond_atom_site_label_2
_geom_bond_distance
_ccdc_geom_bond_type
C31   C35   1.422552 A    
Cu2   N3    1.976964 S    
C20   C35   1.423438 A    
C13   H3    1.083268 S    
C11   C17   1.399817 A    
O5    C3    1.283177 A    
C7    N1    1.366752 A    
O1    C1    1.272289 A    
C40   H12   1.075025 S    
C19   C21   1.408604 A    
C9    H7    1.083201 S    
C22   C26   1.394681 A    
C33   C35   1.422553 A    
C34   C36   1.422542 A    
O7    Cu1   1.951883 S    
C32   C33   1.423021 A    
C7    C23   1.404094 A    
C28   H16   1.083680 S    
C8    C24   1.404089 A    
C5    C21   1.404091 A    
C20   C24   1.408637 A    
C1    C41   1.403997 S    
C5    O9    1.349803 S    
C10   C18   1.399929 A    
N1    C17   1.432329 S    
C8    N2    1.366749 A    
O3    Cu1   1.932415 S    
C6    O10   1.349825 S    
O3    C2    1.272540 A    
C5    N1    1.366753 A    
C14   H4    1.083385 S    
C12   C18   1.399931 A    
C6    N2    1.366749 A    
C15   H1    1.083268 S    
Cu1   Cu2   2.630974 S    
C21   C25   1.394662 A    
C16   H2    1.083385 S    
O2    C2    1.272289 A    
C10   H8    1.083315 S    
C11   H5    1.083200 S    
C33   C39   1.417320 A    
C9    C13   1.394484 A    
C39   H11   1.075059 S    
C26   H14   1.083681 S    
C38   H10   1.075025 S    
C11   C15   1.394484 A    
C12   C16   1.394487 A    
C4    C30   1.472721 S    
O8    Cu2   1.951886 S    
C23   C27   1.394661 A    
C34   C40   1.417284 A    
C7    O11   1.349803 S    
C32   C36   1.422542 A    
C13   C29   1.406468 A    
C19   C36   1.423441 A    
C19   C23   1.408604 A    
O5    Cu1   1.951887 S    
O6    C4    1.283183 A    
C10   C14   1.394484 A    
C32   C38   1.417285 A    
C3    C29   1.472696 S    
O1    Cu1   1.932142 S    
C27   H15   1.083655 S    
C2    C42   1.403997 S    
O6    Cu2   1.951884 S    
C8    O12   1.349825 S    
C16   C30   1.406624 A    
C14   C30   1.406627 A    
O4    C1    1.272540 A    
Cu1   N4    1.976964 S    
C28   C37   1.387847 A    
C20   C22   1.408638 A    
N3    N4    1.195360 T    
C12   H6    1.083315 S    
C31   C37   1.417317 A    
O4    Cu2   1.932416 S    
C41   C42   1.187556 T    
O2    Cu2   1.932141 S    
O7    C4    1.283184 A    
N2    C18   1.432259 S    
O8    C3    1.283177 A    
C25   H13   1.083656 S    
C37   H9    1.075058 S    
C24   C28   1.394682 A    
C15   C29   1.406466 A    
C31   C34   1.423024 A    
C9    C17   1.399817 A    
C25   C40   1.387847 A    
C26   C39   1.387847 A    
C27   C38   1.387847 A    
C6    C22   1.404089 A    
