data_str_m9_o16_o22_f0_sra.sym.85
_audit_creation_date              2012-12-11T15:11:52-0500
_audit_creation_method            fapswitch 2.2
_symmetry_space_group_name_H-M    P1
_symmetry_Int_Tables_number       1
_space_group_crystal_system       triclinic
_cell_length_a                    20.172134
_cell_length_b                    7.101409
_cell_length_c                    13.56366
_cell_angle_alpha                 89.999545
_cell_angle_beta                  103.636817
_cell_angle_gamma                 90.00026
_cell_volume                      1888.22827354

loop_
_atom_site_label
_atom_site_type_symbol
_atom_type_description
_atom_site_fract_x
_atom_site_fract_y
_atom_site_fract_z
_atom_type_partial_charge
O1    O     O_R   0.449830 0.506740 0.599960 -0.536770
O2    O     O_R   0.550170 0.006740 0.400040 -0.536767
O3    O     O_R   0.588980 0.179860 0.596720 -0.542906
O4    O     O_R   0.411020 0.679860 0.403280 -0.542916
C1    C     C_R   0.615837 0.344208 0.620588 0.695488
C2    C     C_R   0.384167 0.844208 0.379400 0.695493
O5    O     O_R   0.452740 0.177340 0.612040 -0.532154
O6    O     O_R   0.547260 0.677340 0.387960 -0.532177
O7    O     O_R   0.412960 0.002070 0.415460 -0.544007
O8    O     O_R   0.587040 0.502070 0.584540 -0.544019
C3    C     C_R   0.437293 0.345521 0.639654 0.733813
C4    C     C_R   0.562706 0.845526 0.360345 0.733789
O9    O     O_3   0.487110 0.337570 0.435490 -0.372461
O10   O     O_3   0.512890 0.837570 0.564510 -0.372446
V1    V     V_3+5 0.502390 0.064650 0.511970 1.454173
V2    V     V_3+5 0.497610 0.564650 0.488030 1.454135
C5    C     C_R   0.607867 0.787132 0.107455 -0.128091
C6    C     C_R   0.392116 0.286890 0.892517 -0.128109
H1    H     H_    0.691562 0.751754 0.984433 0.132617
H2    H     H_    0.308420 0.251520 0.015533 0.132605
H3    H     H_    0.582810 0.748976 0.030273 0.164174
H4    H     H_    0.417164 0.248608 0.969683 0.164176
C7    C     C_R   0.600564 0.850176 0.280123 -0.074190
C8    C     C_R   0.399435 0.350146 0.719877 -0.074216
C9    C     C_R   0.927315 0.922963 0.311560 -0.154087
C10   C     C_R   0.072683 0.423069 0.688442 -0.154042
C11   C     C_R   0.890524 0.967414 0.382449 -0.115607
C12   C     C_R   0.109477 0.467498 0.617552 -0.115661
C13   C     C_R   0.819846 0.950622 0.358636 -0.152776
C14   C     C_R   0.180154 0.450659 0.641361 -0.152871
C15   C     C_R   0.784008 0.887718 0.261757 0.089284
C16   C     C_R   0.215989 0.387725 0.738237 0.089296
C17   C     C_R   0.822034 0.851561 0.187247 0.070573
C18   C     C_R   0.177960 0.351535 0.812740 0.070589
C19   C     C_R   0.711637 0.864334 0.235765 0.075971
C20   C     C_R   0.288360 0.364315 0.764230 0.075968
C21   C     C_R   0.678662 0.814550 0.134702 0.106588
C22   C     C_R   0.321328 0.314414 0.865279 0.106601
C23   C     C_R   0.716603 0.788515 0.061835 -0.179201
C24   C     C_R   0.283383 0.288350 0.938139 -0.179209
C25   C     C_R   0.787201 0.804923 0.087778 -0.214709
C26   C     C_R   0.212788 0.304821 0.912201 -0.214726
C27   C     C_R   0.671001 0.882671 0.307382 -0.247943
C28   C     C_R   0.329004 0.382740 0.692628 -0.247928
C29   C     C_R   0.568983 0.801985 0.179556 0.144039
C30   C     C_R   0.431003 0.301762 0.820421 0.144051
C31   C     C_R   0.894159 0.868815 0.213414 -0.072788
C32   C     C_R   0.105835 0.368836 0.786577 -0.072821
H5    H     H_    0.692901 0.912092 0.386316 0.109083
H6    H     H_    0.307113 0.412300 0.613708 0.109108
H7    H     H_    0.981929 0.938750 0.332595 0.136741
H8    H     H_    0.018071 0.438935 0.667414 0.136775
H9    H     H_    0.794751 0.992020 0.417036 0.132536
H10   H     H_    0.205247 0.492022 0.582954 0.132569
H11   H     H_    0.917329 0.018288 0.456165 0.164285
H12   H     H_    0.082675 0.518375 0.543834 0.164312
H13   H     H_    0.814358 0.780586 0.029052 0.112498
H14   H     H_    0.185629 0.280460 0.970923 0.112525
C33   C     C_3   0.220315 0.661264 0.187955 -0.384031
C34   C     C_3   0.779740 0.161158 0.811876 -0.383918
H15   H     H_    0.189487 0.551105 0.214547 0.190519
H16   H     H_    0.810622 0.051149 0.785275 0.190597
H17   H     H_    0.221446 0.623046 0.108739 0.160239
H18   H     H_    0.778573 0.122745 0.891053 0.160229
C35   C     C_3   0.293890 0.657214 0.254553 -0.321043
C36   C     C_3   0.706194 0.157051 0.745196 -0.320920
H19   H     H_    0.330053 0.624411 0.206466 0.182628
H20   H     H_    0.670013 0.123756 0.793185 0.182493
H21   H     H_    0.297905 0.541257 0.310903 0.162584
H22   H     H_    0.702269 0.041394 0.688690 0.162640
H23   H     H_    0.261187 0.770947 0.426762 0.125159
H24   H     H_    0.738801 0.271905 0.573049 0.125124
C37   C     C_3   0.186170 0.913661 0.302425 0.492554
C38   C     C_3   0.813823 0.414034 0.697613 0.492585
C39   C     C_3   0.235652 0.000945 0.152790 -0.323514
C40   C     C_3   0.764319 0.500666 0.847316 -0.323557
C41   C     C_3   0.187354 0.859812 0.189619 0.040500
C42   C     C_3   0.812651 0.359810 0.810372 0.040520
H25   H     H_    0.214024 0.145711 0.146199 0.168049
H26   H     H_    0.785895 0.645493 0.853958 0.168084
H27   H     H_    0.240920 0.960004 0.075789 0.143316
H28   H     H_    0.759099 0.459539 0.924315 0.143312
C43   C     C_3   0.313040 0.849178 0.309368 0.034083
C44   C     C_3   0.686966 0.349183 0.690616 0.033974
C45   C     C_3   0.259560 0.888267 0.371950 -0.301136
C46   C     C_3   0.740424 0.388851 0.628081 -0.301104
C47   C     C_3   0.307117 0.004426 0.227064 -0.312338
C48   C     C_3   0.692833 0.504051 0.773099 -0.312476
H29   H     H_    0.346968 0.984320 0.183807 0.166447
H30   H     H_    0.653020 0.483463 0.816377 0.166596
H31   H     H_    0.315786 0.145284 0.263850 0.159909
H32   H     H_    0.684059 0.645035 0.736478 0.159838
H33   H     H_    0.274736 0.016167 0.419500 0.160798
H34   H     H_    0.725218 0.517018 0.580764 0.160834
O11   O     O_R   0.912980 0.203550 0.915410 -0.530812
O12   O     O_R   0.087020 0.703550 0.084590 -0.530754
O13   O     O_R   0.047270 0.535570 0.887960 -0.547235
O14   O     O_R   0.952730 0.035570 0.112040 -0.547216
C49   C     C_R   0.065370 0.369117 0.863547 0.697962
C50   C     C_R   0.934626 0.869114 0.136448 0.697990
O15   O     O_R   0.911030 0.532970 0.903270 -0.551569
O16   O     O_R   0.088970 0.032970 0.096730 -0.551619
O17   O     O_R   0.949820 0.708150 0.099970 -0.529718
O18   O     O_R   0.050180 0.208150 0.900030 -0.529744
C51   C     C_R   0.883730 0.365121 0.881657 0.675609
C52   C     C_R   0.116272 0.865123 0.118336 0.675551
O19   O     O_3   0.012900 0.375230 0.064480 -0.378116
O20   O     O_3   0.987100 0.875230 0.935520 -0.378198
V3    V     V_3+5 0.997610 0.648190 0.988040 1.407743
V4    V     V_3+5 0.002390 0.148190 0.011960 1.407699
I1    I     I_    0.463202 0.744236 0.131818 -0.478980
I2    I     I_    0.536763 0.243679 0.868124 -0.478891
I3    I     I_    0.120180 0.718600 0.361574 -0.612283
I4    I     I_    0.879784 0.219172 0.638275 -0.612507
O21   O     O_3   0.171378 0.109654 0.308321 -0.567533
C53   C     C_3   0.102582 0.155879 0.302632 0.153508
H35   H     H_    0.065625 0.047974 0.265798 0.119279
H36   H     H_    0.090559 0.283992 0.254892 0.175633
C54   C     C_3   0.093073 0.204731 0.407488 -0.723167
H37   H     H_    0.132861 0.307198 0.442938 0.250421
H38   H     H_    0.041837 0.267587 0.401244 0.197844
H39   H     H_    0.098156 0.078593 0.456736 0.242677
O22   O     O_3   0.828635 0.610055 0.691912 -0.567596
C55   C     C_3   0.897416 0.656286 0.697488 0.153554
H40   H     H_    0.934387 0.548324 0.734210 0.119359
H41   H     H_    0.909482 0.784316 0.745283 0.175604
C56   C     C_3   0.906833 0.705354 0.592613 -0.723365
H42   H     H_    0.867058 0.807969 0.557313 0.250385
H43   H     H_    0.958079 0.768111 0.598797 0.197849
H44   H     H_    0.901664 0.579347 0.543262 0.242801

loop_
_geom_bond_atom_site_label_1
_geom_bond_atom_site_label_2
_ccdc_geom_bond_type
C36   H20   S    
O14   V4    S    
C30   I2    S    
C11   C13   A    
C43   C47   S    
O1    C3    A    
O2    C4    A    
C33   C41   S    
C2    O7    A    
C9    H7    S    
C12   H12   S    
C7    C27   A    
O22   C55   S    
C23   C25   A    
C53   H35   S    
O5    C3    A    
C14   H10   S    
C4    C7    S    
C34   C42   S    
C42   C51   S    
C7    C29   A    
C16   C20   A    
C41   C52   S    
C19   C21   A    
C40   C42   S    
C47   H31   S    
H2    C24   S    
C11   H11   S    
C35   C43   S    
C25   H13   S    
O15   V3    S    
O21   C53   S    
C38   I4    S    
C3    C8    S    
C37   I3    S    
O20   V3    S    
C34   H16   S    
C46   H34   S    
H23   C45   S    
C45   H33   S    
C48   H32   S    
O20   V4    S    
C35   H19   S    
C18   C26   A    
C15   C17   A    
O16   C52   A    
C19   C27   A    
C40   C48   S    
C10   C32   A    
C24   C26   A    
C38   O22   S    
C34   C36   S    
O6    V2    S    
C22   C24   A    
O19   V3    S    
C26   H14   S    
C6    C30   A    
O13   C49   A    
C54   H38   S    
O15   C51   A    
C33   H15   S    
C44   C48   S    
O4    C2    A    
C40   H28   S    
C1    C44   S    
C39   H27   S    
O5    V1    S    
C50   O17   A    
C5    H3    S    
C31   C50   S    
C16   C18   A    
O4    V2    S    
C56   H43   S    
C10   H8    S    
O13   V3    S    
O6    C4    A    
O1    V2    S    
C5    C21   A    
C38   C46   S    
O2    V1    S    
C39   C41   S    
C37   C45   S    
H1    C23   S    
C55   C56   S    
C39   C47   S    
C43   C45   S    
C8    C28   A    
C48   H30   S    
O14   C50   A    
C47   H29   S    
C17   C31   A    
O19   V4    S    
C15   C19   A    
C20   C28   A    
C18   C32   A    
C56   H42   S    
O3    V1    S    
O18   V4    S    
C55   H41   S    
C54   H39   S    
C28   H6    S    
C32   C49   S    
O12   C52   A    
C9    C31   A    
C2    C43   S    
C6    H4    S    
C33   H17   S    
C27   H5    S    
C40   H26   S    
C5    C29   A    
O3    C1    A    
O11   V4    S    
H24   C46   S    
C54   H37   S    
C29   I1    S    
C9    C11   A    
O12   V3    S    
C10   C12   A    
C37   O21   S    
C53   C54   S    
O17   V3    S    
C34   H18   S    
C8    C30   A    
C12   C14   A    
C6    C22   A    
C56   H44   S    
C17   C25   A    
C1    O8    A    
C13   C15   A    
O8    V2    S    
C33   C35   S    
C14   C16   A    
C36   H22   S    
C13   H9    S    
C35   H21   S    
C20   C22   A    
C53   H36   S    
C49   O18   A    
O7    V1    S    
O16   V4    S    
C36   C44   S    
C21   C23   A    
C38   C42   S    
O9    V2    S    
O11   C51   A    
C37   C41   S    
O10   V1    S    
C44   C46   S    
C39   H25   S    
C55   H40   S    
