data_str_m9_o2_o19_f0_sra.sym.7
_audit_creation_date              2012-12-11T16:28:31-0500
_audit_creation_method            fapswitch 2.2
_symmetry_space_group_name_H-M    P1
_symmetry_Int_Tables_number       1
_space_group_crystal_system       triclinic
_cell_length_a                    16.875264
_cell_length_b                    7.254073
_cell_length_c                    14.925234
_cell_angle_alpha                 90.000263
_cell_angle_beta                  94.584772
_cell_angle_gamma                 89.99967
_cell_volume                      1821.21720559

loop_
_atom_site_label
_atom_site_type_symbol
_atom_type_description
_atom_site_fract_x
_atom_site_fract_y
_atom_site_fract_z
_atom_type_partial_charge
O1    O     O_R   0.663460 0.361760 0.165970 -0.533617
O2    O     O_R   0.336540 0.638240 0.834030 -0.533617
O3    O     O_R   0.836540 0.861760 0.334030 -0.533618
O4    O     O_R   0.163460 0.138240 0.665970 -0.533618
O5    O     O_R   0.827100 0.689870 0.163730 -0.518003
O6    O     O_R   0.172900 0.310130 0.836270 -0.518002
O7    O     O_R   0.672900 0.189870 0.336270 -0.517999
O8    O     O_R   0.327100 0.810130 0.663730 -0.517999
C1    C     C_R   0.853740 0.523028 0.144136 0.727004
C2    C     C_R   0.146260 0.476972 0.855864 0.727004
C3    C     C_R   0.646261 0.023029 0.355866 0.726981
C4    C     C_R   0.353739 0.976971 0.644134 0.726981
O9    O     O_R   0.663490 0.691370 0.155500 -0.532254
O10   O     O_R   0.336510 0.308630 0.844500 -0.532254
O11   O     O_R   0.836510 0.191370 0.344500 -0.532249
O12   O     O_R   0.163490 0.808630 0.655500 -0.532249
O13   O     O_R   0.671770 0.863320 0.325740 -0.541047
O14   O     O_R   0.328230 0.136680 0.674260 -0.541047
O15   O     O_R   0.828230 0.363320 0.174260 -0.541050
O16   O     O_R   0.171770 0.636680 0.825740 -0.541050
C5    C     C_R   0.638974 0.523913 0.129885 0.683359
C6    C     C_R   0.361026 0.476087 0.870115 0.683359
C7    C     C_R   0.861024 0.023913 0.370117 0.683348
C8    C     C_R   0.138976 0.976087 0.629883 0.683347
H1    H     H_    0.100012 0.101331 0.214141 0.133227
H2    H     H_    0.899988 0.898669 0.785859 0.133227
H3    H     H_    0.399985 0.601635 0.285834 0.133219
H4    H     H_    0.600015 0.398365 0.714166 0.133219
O17   O     O_3   0.752910 0.528800 0.305860 -0.369509
O18   O     O_3   0.247090 0.471200 0.694140 -0.369509
O19   O     O_3   0.747090 0.028800 0.194140 -0.369520
O20   O     O_3   0.252910 0.971200 0.805860 -0.369520
V1    V     V_3+5 0.749460 0.803010 0.239640 1.478589
V2    V     V_3+5 0.250540 0.196990 0.760360 1.478589
V3    V     V_3+5 0.750540 0.303010 0.260360 1.478599
V4    V     V_3+5 0.249460 0.696990 0.739640 1.478599
C9    C     C_1   0.469004 0.994704 0.530320 0.007865
C10   C     C_1   0.530996 0.005296 0.469680 0.007865
C11   C     C_1   0.030995 0.494705 0.969680 0.007869
C12   C     C_1   0.969005 0.505295 0.030320 0.007869
H5    H     H_    0.785018 0.008204 0.690445 0.123295
H6    H     H_    0.214982 0.991796 0.309555 0.123295
H7    H     H_    0.714991 0.507913 0.809566 0.123300
H8    H     H_    0.285009 0.492087 0.190434 0.123300
C13   C     C_R   0.018697 0.069511 0.316399 -0.140938
C14   C     C_R   0.981303 0.930489 0.683601 -0.140938
C15   C     C_R   0.481303 0.569678 0.183587 -0.140946
C16   C     C_R   0.518697 0.430322 0.816413 -0.140946
C17   C     C_R   0.093452 0.068016 0.283881 -0.133997
C18   C     C_R   0.906548 0.931984 0.716119 -0.133997
C19   C     C_R   0.406545 0.568258 0.216100 -0.134002
C20   C     C_R   0.593455 0.431742 0.783900 -0.134002
C21   C     C_R   0.158746 0.010405 0.338852 -0.136571
C22   C     C_R   0.841254 0.989595 0.661147 -0.136571
C23   C     C_R   0.341248 0.510641 0.161136 -0.136568
C24   C     C_R   0.658752 0.489359 0.838864 -0.136568
C25   C     C_R   0.150785 0.962891 0.428519 -0.042240
C26   C     C_R   0.849215 0.037109 0.571481 -0.042240
C27   C     C_R   0.349209 0.463049 0.071479 -0.042222
C28   C     C_R   0.650791 0.536951 0.928521 -0.042222
C29   C     C_R   0.077117 0.990959 0.467348 0.027147
C30   C     C_R   0.922883 0.009041 0.532652 0.027147
C31   C     C_R   0.422880 0.491043 0.032649 0.027149
C32   C     C_R   0.577119 0.508957 0.967351 0.027149
C33   C     C_R   0.008562 0.027870 0.407481 0.070700
C34   C     C_R   0.991438 0.972130 0.592519 0.070700
C35   C     C_R   0.491438 0.527955 0.092513 0.070695
C36   C     C_R   0.508562 0.472044 0.907487 0.070695
C37   C     C_R   0.068725 0.977035 0.561645 -0.170578
C38   C     C_R   0.931275 0.022965 0.438355 -0.170578
C39   C     C_R   0.431274 0.477034 0.938356 -0.170581
C40   C     C_R   0.568726 0.522966 0.061644 -0.170581
C41   C     C_1   0.416424 0.986060 0.581942 -0.160827
C42   C     C_1   0.583576 0.013940 0.418058 -0.160827
C43   C     C_1   0.083574 0.486063 0.918056 -0.160805
C44   C     C_1   0.916426 0.513937 0.081944 -0.160804
H9    H     H_    0.969119 0.106037 0.269304 0.113930
H10   H     H_    0.030880 0.893963 0.730696 0.113930
H11   H     H_    0.530882 0.606208 0.230679 0.113946
H12   H     H_    0.469118 0.393792 0.769321 0.113946
C45   C     C_1   0.212040 0.843537 0.468126 0.251351
N1    N     N_1   0.260790 0.742387 0.496221 -0.336868
C46   C     C_1   0.787960 0.156463 0.531874 0.251351
N2    N     N_1   0.739210 0.257613 0.503779 -0.336868
C47   C     C_1   0.287947 0.343695 0.031890 0.251347
N3    N     N_1   0.239191 0.242546 0.003809 -0.336911
C48   C     C_1   0.712053 0.656305 0.968110 0.251347
N4    N     N_1   0.760809 0.757454 0.996191 -0.336911

loop_
_geom_bond_atom_site_label_1
_geom_bond_atom_site_label_2
_ccdc_geom_bond_type
C26   C30   A    
C48   N4    T    
O1    C5    A    
C23   C27   A    
O3    C7    A    
C15   H11   S    
C45   N1    T    
C47   N3    T    
O7    C3    A    
C18   C22   A    
C32   C36   A    
C14   C34   A    
H2    C18   S    
H6    C21   S    
C10   C42   T    
O4    C8    A    
C34   C37   A    
O3    V1    S    
O2    V4    S    
C33   C38   A    
C30   C38   A    
C35   C40   A    
O8    V4    S    
O11   V3    S    
C9    C41   T    
C1    O15   A    
C12   C44   T    
O5    V1    S    
O2    C6    A    
O19   V1    S    
C1    C44   S    
C11   C43   T    
O11   C7    A    
O12   C8    A    
C4    C41   S    
C7    C38   S    
O13   V1    S    
C15   C35   A    
C28   C48   S    
H3    C19   S    
C8    C37   S    
O4    V2    S    
C31   C35   A    
C30   C34   A    
C5    C40   S    
C2    O16   A    
C11   C12   S    
C14   H10   S    
C21   C25   A    
C15   C19   A    
O6    V2    S    
O20   V2    S    
C27   C47   S    
O5    C1    A    
C9    C10   S    
C2    C43   S    
C46   N2    T    
C13   C17   A    
O8    C4    A    
O9    C5    A    
C16   C36   A    
O14   V2    S    
C31   C39   A    
C13   C33   A    
C25   C45   S    
C6    C39   S    
O1    V3    S    
C22   C26   A    
C29   C37   A    
C14   C18   A    
C3    O13   A    
O7    V3    S    
C3    C42   S    
O10   V2    S    
C25   C29   A    
O17   V3    S    
C27   C31   A    
O18   V4    S    
C28   C32   A    
O10   C6    A    
O15   V3    S    
C26   C46   S    
O12   V4    S    
H4    C20   S    
H8    C23   S    
C16   H12   S    
C36   C39   A    
C17   C21   A    
C19   C23   A    
C32   C40   A    
H1    C17   S    
H5    C22   S    
O6    C2    A    
O16   V4    S    
C29   C33   A    
H7    C24   S    
C16   C20   A    
C24   C28   A    
O9    V1    S    
C4    O14   A    
C13   H9    S    
C20   C24   A    
