data_str_m9_o16_o22_f0_sra.sym.30
_audit_creation_date              2012-12-11T15:11:44-0500
_audit_creation_method            fapswitch 2.2
_symmetry_space_group_name_H-M    P1
_symmetry_Int_Tables_number       1
_space_group_crystal_system       triclinic
_cell_length_a                    20.176322
_cell_length_b                    7.098073
_cell_length_c                    13.516093
_cell_angle_alpha                 89.995054
_cell_angle_beta                  103.632394
_cell_angle_gamma                 90.003696
_cell_volume                      1881.14812562

loop_
_atom_site_label
_atom_site_type_symbol
_atom_type_description
_atom_site_fract_x
_atom_site_fract_y
_atom_site_fract_z
_atom_type_partial_charge
O1    O     O_R   0.449830 0.506740 0.599960 -0.545874
O2    O     O_R   0.550170 0.006740 0.400040 -0.545964
O3    O     O_R   0.588980 0.179860 0.596720 -0.550120
O4    O     O_R   0.411020 0.679860 0.403280 -0.550085
C1    C     C_R   0.616482 0.344776 0.618840 0.754816
C2    C     C_R   0.383513 0.844774 0.381173 0.754787
O5    O     O_R   0.452740 0.177340 0.612040 -0.539120
O6    O     O_R   0.547260 0.677340 0.387960 -0.539093
O7    O     O_R   0.412960 0.002070 0.415460 -0.496739
O8    O     O_R   0.587040 0.502070 0.584540 -0.496709
C3    C     C_R   0.436688 0.345665 0.638644 0.784695
C4    C     C_R   0.563317 0.845683 0.361364 0.784531
O9    O     O_3   0.487110 0.337570 0.435490 -0.371843
O10   O     O_3   0.512890 0.837570 0.564510 -0.371804
V1    V     V_3+5 0.502390 0.064650 0.511970 1.621851
V2    V     V_3+5 0.497610 0.564650 0.488030 1.621954
C5    C     C_R   0.609947 0.846816 0.109340 -0.076379
C6    C     C_R   0.390046 0.346012 0.890656 -0.076442
H1    H     H_    0.516277 0.854515 0.157920 0.149713
H2    H     H_    0.483725 0.353594 0.842096 0.149760
C7    C     C_R   0.603823 0.852885 0.285084 -0.132353
C8    C     C_R   0.396182 0.352798 0.714926 -0.132387
C9    C     C_R   0.933191 0.892569 0.318582 0.609626
C10   C     C_R   0.066816 0.392965 0.681441 0.609676
C11   C     C_R   0.897824 0.915580 0.394213 -0.180585
C12   C     C_R   0.102189 0.416135 0.605827 -0.180650
C13   C     C_R   0.826877 0.907706 0.370788 -0.146000
C14   C     C_R   0.173133 0.408143 0.629247 -0.145827
C15   C     C_R   0.788882 0.867933 0.270608 0.092470
C16   C     C_R   0.211119 0.368063 0.729398 0.092440
C17   C     C_R   0.825519 0.850191 0.192755 -0.133842
C18   C     C_R   0.174475 0.350118 0.807236 -0.134085
C19   C     C_R   0.715866 0.855432 0.243816 -0.093596
C20   C     C_R   0.284133 0.355404 0.756183 -0.093616
C21   C     C_R   0.681564 0.844900 0.138818 -0.096330
C22   C     C_R   0.318429 0.344398 0.861171 -0.096601
C23   C     C_R   0.718849 0.829422 0.064090 0.716998
C24   C     C_R   0.281135 0.328741 0.935882 0.717356
C25   C     C_R   0.789507 0.827476 0.090945 -0.127661
C26   C     C_R   0.210477 0.327040 0.909027 -0.126945
C27   C     C_R   0.675113 0.849292 0.316468 0.581642
C28   C     C_R   0.324892 0.349533 0.683529 0.581913
C29   C     C_R   0.571452 0.853799 0.182005 -0.286644
C30   C     C_R   0.428550 0.353164 0.818005 -0.286545
C31   C     C_R   0.897701 0.862846 0.217712 -0.166903
C32   C     C_R   0.102297 0.362934 0.782288 -0.166880
C33   C     C_3   0.239615 0.764494 0.134362 1.137519
C34   C     C_3   0.760445 0.263603 0.865476 1.137612
C35   C     C_3   0.312503 0.763311 0.205850 -0.428771
C36   C     C_3   0.687548 0.262518 0.794017 -0.428400
H3    H     H_    0.348421 0.841258 0.169631 0.187327
H4    H     H_    0.651607 0.339965 0.830401 0.187110
H5    H     H_    0.331607 0.615860 0.216810 0.231031
H6    H     H_    0.668507 0.115031 0.782800 0.231434
C37   C     C_3   0.187945 0.748559 0.287005 -0.406636
C38   C     C_3   0.812111 0.249388 0.712796 -0.406383
C39   C     C_3   0.213939 0.062661 0.219903 -0.423462
C40   C     C_3   0.785914 0.562709 0.780532 -0.422975
C41   C     C_3   0.187735 0.859584 0.187920 -0.207849
C42   C     C_3   0.812256 0.359581 0.812102 -0.208333
H7    H     H_    0.177951 0.134551 0.258584 0.184841
H8    H     H_    0.821855 0.635267 0.742017 0.185035
H9    H     H_    0.214943 0.147562 0.151029 0.229836
H10   H     H_    0.784840 0.646976 0.849583 0.229903
C43   C     C_3   0.312481 0.852979 0.310796 -0.212309
C44   C     C_3   0.687510 0.352983 0.689229 -0.212506
C45   C     C_3   0.260891 0.740858 0.357450 -0.381577
C46   C     C_3   0.739161 0.241612 0.642364 -0.382001
C47   C     C_3   0.285983 0.059644 0.291880 1.147182
C48   C     C_3   0.713882 0.559700 0.708517 1.147289
H11   H     H_    0.152690 0.817033 0.328172 0.215312
H12   H     H_    0.847300 0.318537 0.671743 0.215418
H13   H     H_    0.260013 0.798939 0.433586 0.209198
H14   H     H_    0.739986 0.300255 0.566321 0.209284
O11   O     O_R   0.912980 0.203550 0.915410 -0.519305
O12   O     O_R   0.087020 0.703550 0.084590 -0.519467
O13   O     O_R   0.047270 0.535570 0.887960 -0.529027
O14   O     O_R   0.952730 0.035570 0.112040 -0.529066
C49   C     C_R   0.063642 0.368343 0.861501 0.769715
C50   C     C_R   0.936360 0.868324 0.138502 0.769714
O15   O     O_R   0.911030 0.532970 0.903270 -0.552813
O16   O     O_R   0.088970 0.032970 0.096730 -0.552834
O17   O     O_R   0.949820 0.708150 0.099970 -0.547537
O18   O     O_R   0.050180 0.208150 0.900030 -0.547535
C51   C     C_R   0.883676 0.365132 0.881994 0.795886
C52   C     C_R   0.116319 0.865132 0.118018 0.795911
O19   O     O_3   0.012900 0.375230 0.064480 -0.382703
O20   O     O_3   0.987100 0.875230 0.935520 -0.382573
V3    V     V_3+5 0.997610 0.648190 0.988040 1.554078
V4    V     V_3+5 0.002390 0.148190 0.011960 1.554049
F1    F     F_    0.240850 0.860669 0.045477 -0.689330
F2    F     F_    0.759179 0.358931 0.954590 -0.689566
H15   H     H_    0.168960 0.602588 0.268395 0.217357
H16   H     H_    0.831216 0.103440 0.731113 0.217365
H17   H     H_    0.277283 0.591126 0.369099 0.243450
H18   H     H_    0.722866 0.091839 0.630471 0.243246
F3    F     F_    0.329915 0.164470 0.248594 -0.641371
F4    F     F_    0.669870 0.663867 0.751954 -0.641344
F5    F     F_    0.283225 0.143779 0.383477 -0.645799
F6    F     F_    0.716616 0.644548 0.617081 -0.645786
F7    F     F_    0.686744 0.813173 0.964123 -0.624906
F8    F     F_    0.313230 0.312079 0.035834 -0.624830
H19   H     H_    0.583384 0.841881 0.029746 0.190357
H20   H     H_    0.416604 0.340681 0.970244 0.190326
F9    F     F_    0.702332 0.823627 0.417271 -0.676418
F10   F     F_    0.297674 0.324417 0.582689 -0.676344
F11   F     F_    0.002263 0.907303 0.343025 -0.702992
F12   F     F_    0.997748 0.407849 0.657009 -0.702995
H21   H     H_    0.803786 0.943034 0.432279 0.221777
H22   H     H_    0.196224 0.443611 0.567776 0.221812
H23   H     H_    0.925525 0.945584 0.471467 0.175574
H24   H     H_    0.074495 0.446365 0.528595 0.175598
H25   H     H_    0.815855 0.811935 0.030357 0.170734
H26   H     H_    0.184126 0.311369 0.969606 0.170683
F13   F     F_    0.219840 0.580505 0.108593 -0.676967
F14   F     F_    0.780321 0.079523 0.890807 -0.676858

loop_
_geom_bond_atom_site_label_1
_geom_bond_atom_site_label_2
_ccdc_geom_bond_type
C40   H8    S    
C44   C46   S    
C9    C31   A    
C37   C41   S    
C13   C15   A    
O1    C3    A    
C37   H15   S    
O2    C4    A    
C2    O7    A    
C12   H24   S    
C33   C35   S    
C44   C48   S    
O14   V4    S    
C33   F13   S    
O13   V3    S    
C46   H18   S    
C35   C43   S    
C21   C23   A    
C10   C12   A    
C49   O18   A    
O14   C50   A    
C39   C41   S    
C43   C45   S    
C18   C32   A    
C46   H14   S    
C15   C19   A    
C23   F7    S    
O11   V4    S    
C7    C29   A    
O11   C51   A    
C2    C43   S    
C8    C30   A    
C32   C49   S    
C48   F6    S    
C14   C16   A    
C35   H3    S    
C20   C28   A    
C36   H4    S    
C39   H9    S    
C45   H13   S    
C16   C18   A    
O12   V3    S    
C34   F14   S    
O15   V3    S    
C34   C36   S    
O6    V2    S    
C45   H17   S    
C38   H16   S    
O18   V4    S    
C50   O17   A    
C25   H25   S    
H2    C30   S    
H1    C29   S    
C34   C42   S    
C40   C42   S    
O13   C49   A    
C40   H10   S    
O17   V3    S    
C26   H26   S    
C16   C20   A    
O4    C2    A    
C40   C48   S    
C14   H22   S    
O16   C52   A    
C4    C7    S    
C38   C42   S    
O4    V2    S    
O5    C3    A    
C5    C29   A    
C6    C30   A    
C28   F10   S    
O6    C4    A    
C9    F11   S    
O1    V2    S    
C6    H20   S    
O2    V1    S    
C36   C44   S    
C27   F9    S    
C7    C27   A    
C47   F5    S    
O20   V4    S    
O19   V3    S    
C17   C31   A    
O19   V4    S    
O12   C52   A    
C36   H6    S    
O3    V1    S    
C43   C47   S    
C38   H12   S    
C33   F1    S    
C1    C44   S    
O3    C1    A    
C37   C45   S    
C42   C51   S    
C39   H7    S    
C11   C13   A    
C3    C8    S    
C12   C14   A    
O16   V4    S    
C19   C27   A    
C22   C24   A    
C5    H19   S    
C41   C52   S    
C10   C32   A    
C1    O8    A    
C15   C17   A    
C38   C46   S    
C24   C26   A    
C8    C28   A    
C35   H5    S    
O5    V1    S    
C19   C21   A    
C17   C25   A    
C31   C50   S    
C20   C22   A    
C18   C26   A    
O7    V1    S    
O15   C51   A    
C11   H23   S    
C33   C41   S    
C23   C25   A    
C9    C11   A    
O20   V3    S    
C13   H21   S    
C24   F8    S    
C34   F2    S    
O9    V2    S    
O10   V1    S    
O8    V2    S    
C5    C21   A    
C39   C47   S    
C6    C22   A    
C37   H11   S    
C10   F12   S    
C48   F4    S    
C47   F3    S    
