data_str_m3_o10_o17_f0_pcu.sym.60
_audit_creation_date              2012-12-10T16:52:09-0500
_audit_creation_method            fapswitch 2.2
_symmetry_space_group_name_H-M    P1
_symmetry_Int_Tables_number       1
_space_group_crystal_system       triclinic
_cell_length_a                    7.754212
_cell_length_b                    8.579726
_cell_length_c                    14.909051
_cell_angle_alpha                 91.084858
_cell_angle_beta                  85.691324
_cell_angle_gamma                 93.858693
_cell_volume                      986.742978166

loop_
_atom_site_label
_atom_site_type_symbol
_atom_type_description
_atom_site_fract_x
_atom_site_fract_y
_atom_site_fract_z
_atom_type_partial_charge
C1    C     C_R   0.546131 0.794101 0.504484 0.882671
C2    C     C_R   0.637696 0.579218 0.809316 -0.242110
C3    C     C_R   0.494941 0.506335 0.231656 -0.081956
C4    C     C_R   0.504436 0.495792 0.768254 -0.062634
C5    C     C_R   0.629508 0.589018 0.182130 -0.214997
C6    C     C_R   0.369198 0.414233 0.817820 -0.240547
C7    C     C_R   0.630427 0.592370 0.089127 0.009706
C8    C     C_R   0.364320 0.416491 0.910936 0.020497
C9    C     C_R   0.495243 0.507848 0.046734 -0.014633
C10   C     C_R   0.497359 0.503962 0.953369 -0.007042
C11   C     C_R   0.359337 0.424932 0.097858 0.083625
C12   C     C_R   0.455133 0.205961 0.508920 0.878231
C13   C     C_R   0.634122 0.585586 0.902195 0.071056
C14   C     C_R   0.763436 0.677690 0.037953 0.513563
C15   C     C_R   0.229083 0.334242 0.962234 0.521444
C16   C     C_3   0.882026 0.918325 0.073853 -0.283203
C17   C     C_3   0.953505 0.317323 0.920074 -0.345709
C18   C     C_3   0.805716 0.036281 0.594159 -0.215627
C19   C     C_3   0.254090 0.974938 0.650364 -0.305545
C20   C     C_R   0.765316 0.671848 0.944268 -0.354027
C21   C     C_R   0.228231 0.338504 0.055765 -0.294533
C22   C     C_2   0.573516 0.956849 0.517300 0.167936
C23   C     C_2   0.433769 0.044855 0.528803 0.194048
C24   C     C_R   0.501694 0.498721 0.672974 0.832266
C25   C     C_R   0.498257 0.501342 0.326981 0.885597
C26   C     C_R   0.359026 0.426787 0.190622 -0.200585
H1    H     H_    0.256390 0.362684 0.230907 0.146275
H2    H     H_    0.753283 0.951603 0.103534 0.154470
H3    H     H_    0.904381 0.958900 0.003281 0.192819
H4    H     H_    0.855860 0.241091 0.886432 0.192603
H5    H     H_    0.976548 0.426647 0.880733 0.182948
H6    H     H_    0.897893 0.342830 0.989395 0.177861
H7    H     H_    0.816210 0.920400 0.624872 0.129952
H8    H     H_    0.722644 0.109752 0.639464 0.124046
H9    H     H_    0.936814 0.096811 0.587560 0.228006
H10   H     H_    0.264684 0.093590 0.681782 0.153791
H11   H     H_    0.352844 0.901168 0.675208 0.148136
H12   H     H_    0.740937 0.642331 0.768911 0.136113
H13   H     H_    0.125022 0.919370 0.672368 0.179402
H14   H     H_    0.731994 0.651369 0.216657 0.200821
H15   H     H_    0.268277 0.349660 0.783256 0.182526
H16   H     H_    0.871047 0.732425 0.904480 0.166504
H17   H     H_    0.126387 0.272280 0.095252 0.152593
H18   H     H_    0.013961 0.382320 0.432426 0.206113
H19   H     H_    0.986053 0.617635 0.567627 0.196371
H20   H     H_    0.982337 0.980090 0.113154 0.198637
N1    N     N_2   0.950330 0.457950 0.475660 -0.160207
N2    N     N_2   0.049670 0.542050 0.524340 -0.160959
O1    O     O_R   0.389250 0.738570 0.505970 -0.573441
O2    O     O_3   0.106802 0.238351 0.921177 -0.634796
O3    O     O_3   0.743835 0.018871 0.507711 -0.576463
O4    O     O_3   0.267943 0.983848 0.555610 -0.583781
O5    O     O_R   0.610750 0.261430 0.494030 -0.582144
O6    O     O_R   0.678390 0.711620 0.490370 -0.596526
O7    O     O_R   0.321610 0.288380 0.509630 -0.607025
O8    O     O_R   0.355420 0.513510 0.639950 -0.630813
O9    O     O_R   0.644580 0.486490 0.360050 -0.614206
O10   O     O_R   0.644560 0.486560 0.624350 -0.644855
O11   O     O_R   0.355440 0.513440 0.375650 -0.620794
O12   O     O_3   0.898514 0.756104 0.079332 -0.610725
Zn1   Zn    Zn3+2 0.306940 0.517990 0.510420 0.974491
Zn2   Zn    Zn3+2 0.693060 0.482010 0.489580 0.974766

loop_
_geom_bond_atom_site_label_1
_geom_bond_atom_site_label_2
_ccdc_geom_bond_type
C17   O2    S    
O10   Zn2   S    
C2    C4    A    
C1    O6    A    
C10   C13   A    
C16   H2    S    
C25   O11   A    
C24   O8    A    
C3    C26   A    
C14   O12   S    
C9    C10   A    
C2    H12   S    
C20   H16   S    
N1    N2    D    
C11   C26   A    
H18   N1    S    
C15   C21   A    
N1    Zn2   S    
C23   O4    S    
C1    C22   S    
C21   H17   S    
C17   H4    S    
C9    C11   A    
C12   C23   S    
C26   H1    S    
C25   O9    A    
C15   O2    S    
C4    C24   S    
O7    Zn1   S    
C18   H9    S    
C24   O10   A    
C18   O3    S    
C8    C15   A    
C5    C7    A    
C19   H10   S    
C18   H8    S    
C17   H5    S    
C18   H7    S    
O11   Zn1   S    
C12   O7    A    
O1    Zn1   S    
C17   H6    S    
C19   H13   S    
C16   H20   S    
C14   C20   A    
C3    C25   S    
O5    Zn2   S    
C8    C10   A    
C4    C6    A    
C16   O12   S    
H19   N2    S    
N2    Zn1   S    
C7    C9    A    
C2    C13   A    
O8    Zn1   S    
C6    C8    A    
C19   H11   S    
C13   C20   A    
O9    Zn2   S    
C16   H3    S    
C5    H14   S    
O6    Zn2   S    
C19   O4    S    
C11   C21   A    
C22   C23   D    
C7    C14   A    
C12   O5    A    
C22   O3    S    
C3    C5    A    
C6    H15   S    
C1    O1    A    
