data_str_m2_o4_o25_f0_pcu.sym.12
_audit_creation_date              2012-10-26T19:35:32-0400
_audit_creation_method            fapswitch 2.2
_symmetry_space_group_name_H-M    P1
_symmetry_Int_Tables_number       1
_space_group_crystal_system       triclinic
_cell_length_a                    15.846585
_cell_length_b                    10.745164
_cell_length_c                    9.582246
_cell_angle_alpha                 89.459074
_cell_angle_beta                  89.307936
_cell_angle_gamma                 91.156393
_cell_volume                      1631.08099655

loop_
_atom_site_label
_atom_site_type_symbol
_atom_type_description
_atom_site_fract_x
_atom_site_fract_y
_atom_site_fract_z
_atom_type_partial_charge
C1    C     C_R   0.500069 0.262680 0.500290 0.551216
C2    C     C_R   0.500558 0.129494 0.497926 0.023624
C3    C     C_R   0.438456 0.064223 0.422974 -0.153885
C4    C     C_R   0.339924 0.499953 0.500606 0.545252
C5    C     C_R   0.438529 0.934204 0.421400 -0.157415
C6    C     C_R   0.500420 0.870514 0.495514 0.015149
C7    C     C_R   0.567960 0.937413 0.550785 0.003812
C8    C     C_3   0.611313 0.929410 0.687456 -0.250736
C9    C     C_3   0.614007 0.071165 0.686072 -0.287423
C10   C     C_R   0.555046 0.575159 0.071763 0.122427
C11   C     C_R   0.442132 0.432627 0.077867 -0.015048
C12   C     C_3   0.083041 0.503937 0.496668 0.022083
C13   C     C_R   0.442021 0.430917 0.929856 0.061139
C14   C     C_R   0.555487 0.575234 0.924248 0.201689
C15   C     C_3   0.650016 0.567950 0.919947 0.126076
C16   C     C_R   0.499570 0.737294 0.499273 0.549789
C17   C     C_3   0.648527 0.570411 0.078484 -0.245557
C18   C     C_R   0.660032 0.500504 0.499189 0.553574
C19   C     C_3   0.970404 0.393724 0.536932 0.296642
C20   C     C_3   0.027980 0.415157 0.407508 -0.148176
C21   C     C_1   0.250231 0.501040 0.501377 -0.028837
C22   C     C_1   0.749664 0.501836 0.496816 -0.028862
C23   C     C_3   0.971528 0.594583 0.581584 -0.144495
C24   C     C_3   0.024764 0.482096 0.624176 0.279266
C25   C     C_R   0.382582 0.341561 0.866342 0.071028
C26   C     C_R   0.298678 0.374224 0.841829 -0.073440
C27   C     C_R   0.240800 0.285052 0.793544 -0.129140
C28   C     C_R   0.265320 0.162251 0.774174 -0.128174
C29   C     C_R   0.347549 0.127774 0.805083 -0.113702
C30   C     C_R   0.405330 0.216627 0.853965 -0.076427
C31   C     C_3   0.776556 0.665104 0.860778 -0.017173
C32   C     C_3   0.818315 0.787795 0.814894 -0.385908
C33   C     C_3   0.995787 0.189582 0.597017 -0.008538
C34   C     C_3   0.916794 0.504701 0.493720 0.021096
C35   C     C_3   0.955939 0.070434 0.657204 -0.377636
C36   C     C_R   0.065999 0.740719 0.409214 0.044679
C37   C     C_R   0.048524 0.792945 0.277979 -0.089888
C38   C     C_R   0.082721 0.909595 0.239916 -0.111270
C39   C     C_R   0.134773 0.974531 0.332042 -0.111970
C40   C     C_R   0.152570 0.923024 0.462523 -0.128313
C41   C     C_R   0.118022 0.806874 0.501446 -0.099023
C42   C     C_3   0.989912 0.454590 0.857029 -0.020373
C43   C     C_3   0.021908 0.402114 0.994057 -0.388060
C44   C     C_3   0.029845 0.615377 0.452277 -0.013652
C45   C     C_3   0.973470 0.527793 0.363567 -0.149970
C46   C     C_1   0.174701 0.502244 0.499938 -0.040140
C47   C     C_1   0.825204 0.503184 0.494684 -0.040629
C48   C     C_R   0.568851 0.065084 0.550397 0.010275
Cu1   Cu    Cu3+1 0.500000 0.499980 0.640670 0.969448
Cu2   Cu    Cu3+1 0.500000 0.500020 0.359330 0.937353
H1    H     H_    0.052410 0.343090 0.336182 0.094282
H2    H     H_    0.948016 0.668626 0.650618 0.091277
H3    H     H_    0.388373 0.113260 0.371263 0.115747
H4    H     H_    0.388485 0.883793 0.368753 0.126984
H5    H     H_    0.570221 0.888459 0.771616 0.172437
H6    H     H_    0.278389 0.468562 0.859157 0.125541
H7    H     H_    0.176758 0.310562 0.772325 0.164412
H8    H     H_    0.220045 0.093439 0.738305 0.095570
H9    H     H_    0.366103 0.031973 0.793545 0.114227
H10   H     H_    0.467326 0.188209 0.884943 0.092715
H11   H     H_    0.796558 0.591004 0.787830 0.132624
H12   H     H_    0.674504 0.888144 0.676536 0.166644
H13   H     H_    0.799797 0.642575 0.967164 0.112901
H14   H     H_    0.790789 0.866145 0.873643 0.163455
H15   H     H_    0.887012 0.785829 0.835997 0.084213
H16   H     H_    0.809455 0.802997 0.701308 0.138074
H17   H     H_    0.046045 0.221533 0.669235 0.148515
H18   H     H_    0.024484 0.167577 0.493859 0.132993
H19   H     H_    0.906474 0.034300 0.586186 0.162429
H20   H     H_    0.004899 0.998769 0.669505 0.099639
H21   H     H_    0.927015 0.088844 0.760948 0.147500
H22   H     H_    0.008578 0.744189 0.204927 0.092485
H23   H     H_    0.576294 0.112298 0.771030 0.136920
H24   H     H_    0.068978 0.949561 0.138818 0.100551
H25   H     H_    0.161331 0.064675 0.302340 0.100424
H26   H     H_    0.193219 0.973056 0.533367 0.098625
H27   H     H_    0.132075 0.768204 0.603148 0.115325
H28   H     H_    0.936169 0.394180 0.823187 0.163996
H29   H     H_    0.967093 0.550347 0.875509 0.117441
H30   H     H_    0.072127 0.464256 0.036260 0.158744
H31   H     H_    0.969123 0.394266 0.071015 0.094204
H32   H     H_    0.047887 0.308084 0.977354 0.150512
H33   H     H_    0.678992 0.110973 0.673522 0.143804
H34   H     H_    0.397277 0.375042 0.136826 0.123984
H35   H     H_    0.672139 0.478841 0.874807 0.112977
H36   H     H_    0.671186 0.482381 0.125393 0.115960
H37   H     H_    0.675932 0.656827 0.123955 0.145869
H38   H     H_    0.949248 0.546356 0.257443 0.099976
N1    N     N_R   0.500530 0.500930 0.147930 -0.247743
N2    N     N_R   0.500530 0.500890 0.852020 -0.261981
O1    O     O_R   0.500000 0.319640 0.618810 -0.500553
O2    O     O_3   0.932965 0.279792 0.582304 -0.567986
O3    O     O_3   0.056597 0.457510 0.758164 -0.588186
O4    O     O_R   0.500010 0.319680 0.381230 -0.505332
O5    O     O_R   0.379070 0.499970 0.618770 -0.493298
O6    O     O_R   0.379080 0.500010 0.381190 -0.504908
O7    O     O_R   0.499990 0.680320 0.618770 -0.488019
O8    O     O_R   0.500000 0.680360 0.381190 -0.494660
O9    O     O_R   0.620920 0.499990 0.618810 -0.484971
O10   O     O_R   0.620930 0.500030 0.381230 -0.505386
O11   O     O_3   0.687747 0.676570 0.860239 -0.552709

loop_
_geom_bond_atom_site_label_1
_geom_bond_atom_site_label_2
_ccdc_geom_bond_type
C8    C9    S    
C13   N2    A    
C42   O3    S    
C11   C13   A    
C31   H11   S    
C19   C20   S    
Cu1   N2    S    
C16   O8    A    
C7    C8    S    
C26   C27   A    
C29   C30   A    
C9    H23   S    
C31   O11   S    
C36   C37   A    
C20   H1    S    
C41   H27   S    
C38   C39   A    
C16   O7    A    
C10   C17   S    
C1    C2    S    
C10   N1    A    
C14   N2    A    
C19   O2    S    
C4    O6    A    
C29   H9    S    
C35   H20   S    
C1    O4    A    
C30   H10   S    
C23   C24   S    
C39   H25   S    
C20   C45   S    
C15   H35   S    
C22   C47   T    
C35   H21   S    
C42   H29   S    
C1    O1    A    
C17   H37   S    
C13   C25   S    
C36   C41   A    
C18   O10   A    
Cu1   O1    S    
C8    H5    S    
Cu2   O8    S    
C17   H36   S    
C31   H13   S    
C5    H4    S    
C45   H38   S    
C32   H14   S    
C12   C46   S    
C27   H7    S    
C33   O2    S    
C39   C40   A    
Cu2   O4    S    
C2    C48   A    
C43   H30   S    
Cu1   O7    S    
Cu1   O5    S    
C23   C44   S    
C40   H26   S    
C37   C38   A    
Cu1   O9    S    
C4    O5    A    
C11   N1    A    
Cu2   N1    S    
C31   C32   S    
C23   C34   S    
C12   C20   S    
C34   C45   S    
C15   O11   S    
C9    H33   S    
C40   C41   A    
C42   H28   S    
C10   C14   A    
C43   H31   S    
C36   C44   S    
C42   C43   S    
C44   C45   S    
C33   H17   S    
C32   H16   S    
C21   C46   T    
C38   H24   S    
C25   C30   A    
C15   C17   S    
C28   C29   A    
C18   C22   S    
C3    C5    A    
C19   C34   S    
C26   H6    S    
C6    C7    A    
C28   H8    S    
C11   H34   S    
C12   C24   S    
Cu2   O10   S    
C7    C48   A    
C2    C3    A    
C25   C26   A    
C12   C44   S    
C24   O3    S    
C4    C21   S    
C3    H3    S    
Cu2   O6    S    
C23   H2    S    
C5    C6    A    
C33   C35   S    
C19   C24   S    
C6    C16   S    
C35   H19   S    
C9    C48   S    
Cu1   Cu2   S    
C18   O9    A    
C37   H22   S    
C27   C28   A    
C43   H32   S    
C14   C15   S    
C34   C47   S    
C33   H18   S    
C8    H12   S    
C32   H15   S    
