data_str_m3_o14_o16_f0_pcu.sym.63
_audit_creation_date              2012-12-10T17:42:44-0500
_audit_creation_method            fapswitch 2.2
_symmetry_space_group_name_H-M    P1
_symmetry_Int_Tables_number       1
_space_group_crystal_system       triclinic
_cell_length_a                    10.001025
_cell_length_b                    10.614545
_cell_length_c                    13.103539
_cell_angle_alpha                 92.812511
_cell_angle_beta                  71.443008
_cell_angle_gamma                 89.654225
_cell_volume                      1316.7680968

loop_
_atom_site_label
_atom_site_type_symbol
_atom_type_description
_atom_site_fract_x
_atom_site_fract_y
_atom_site_fract_z
_atom_type_partial_charge
C1    C     C_R   0.501945 0.738689 0.494843 0.886128
C2    C     C_R   0.385782 0.425006 0.807349 -0.179617
C3    C     C_R   0.449747 0.859009 0.316082 -0.179740
C4    C     C_R   0.425196 0.475896 0.698885 0.880692
C5    C     C_R   0.424475 0.920374 0.232059 -0.129595
C6    C     C_R   0.426098 0.051463 0.231880 -0.139163
C7    C     C_R   0.452793 0.121644 0.315803 -0.181589
C8    C     C_R   0.476858 0.060910 0.402392 0.100951
C9    C     C_R   0.475657 0.928825 0.402415 0.086170
C10   C     C_R   0.504734 0.870886 0.487908 -0.095088
C11   C     C_R   0.539254 0.939414 0.568921 -0.185225
C12   C     C_R   0.447110 0.415690 0.971616 0.083227
C13   C     C_R   0.539651 0.068100 0.569215 -0.204202
C14   C     C_R   0.506137 0.127909 0.488219 -0.086410
C15   C     C_R   0.788244 0.648204 0.652809 -0.128096
C16   C     C_R   0.501907 0.260749 0.496292 0.843421
C17   C     C_R   0.807275 0.701132 0.744580 -0.212136
C18   C     C_R   0.938535 0.697217 0.755604 -0.226059
C19   C     C_R   0.055079 0.647972 0.671464 -0.008190
C20   C     C_R   0.036400 0.572811 0.580798 0.115827
C21   C     C_R   0.893214 0.572811 0.577152 0.150361
C22   C     C_R   0.960613 0.431091 0.425581 -0.116303
C23   C     C_R   0.489142 0.409096 0.858457 0.073221
C24   C     C_R   0.103081 0.431697 0.425137 -0.101548
C25   C     C_R   0.577547 0.498938 0.296439 0.834208
C26   C     C_R   0.802132 0.451536 0.006808 -0.199093
C27   C     C_R   0.622274 0.484204 0.179579 -0.048324
C28   C     C_R   0.246537 0.391966 0.862603 0.002991
C29   C     C_R   0.205628 0.379111 0.973782 -0.192651
C30   C     C_R   0.302675 0.399071 0.029118 -0.215811
C31   C     C_1   0.179164 0.703126 0.685031 0.297594
C32   C     C_1   0.155229 0.348405 0.803302 0.162398
C33   C     C_R   0.552470 0.435695 0.021378 0.076311
C34   C     C_R   0.697293 0.429266 0.958678 0.178377
C35   C     C_R   0.735248 0.398243 0.849011 -0.239463
C36   C     C_R   0.632534 0.383600 0.800101 -0.189596
C37   C     C_R   0.517721 0.467465 0.130794 -0.283447
C38   C     C_R   0.764902 0.477273 0.117443 -0.203669
H1    H     H_    0.847037 0.490571 0.154198 0.157088
H2    H     H_    0.950866 0.746799 0.826569 0.155227
H3    H     H_    0.844043 0.388182 0.799990 0.180197
H4    H     H_    0.181945 0.375352 0.363696 0.134425
H5    H     H_    0.912447 0.447972 0.959047 0.143083
H6    H     H_    0.408675 0.480821 0.179155 0.161025
H7    H     H_    0.264447 0.390271 0.115244 0.129205
H8    H     H_    0.099122 0.352821 0.017781 0.139589
H9    H     H_    0.667346 0.350320 0.716334 0.188362
H10   H     H_    0.562760 0.893009 0.633378 0.147108
H11   H     H_    0.450798 0.757098 0.311660 0.147318
H12   H     H_    0.405048 0.865954 0.166333 0.139380
H13   H     H_    0.408016 0.098931 0.166004 0.139698
H14   H     H_    0.456574 0.223033 0.311059 0.143174
H15   H     H_    0.563047 0.121501 0.633999 0.146404
H16   H     H_    0.933685 0.374218 0.364450 0.141144
H17   H     H_    0.688726 0.668840 0.644331 0.212698
H18   H     H_    0.721149 0.751412 0.805076 0.158873
N1    N     N_R   0.856860 0.501200 0.500990 -0.122083
N2    N     N_R   0.142450 0.501280 0.501020 -0.112939
N3    N     N_1   0.271665 0.752760 0.704613 -0.237078
N4    N     N_1   0.085840 0.310714 0.753404 -0.217658
O1    O     O_R   0.385310 0.683220 0.500000 -0.613646
O2    O     O_R   0.614640 0.683250 0.500010 -0.633666
O3    O     O_R   0.328400 0.499950 0.653610 -0.602392
O4    O     O_R   0.557730 0.499970 0.653620 -0.645407
O5    O     O_R   0.385360 0.316750 0.499990 -0.608840
O6    O     O_R   0.614690 0.316780 0.500000 -0.623314
O7    O     O_R   0.442270 0.500030 0.346380 -0.637784
O8    O     O_R   0.671600 0.500050 0.346390 -0.611460
Zn1   Zn    Zn3+2 0.346880 0.499980 0.499990 0.950532
Zn2   Zn    Zn3+2 0.653120 0.500020 0.500010 0.924871

loop_
_geom_bond_atom_site_label_1
_geom_bond_atom_site_label_2
_ccdc_geom_bond_type
C26   H5    S    
C2    C4    S    
N2    Zn1   S    
C21   N1    A    
C6    C7    A    
C3    C9    A    
O4    Zn2   S    
C6    H13   S    
C25   C27   S    
C24   H4    S    
C9    C10   A    
C4    O4    A    
C30   H7    S    
C35   C36   A    
C12   C23   A    
C15   C21   A    
C29   H8    S    
C3    C5    A    
C8    C14   A    
C19   C31   S    
C1    O2    A    
C22   N1    A    
C17   C18   A    
C3    H11   S    
C7    C8    A    
C22   H16   S    
O6    Zn2   S    
C13   C14   A    
C11   C13   A    
C17   H18   S    
C33   C37   A    
C11   H10   S    
C29   C30   A    
C25   O8    A    
C27   C37   A    
C34   C35   A    
O5    Zn1   S    
C5    C6    A    
C22   C24   A    
C4    O3    A    
C28   C29   A    
C7    H14   S    
C33   C34   A    
C13   H15   S    
C38   H1    S    
C35   H3    S    
C14   C16   S    
C5    H12   S    
C16   O6    A    
C10   C11   A    
C32   N4    T    
N1    Zn2   S    
C20   N2    A    
C37   H6    S    
O3    Zn1   S    
C28   C32   S    
C20   C21   A    
O2    Zn2   S    
C36   H9    S    
C24   N2    A    
C23   C36   A    
O1    Zn1   S    
C2    C23   A    
C15   C17   A    
O8    Zn2   S    
C18   H2    S    
C18   C19   A    
C2    C28   A    
C16   O5    A    
C27   C38   A    
C12   C30   A    
C12   C33   A    
C26   C34   A    
C25   O7    A    
C26   C38   A    
C1    C10   S    
C19   C20   A    
C15   H17   S    
C8    C9    A    
O7    Zn1   S    
C31   N3    T    
C1    O1    A    
