data_str_m2_o12_o28_f0_pcu.sym.114
_audit_creation_date              2012-12-10T17:08:10-0500
_audit_creation_method            fapswitch 2.2
_symmetry_space_group_name_H-M    P1
_symmetry_Int_Tables_number       1
_space_group_crystal_system       triclinic
_cell_length_a                    23.455807
_cell_length_b                    10.851055
_cell_length_c                    9.960894
_cell_angle_alpha                 108.554135
_cell_angle_beta                  98.384624
_cell_angle_gamma                 93.864607
_cell_volume                      2360.21837417

loop_
_atom_site_label
_atom_site_type_symbol
_atom_type_description
_atom_site_fract_x
_atom_site_fract_y
_atom_site_fract_z
_atom_type_partial_charge
C1    C     C_R   0.496848 0.253841 0.444159 0.755792
C2    C     C_R   0.504103 0.745605 0.556000 0.764469
C3    C     C_R   0.239081 0.595386 0.432647 0.491615
C4    C     C_R   0.751982 0.364128 0.454297 0.526434
C5    C     C_R   0.299606 0.598371 0.437791 -0.008314
C6    C     C_R   0.691517 0.368581 0.434512 0.013864
C7    C     C_R   0.330003 0.518227 0.504282 -0.163901
C8    C     C_R   0.670494 0.488478 0.499943 -0.156239
C9    C     C_R   0.301563 0.450435 0.578397 -0.294249
C10   C     C_R   0.709501 0.593411 0.595353 -0.294472
C11   C     C_R   0.242578 0.455252 0.583521 0.160351
C12   C     C_R   0.769497 0.587644 0.611103 0.181400
C13   C     C_R   0.210641 0.524255 0.505746 0.206314
C14   C     C_R   0.790594 0.482624 0.510885 0.130431
C15   C     C_2   0.498296 0.112343 0.423551 0.222178
C16   C     C_2   0.505683 0.886734 0.576675 0.227017
C17   C     C_2   0.539810 0.075634 0.508445 0.354063
C18   C     C_2   0.537859 0.934008 0.497128 0.365999
C19   C     C_2   0.513286 0.466234 0.059741 0.356050
C20   C     C_2   0.494698 0.476231 0.911822 0.432770
C21   C     C_R   0.391721 0.505391 0.501284 0.780021
C22   C     C_R   0.608449 0.497803 0.499459 0.846449
C23   C     C_R   0.881882 0.611993 0.514114 0.572561
C24   C     C_R   0.114449 0.407097 0.412025 0.516239
C25   C     C_R   0.871531 0.389208 0.388575 0.615134
C26   C     C_R   0.125769 0.629680 0.565502 0.613446
C27   C     C_R   0.931895 0.389455 0.394392 -0.159990
C28   C     C_R   0.065155 0.630106 0.551162 -0.154483
C29   C     C_R   0.968305 0.507418 0.469955 -0.114261
C30   C     C_R   0.028952 0.511408 0.474857 -0.114216
C31   C     C_R   0.943255 0.622480 0.533856 -0.083511
C32   C     C_R   0.053195 0.398328 0.399102 -0.089795
C33   C     C_R   0.955900 0.275813 0.322878 0.465529
C34   C     C_R   0.040264 0.745977 0.611847 0.478662
C35   C     C_R   0.015369 0.282084 0.314289 0.036032
C36   C     C_R   0.979900 0.742061 0.610610 0.063738
Cu1   Cu    Cu3+1 0.509980 0.521810 0.644910 0.948282
Cu2   Cu    Cu3+1 0.490020 0.478190 0.355090 0.975108
H1    H     H_    0.325799 0.393705 0.633522 0.150146
H2    H     H_    0.692715 0.676737 0.664416 0.146012
N1    N     N_R   0.849714 0.492389 0.478192 -0.445480
N2    N     N_R   0.148695 0.519767 0.496653 -0.444220
N3    N     N_2   0.475010 0.445410 0.137370 -0.026350
N4    N     N_2   0.524990 0.554590 0.862630 -0.020804
O1    O     O_R   0.505330 0.332340 0.577400 -0.573152
O2    O     O_R   0.494670 0.667660 0.422600 -0.530820
O3    O     O_R   0.488470 0.295500 0.332650 -0.599469
O4    O     O_R   0.511530 0.704500 0.667350 -0.592541
O5    O     O_R   0.426310 0.518390 0.622390 -0.611521
O6    O     O_R   0.573690 0.481610 0.377610 -0.604096
O7    O     O_R   0.409450 0.481550 0.377650 -0.549562
O8    O     O_R   0.590550 0.518450 0.622350 -0.587574
O9    O     O_2   0.854321 0.715704 0.509167 -0.581936
O10   O     O_2   0.140591 0.304503 0.343275 -0.573009
O11   O     O_2   0.835672 0.294419 0.282634 -0.454041
O12   O     O_2   0.162016 0.737290 0.649140 -0.484208
O13   O     O_3   0.921228 0.156810 0.257891 -0.550285
C37   C     C_3   0.914803 0.098458 0.363837 -0.243215
H3    H     H_    0.886045 0.150444 0.436461 0.188613
H4    H     H_    0.957176 0.095670 0.429174 0.117499
H5    H     H_    0.894257 0.995951 0.309490 0.194729
O14   O     O_3   0.075271 0.864176 0.678864 -0.541411
C38   C     C_3   0.080204 0.926195 0.575337 -0.276095
H6    H     H_    0.101410 0.866902 0.487450 0.192556
H7    H     H_    0.107828 0.021468 0.628609 0.191617
H8    H     H_    0.037184 0.946683 0.529164 0.115669
O15   O     O_3   0.557520 0.658592 0.965973 -0.550190
C39   C     C_3   0.607680 0.691688 0.916962 -0.145568
H9    H     H_    0.597951 0.736245 0.832221 0.186541
H10   H     H_    0.632572 0.607174 0.882642 0.164053
H11   H     H_    0.636702 0.767288 0.007888 0.112651
O16   O     O_3   0.419641 0.460359 0.091887 -0.506950
C40   C     C_3   0.383598 0.347686 0.086492 -0.138970
H12   H     H_    0.347391 0.377233 0.144721 0.159187
H13   H     H_    0.406249 0.278693 0.131224 0.164811
H14   H     H_    0.362979 0.292201 0.973949 0.114023
C41   C     C_3   0.034966 0.166208 0.205179 -0.271012
C42   C     C_3   0.057988 0.066158 0.271793 -0.760440
H15   H     H_    0.084414 0.114483 0.380577 0.259768
H16   H     H_    0.021459 0.000295 0.280255 0.224493
H17   H     H_    0.085215 0.004766 0.201528 0.245348
H18   H     H_    0.998490 0.114856 0.115852 0.206339
H19   H     H_    0.066986 0.199940 0.148874 0.221341
C43   C     C_3   0.959005 0.860134 0.714070 -0.356658
C44   C     C_3   0.963068 0.846192 0.862811 -0.836370
H20   H     H_    0.941577 0.749305 0.854844 0.254876
H21   H     H_    0.009278 0.856000 0.913889 0.271749
H22   H     H_    0.941424 0.923702 0.932106 0.251206
H23   H     H_    0.985643 0.952592 0.725757 0.219853
H24   H     H_    0.914810 0.878242 0.677740 0.234111
O17   O     O_3   0.208794 0.672248 0.366893 -0.565268
C45   C     C_3   0.176191 0.592448 0.232618 -0.321472
H25   H     H_    0.132198 0.559149 0.245323 0.172468
H26   H     H_    0.197694 0.506647 0.176984 0.155100
H27   H     H_    0.170393 0.652397 0.160951 0.186469
O18   O     O_3   0.771842 0.243669 0.437098 -0.540499
C46   C     C_3   0.788912 0.232343 0.574064 -0.371058
H28   H     H_    0.797777 0.130229 0.559660 0.199065
H29   H     H_    0.754042 0.252714 0.640243 0.153761
H30   H     H_    0.829583 0.297930 0.631877 0.160630
C47   C     C_3   0.331283 0.696801 0.385347 -0.309847
C48   C     C_3   0.316305 0.666933 0.222533 -0.720398
H31   H     H_    0.305127 0.560589 0.164522 0.240287
H32   H     H_    0.279072 0.717897 0.195826 0.246265
H33   H     H_    0.353873 0.702928 0.183225 0.251195
H34   H     H_    0.320337 0.796304 0.440800 0.205955
H35   H     H_    0.378958 0.703430 0.415669 0.200347
C49   C     C_3   0.651363 0.241610 0.358943 -0.335909
C50   C     C_3   0.660595 0.176045 0.204698 -0.807608
H36   H     H_    0.623294 0.100762 0.144023 0.219556
H37   H     H_    0.664400 0.249273 0.149746 0.257298
H38   H     H_    0.700643 0.127109 0.203322 0.297223
H39   H     H_    0.659693 0.173356 0.419952 0.230496
H40   H     H_    0.605095 0.256347 0.355214 0.194154
C51   C     C_3   0.215284 0.388595 0.675264 -0.357179
C52   C     C_3   0.209321 0.487676 0.819228 -0.844379
H41   H     H_    0.252469 0.541107 0.877898 0.260869
H42   H     H_    0.179653 0.559035 0.802901 0.272558
H43   H     H_    0.191182 0.435744 0.886176 0.229892
H44   H     H_    0.172214 0.334105 0.619006 0.219126
H45   H     H_    0.242503 0.314849 0.697417 0.191705
C53   C     C_3   0.806346 0.673679 0.753546 -0.354207
C54   C     C_3   0.834340 0.590974 0.837550 -0.883966
H46   H     H_    0.800763 0.520558 0.850790 0.257517
H47   H     H_    0.867031 0.536299 0.780930 0.245795
H48   H     H_    0.856556 0.655633 0.945884 0.255716
H49   H     H_    0.839979 0.743269 0.741777 0.245585
H50   H     H_    0.778959 0.736323 0.822517 0.193466
O19   O     O_3   0.577130 0.856608 0.428426 -0.634713
C55   C     C_3   0.579495 0.869880 0.293305 -0.244374
H51   H     H_    0.599090 0.969156 0.304150 0.144844
H52   H     H_    0.535815 0.845354 0.223936 0.226862
H53   H     H_    0.607922 0.799610 0.239468 0.204906
O20   O     O_3   0.582810 0.171961 0.604386 -0.611968
C56   C     C_3   0.628221 0.119906 0.669899 -0.360104
H54   H     H_    0.650646 0.055486 0.588644 0.198277
H55   H     H_    0.612195 0.067381 0.739003 0.173658
H56   H     H_    0.661014 0.202075 0.740034 0.190069
O21   O     O_3   0.470390 0.967535 0.657978 -0.640892
C57   C     C_3   0.441298 0.908577 0.740960 -0.309472
H57   H     H_    0.472692 0.893511 0.827623 0.210235
H58   H     H_    0.413679 0.816248 0.673088 0.155959
H59   H     H_    0.411545 0.975051 0.794799 0.178834
O22   O     O_3   0.459268 0.016727 0.316493 -0.610466
C58   C     C_3   0.401966 0.046545 0.324309 -0.318604
H60   H     H_    0.393071 0.128663 0.283487 0.155682
H61   H     H_    0.392726 0.068873 0.435662 0.165921
H62   H     H_    0.371554 0.959614 0.254431 0.198029
C59   C     C_3   0.445305 0.372016 0.816214 -0.440563
C60   C     C_3   0.454793 0.234339 0.813839 -0.827656
H63   H     H_    0.459809 0.223440 0.921520 0.249766
H64   H     H_    0.416563 0.166776 0.743919 0.257070
H65   H     H_    0.494236 0.207460 0.768036 0.316395
H66   H     H_    0.403122 0.397974 0.845690 0.210232
H67   H     H_    0.436591 0.360967 0.704753 0.252993
C61   C     C_3   0.575304 0.436455 0.093286 -0.416387
C62   C     C_3   0.602706 0.364028 0.963732 -0.881769
H68   H     H_    0.583968 0.259610 0.920643 0.263021
H69   H     H_    0.597464 0.404879 0.875271 0.295468
H70   H     H_    0.650117 0.368608 0.999015 0.238719
H71   H     H_    0.603556 0.528508 0.159087 0.236971
H72   H     H_    0.574778 0.364900 0.151099 0.244586

loop_
_geom_bond_atom_site_label_1
_geom_bond_atom_site_label_2
_ccdc_geom_bond_type
C47   H35   S    
C56   H56   S    
C38   H7    S    
N3    O16   S    
C51   H45   S    
C27   C29   A    
C24   N2    A    
C40   H12   S    
C19   C20   S    
C57   H59   S    
C9    H1    S    
C58   H62   S    
C21   O5    A    
C46   H28   S    
C18   O19   S    
C54   H46   S    
C41   C42   S    
C27   C33   A    
C47   C48   S    
C10   H2    S    
C61   C62   S    
Cu1   Cu2   S    
C57   H58   S    
C50   H37   S    
C58   H60   S    
C42   H16   S    
C54   H47   S    
C41   H19   S    
C37   H4    S    
C51   C52   S    
C34   O14   S    
C49   C50   S    
C48   H33   S    
C3    O17   S    
C49   H40   S    
C53   H49   S    
C46   H29   S    
C4    O18   S    
C62   H68   S    
C39   H9    S    
C60   H65   S    
C8    C22   S    
C1    C15   S    
C11   C51   S    
C3    C13   A    
C22   O6    A    
C37   H5    S    
C38   H8    S    
C61   H72   S    
C62   H69   S    
C4    C14   A    
C19   C61   S    
C40   H13   S    
C43   H24   S    
C13   N2    S    
C58   H61   S    
C19   N3    D    
C23   O9    S    
C44   H21   S    
C5    C47   S    
O15   C39   S    
C32   C35   A    
C56   H54   S    
C57   H57   S    
C4    C6    A    
C50   H38   S    
C25   N1    A    
O17   C45   S    
C5    C7    A    
Cu1   O8    S    
C42   H15   S    
C1    O3    A    
C54   H48   S    
C6    C8    A    
Cu2   O7    S    
C2    O4    A    
C37   H3    S    
C44   H20   S    
C35   C41   S    
C45   H27   S    
C2    O2    A    
C15   O22   S    
C23   C31   A    
C49   H39   S    
C55   H52   S    
C59   H66   S    
C24   C32   A    
C29   C30   A    
Cu1   O5    S    
O18   C46   S    
O14   C38   S    
C45   H26   S    
C17   C18   S    
C16   C18   D    
C43   C44   S    
Cu1   O4    S    
C48   H32   S    
C9    C11   A    
Cu2   O3    S    
C10   C12   A    
C14   N1    S    
C8    C10   A    
C12   C14   A    
C61   H71   S    
C20   N4    D    
C62   H70   S    
C40   H14   S    
C60   H64   S    
C16   O21   S    
C20   C59   S    
Cu1   O1    S    
C21   O7    A    
C46   H30   S    
C2    C16   S    
C26   N2    A    
C22   O8    A    
O19   C55   S    
C44   H22   S    
C47   H34   S    
C56   H55   S    
C33   O13   S    
C31   C36   A    
C25   O11   S    
O16   C40   S    
C3    C5    A    
C26   O12   S    
O21   C57   S    
C15   C17   D    
O20   C56   S    
Cu2   O6    S    
C25   C27   A    
C26   C28   A    
C23   N1    A    
C52   H43   S    
O22   C58   S    
Cu1   N4    S    
C28   C30   A    
C55   H51   S    
C59   H67   S    
Cu2   N3    S    
C29   C31   A    
C7    C21   S    
C59   C60   S    
C30   C32   A    
C11   C13   A    
C42   H17   S    
C1    O1    A    
O13   C37   S    
C41   H18   S    
C36   C43   S    
C39   H11   S    
C45   H25   S    
C33   C35   A    
C52   H42   S    
C52   H41   S    
C34   C36   A    
C53   H50   S    
C48   H31   S    
Cu2   O2    S    
C28   C34   A    
C38   H6    S    
C55   H53   S    
C7    C9    A    
C12   C53   S    
C39   H10   S    
C51   H44   S    
C43   H23   S    
C17   O20   S    
C6    C49   S    
C60   H63   S    
N4    O15   S    
C53   C54   S    
C50   H36   S    
C24   O10   S    
