data_str_m2_o16_o19_f0_pcu.sym.46
_audit_creation_date              2012-10-26T21:04:53-0400
_audit_creation_method            fapswitch 2.2
_symmetry_space_group_name_H-M    P1
_symmetry_Int_Tables_number       1
_space_group_crystal_system       triclinic
_cell_length_a                    11.728219
_cell_length_b                    12.482894
_cell_length_c                    13.221372
_cell_angle_alpha                 116.862869
_cell_angle_beta                  74.786147
_cell_angle_gamma                 99.28879
_cell_volume                      1664.18154759

loop_
_atom_site_label
_atom_site_type_symbol
_atom_type_description
_atom_site_fract_x
_atom_site_fract_y
_atom_site_fract_z
_atom_type_partial_charge
C1    C     C_R   0.512795 0.854930 0.284871 0.580697
C2    C     C_R   0.325179 0.509183 0.171106 0.237324
C3    C     C_R   0.372470 0.626036 0.198788 -0.107435
C4    C     C_R   0.714305 0.002930 0.505237 0.598229
C5    C     C_R   0.503163 0.349274 0.873276 -0.065475
C6    C     C_R   0.357745 0.207329 0.916149 -0.151270
C7    C     C_R   0.524727 0.770914 0.157332 0.021131
C8    C     C_R   0.692095 0.343358 0.325734 0.220373
C9    C     C_R   0.341985 0.761068 0.654149 0.182598
C10   C     C_R   0.284911 0.655459 0.663453 0.068481
C11   C     C_R   0.326948 0.542932 0.581036 0.085373
C12   C     C_R   0.452134 0.231826 0.838565 0.002370
C13   C     C_R   0.438917 0.537509 0.507146 0.035967
C14   C     C_R   0.487487 0.642787 0.486837 0.154474
C15   C     C_R   0.506636 0.431130 0.452475 -0.025995
C16   C     C_R   0.481368 0.145463 0.714403 0.527887
C17   C     C_R   0.600645 0.421286 0.359191 -0.002336
C18   C     C_R   0.602297 0.495912 0.306844 0.038080
C19   C     C_R   0.579225 0.616392 0.378927 0.268448
C20   C     C_R   0.490171 0.337272 0.488915 0.064060
C21   C     C_R   0.668201 0.249497 0.359290 0.129287
C22   C     C_R   0.284584 0.001433 0.500865 0.530901
C23   C     C_R   0.604994 0.798514 0.069760 -0.038441
C24   C     C_1   0.836088 0.003465 0.506522 0.045453
C25   C     C_1   0.938990 0.004075 0.505797 0.002450
C26   C     C_1   0.059651 0.004353 0.503869 -0.013085
C27   C     C_1   0.162630 0.003751 0.502168 -0.001672
C28   C     C_R   0.315868 0.297723 0.025918 -0.082442
C29   C     C_3   0.610562 0.444406 0.177874 -0.334812
C30   C     C_3   0.300893 0.881632 0.748213 -0.319543
C31   C     C_3   0.243761 0.432015 0.560416 -0.373018
C32   C     C_3   0.179179 0.662864 0.761746 -0.372259
C33   C     C_3   0.685741 0.908823 0.094809 -0.387853
C34   C     C_R   0.613049 0.719816 0.953188 -0.067948
C35   C     C_3   0.756190 0.154173 0.307779 -0.303493
C36   C     C_R   0.552907 0.608527 0.918856 0.253993
C37   C     C_R   0.491372 0.567607 0.003812 -0.000807
C38   C     C_R   0.463450 0.655329 0.121130 -0.084202
C39   C     C_R   0.452325 0.445167 0.977202 0.008710
C40   C     C_R   0.363947 0.416951 0.059310 0.025263
Cu1   Cu    Cu3+1 0.526510 0.098270 0.475420 0.939207
Cu2   Cu    Cu3+1 0.473490 0.901730 0.524580 1.037091
H1    H     H_    0.312279 0.120056 0.890922 0.107647
H2    H     H_    0.982430 0.263216 0.217135 0.354139
H3    H     H_    0.221802 0.879432 0.814520 0.072411
H4    H     H_    0.372134 0.925946 0.796765 0.151198
H5    H     H_    0.275075 0.936051 0.712273 0.172733
H6    H     H_    0.274720 0.356048 0.475401 0.149768
H7    H     H_    0.232452 0.402895 0.630476 0.139475
H8    H     H_    0.155937 0.451956 0.557715 0.175530
H9    H     H_    0.105158 0.704072 0.756348 0.143805
H10   H     H_    0.144812 0.575198 0.762218 0.148728
H11   H     H_    0.205021 0.716728 0.846575 0.148100
H12   H     H_    0.418437 0.334993 0.557639 0.180649
H13   H     H_    0.889937 0.651654 0.235132 0.386225
H14   H     H_    0.162408 0.339425 0.331166 0.379200
H15   H     H_    0.743050 0.912765 0.014861 0.122784
H16   H     H_    0.632979 0.989966 0.139073 0.157207
H17   H     H_    0.746258 0.905715 0.145077 0.155017
H18   H     H_    0.631595 0.387809 0.644164 0.368833
H19   H     H_    0.820467 0.177146 0.363739 0.191777
H20   H     H_    0.713405 0.068328 0.299196 0.177355
H21   H     H_    0.802027 0.139366 0.217943 0.103025
H22   H     H_    0.241650 0.273594 0.081170 0.193833
H23   H     H_    0.581317 0.365708 0.816701 0.159345
H24   H     H_    0.665468 0.746687 0.886831 0.174784
H25   H     H_    0.333007 0.695386 0.281122 0.188015
H26   H     H_    0.609716 0.516271 0.150719 0.162367
H27   H     H_    0.690980 0.394141 0.126936 0.206740
H28   H     H_    0.533369 0.380972 0.155887 0.119116
N1    N     N_R   0.566700 0.246290 0.438210 -0.274178
N2    N     N_R   0.434010 0.754320 0.561170 -0.230568
O1    O     O_R   0.533340 0.972510 0.318140 -0.514950
O2    O     O_2   0.861240 0.518411 0.367852 -0.109457
O3    O     O_3   0.941587 0.313606 0.297614 -0.529834
O4    O     O_2   0.709300 0.788996 0.311475 -0.329259
O5    O     O_2   0.771906 0.746579 0.454550 -0.242765
O6    O     O_3   0.814576 0.602846 0.237397 -0.458216
O7    O     O_2   0.216593 0.588798 0.397294 -0.283431
O8    O     O_2   0.100193 0.475903 0.249206 -0.183387
O9    O     O_3   0.237911 0.358050 0.285729 -0.586060
O10   O     O_2   0.425728 0.460253 0.761001 -0.339794
O11   O     O_2   0.518186 0.642776 0.744356 -0.277407
O12   O     O_R   0.488570 0.806530 0.359650 -0.477543
O13   O     O_3   0.656712 0.473279 0.684083 -0.511643
O14   O     O_R   0.685190 0.083000 0.479260 -0.539655
O15   O     O_R   0.640410 0.917020 0.520770 -0.395367
O16   O     O_R   0.511430 0.193470 0.640350 -0.492528
O17   O     O_R   0.466660 0.027490 0.681860 -0.534070
O18   O     O_R   0.359590 0.082980 0.479230 -0.502255
O19   O     O_R   0.314810 0.917000 0.520740 -0.502856
O20   O     O_2   0.872051 0.376300 0.163183 -0.287401
S1    S     S_3+6 0.843132 0.389376 0.285703 0.064388
S2    S     S_3+6 0.717567 0.695359 0.349918 0.053438
S3    S     S_3+6 0.216338 0.485113 0.280262 -0.002932
S4    S     S_3+6 0.533852 0.544118 0.774255 -0.027836

loop_
_geom_bond_atom_site_label_1
_geom_bond_atom_site_label_2
_ccdc_geom_bond_type
C33   H16   S    
Cu1   Cu2   S    
C30   H3    S    
C9    N2    A    
C34   H24   S    
H14   O9    S    
C4    O15   A    
C1    O12   A    
Cu1   O14   S    
C26   C27   T    
C21   N1    A    
C36   C37   A    
C18   C19   A    
C6    C12   A    
O9    S3    S    
O13   S4    S    
C7    C23   A    
C4    O14   A    
C28   C40   A    
O5    S2    D    
Cu2   O19   S    
C32   H10   S    
O4    S2    D    
C6    C28   A    
C12   C16   S    
C3    C38   A    
C23   C33   S    
C22   O19   A    
C20   N1    A    
C9    C10   A    
Cu1   N1    S    
Cu1   O18   S    
C11   C31   S    
C16   O17   A    
C33   H17   S    
C13   C14   A    
O2    S1    D    
C31   H7    S    
C8    C21   A    
C29   H27   S    
C15   C20   A    
O10   S4    D    
C30   H5    S    
Cu2   O12   S    
C24   C25   T    
C5    C12   A    
C5    H23   S    
C39   C40   A    
H13   O6    S    
C25   C26   S    
H2    O3    S    
C32   H9    S    
O7    S3    D    
C37   C38   A    
C10   C32   S    
C29   H26   S    
C36   S4    S    
C23   C34   A    
Cu2   N2    S    
C17   C18   A    
C22   O18   A    
C35   H19   S    
C18   C29   S    
O8    S3    D    
C19   S2    S    
C9    C30   S    
C28   H22   S    
C20   H12   S    
C22   C27   S    
C5    C39   A    
C31   H8    S    
C32   H11   S    
O3    S1    S    
C29   H28   S    
C15   C17   A    
Cu1   O16   S    
C2    S3    S    
C33   H15   S    
C1    C7    S    
C14   N2    A    
C14   C19   A    
C30   H4    S    
C3    H25   S    
C8    S1    S    
H18   O13   S    
C21   C35   S    
C8    C17   A    
C31   H6    S    
Cu2   O17   S    
C1    O1    A    
C13   C15   A    
C2    C3    A    
C37   C39   A    
C11   C13   A    
O6    S2    S    
C4    C24   S    
O11   S4    D    
O20   S1    D    
C7    C38   A    
C35   H20   S    
C34   C36   A    
C10   C11   A    
Cu1   O1    S    
C2    C40   A    
C16   O16   A    
C6    H1    S    
C35   H21   S    
Cu2   O15   S    
