data_str_m9_o2_o16_f0_sra.sym.27
_audit_creation_date              2012-12-11T16:25:28-0500
_audit_creation_method            fapswitch 2.2
_symmetry_space_group_name_H-M    P1
_symmetry_Int_Tables_number       1
_space_group_crystal_system       triclinic
_cell_length_a                    20.237361
_cell_length_b                    7.275925
_cell_length_c                    13.426214
_cell_angle_alpha                 89.98585
_cell_angle_beta                  103.333157
_cell_angle_gamma                 90.018938
_cell_volume                      1923.66220199

loop_
_atom_site_label
_atom_site_type_symbol
_atom_type_description
_atom_site_fract_x
_atom_site_fract_y
_atom_site_fract_z
_atom_type_partial_charge
O1    O     O_R   0.449520 0.506760 0.599710 -0.537382
O2    O     O_R   0.550480 0.006760 0.400290 -0.537368
O3    O     O_R   0.587930 0.180200 0.595790 -0.538726
O4    O     O_R   0.412070 0.680200 0.404210 -0.538761
C1    C     C_R   0.614418 0.344275 0.617472 0.693118
C2    C     C_R   0.385589 0.844247 0.382506 0.693139
O5    O     O_R   0.452350 0.177380 0.611700 -0.540062
O6    O     O_R   0.547650 0.677380 0.388300 -0.540081
O7    O     O_R   0.413930 0.001760 0.416320 -0.534726
O8    O     O_R   0.586070 0.501760 0.583680 -0.534755
C3    C     C_R   0.436285 0.345767 0.637824 0.679367
C4    C     C_R   0.563710 0.845841 0.362172 0.679347
O9    O     O_3   0.487550 0.337460 0.435880 -0.377801
O10   O     O_3   0.512450 0.837460 0.564120 -0.377779
V1    V     V_3+5 0.502310 0.064670 0.511900 1.419116
V2    V     V_3+5 0.497690 0.564670 0.488100 1.419006
C5    C     C_R   0.610026 0.895894 0.108069 -0.187891
C6    C     C_R   0.390035 0.392502 0.892130 -0.187860
H1    H     H_    0.516873 0.883734 0.157267 0.101253
H2    H     H_    0.483180 0.379714 0.842927 0.101232
H3    H     H_    0.692890 0.921370 0.982084 0.136073
H4    H     H_    0.307200 0.417208 0.018183 0.135988
H5    H     H_    0.584046 0.912792 0.028452 0.121082
H6    H     H_    0.416041 0.407752 0.971842 0.121123
C7    C     C_R   0.603649 0.856237 0.284254 -0.024422
C8    C     C_R   0.396349 0.355850 0.715749 -0.024333
C9    C     C_R   0.930708 0.840641 0.318329 -0.169045
C10   C     C_R   0.069249 0.342690 0.681589 -0.169087
C11   C     C_R   0.895304 0.831212 0.395234 -0.123708
C12   C     C_R   0.104645 0.333856 0.604660 -0.123720
C13   C     C_R   0.824743 0.840981 0.371535 -0.168398
C14   C     C_R   0.175226 0.342740 0.628409 -0.168328
C15   C     C_R   0.787458 0.861926 0.269035 0.078181
C16   C     C_R   0.212545 0.362290 0.730982 0.078218
C17   C     C_R   0.824288 0.874055 0.190495 0.039472
C18   C     C_R   0.175732 0.373630 0.809565 0.039303
C19   C     C_R   0.714973 0.868865 0.241778 0.069058
C20   C     C_R   0.285042 0.368555 0.758267 0.069216
C21   C     C_R   0.681181 0.890688 0.137119 0.113607
C22   C     C_R   0.318867 0.388526 0.863030 0.113503
C23   C     C_R   0.718421 0.904674 0.061924 -0.178028
C24   C     C_R   0.281645 0.401835 0.938270 -0.177913
C25   C     C_R   0.788773 0.895844 0.087927 -0.196090
C26   C     C_R   0.211276 0.393957 0.912215 -0.195878
C27   C     C_R   0.674539 0.852110 0.314442 -0.225105
C28   C     C_R   0.325451 0.352944 0.685516 -0.225053
C29   C     C_R   0.571586 0.878748 0.181211 -0.180889
C30   C     C_R   0.428452 0.376034 0.818927 -0.181052
C31   C     C_R   0.896104 0.861246 0.216160 -0.078797
C32   C     C_R   0.103895 0.361611 0.783845 -0.078697
H7    H     H_    0.696203 0.835800 0.395107 0.103438
H8    H     H_    0.303764 0.338335 0.604756 0.103381
H9    H     H_    0.985433 0.832250 0.338940 0.097293
H10   H     H_    0.014499 0.335180 0.660939 0.097308
H11   H     H_    0.801199 0.832236 0.435532 0.122136
H12   H     H_    0.198759 0.334417 0.564389 0.122165
H13   H     H_    0.922808 0.815654 0.474124 0.122813
H14   H     H_    0.077117 0.319496 0.525707 0.122807
H15   H     H_    0.815141 0.906044 0.026562 0.129595
H16   H     H_    0.184920 0.403575 0.973612 0.129473
H17   H     H_    0.100681 0.741617 0.470579 0.116379
H18   H     H_    0.899280 0.239874 0.529581 0.116510
C33   C     C_R   0.234327 0.879813 0.034584 -0.133654
C34   C     C_R   0.765666 0.380732 0.965359 -0.133681
C35   C     C_R   0.291400 0.889936 0.991574 0.198191
C36   C     C_R   0.708586 0.391424 0.008323 0.198018
C37   C     C_R   0.355991 0.895297 0.057037 -0.194410
C38   C     C_R   0.644014 0.397149 0.942823 -0.194526
C39   C     C_R   0.364109 0.886341 0.162827 -0.168532
C40   C     C_R   0.635909 0.387808 0.837048 -0.168561
C41   C     C_R   0.307595 0.870486 0.207068 0.068959
C42   C     C_R   0.692418 0.371182 0.792861 0.068973
C43   C     C_R   0.241357 0.870300 0.141838 0.014901
C44   C     C_R   0.758649 0.370823 0.858116 0.014938
C45   C     C_R   0.316340 0.850500 0.314413 -0.167454
C46   C     C_R   0.683671 0.350613 0.685553 -0.167488
C47   C     C_R   0.258732 0.824398 0.356044 0.062780
C48   C     C_R   0.741269 0.323983 0.643972 0.062764
C49   C     C_R   0.192352 0.827798 0.290988 0.073845
C50   C     C_R   0.807646 0.327222 0.709048 0.073852
C51   C     C_R   0.183550 0.855703 0.184265 -0.164917
C52   C     C_R   0.816453 0.355615 0.815730 -0.164937
C53   C     C_R   0.265915 0.791877 0.461948 -0.149237
C54   C     C_R   0.734078 0.291208 0.538094 -0.149199
C55   C     C_R   0.209289 0.761208 0.502201 -0.127684
C56   C     C_R   0.790689 0.260127 0.497881 -0.127599
C57   C     C_R   0.144470 0.765729 0.438814 -0.122802
C58   C     C_R   0.855503 0.264352 0.561302 -0.122885
C59   C     C_R   0.135879 0.799311 0.334391 -0.138980
C60   C     C_R   0.864106 0.298157 0.665700 -0.139179
H19   H     H_    0.184325 0.874964 0.984491 0.117228
H20   H     H_    0.815655 0.375714 0.015483 0.117231
H21   H     H_    0.400669 0.904562 0.025725 0.114813
H22   H     H_    0.599335 0.406952 0.974096 0.114828
H23   H     H_    0.415228 0.889230 0.209745 0.097036
H24   H     H_    0.584796 0.391037 0.790110 0.097243
H25   H     H_    0.315262 0.787317 0.514504 0.112176
H26   H     H_    0.684734 0.286857 0.485520 0.112207
H27   H     H_    0.215830 0.732043 0.582817 0.125443
H28   H     H_    0.784142 0.230914 0.417269 0.125469
H29   H     H_    0.084773 0.799363 0.287524 0.087117
H30   H     H_    0.915212 0.297953 0.712580 0.087354
O11   O     O_R   0.913760 0.203480 0.916370 -0.534795
O12   O     O_R   0.086240 0.703480 0.083630 -0.534726
O13   O     O_R   0.047590 0.535230 0.888250 -0.540176
O14   O     O_R   0.952410 0.035230 0.111750 -0.540168
C61   C     C_R   0.063968 0.368584 0.862267 0.674864
C62   C     C_R   0.936033 0.868510 0.137737 0.674897
O15   O     O_R   0.912020 0.532880 0.904260 -0.536427
O16   O     O_R   0.087980 0.032880 0.095740 -0.536490
O17   O     O_R   0.949590 0.708460 0.099750 -0.537795
O18   O     O_R   0.050410 0.208460 0.900250 -0.537809
C63   C     C_R   0.885832 0.364634 0.883327 0.681887
C64   C     C_R   0.114170 0.864662 0.116668 0.681914
O19   O     O_3   0.012370 0.375360 0.064120 -0.376760
O20   O     O_3   0.987630 0.875360 0.935880 -0.376758
V3    V     V_3+5 0.997700 0.648160 0.988110 1.414030
V4    V     V_3+5 0.002300 0.148160 0.011890 1.413883
C65   C     C_3   0.286849 0.893122 0.877147 -0.358584
C66   C     C_3   0.215092 0.891132 0.808745 -0.740949
H31   H     H_    0.189610 0.758647 0.816110 0.231713
H32   H     H_    0.184307 0.005062 0.828708 0.234639
H33   H     H_    0.217883 0.909523 0.727888 0.218182
H34   H     H_    0.313259 0.017394 0.858647 0.194250
H35   H     H_    0.314851 0.773126 0.856702 0.190046
C67   C     C_3   0.713095 0.394842 0.122737 -0.358555
C68   C     C_3   0.784821 0.391746 0.191227 -0.740849
H36   H     H_    0.810035 0.258965 0.183732 0.231766
H37   H     H_    0.815864 0.505332 0.171452 0.234631
H38   H     H_    0.782013 0.409892 0.272097 0.218254
H39   H     H_    0.686969 0.519599 0.141168 0.194304
H40   H     H_    0.684784 0.275384 0.143168 0.189979

loop_
_geom_bond_atom_site_label_1
_geom_bond_atom_site_label_2
_ccdc_geom_bond_type
C36   C38   A    
C33   C35   A    
C67   C68   S    
C9    C11   A    
C61   O18   A    
O1    C3    A    
C42   C46   A    
O2    C4    A    
O16   V4    S    
C2    O7    A    
O15   V3    S    
C2    C45   S    
C21   C23   A    
C65   H34   S    
O5    C3    A    
O13   C61   A    
C5    H5    S    
C27   H7    S    
C6    H6    S    
C46   C48   A    
O11   C63   A    
C54   C56   A    
C56   C58   A    
C47   C53   A    
C28   H8    S    
O20   V3    S    
C5    C21   A    
C39   C41   A    
C6    C22   A    
C60   H30   S    
H17   C57   S    
C10   C32   A    
C35   C37   A    
C51   C64   S    
C17   C31   A    
C13   C15   A    
C12   C14   A    
C17   C25   A    
O16   C64   A    
C16   C18   A    
C66   H33   S    
O15   C63   A    
O5    V1    S    
O6    V2    S    
C20   C22   A    
O14   V4    S    
C23   C25   A    
O13   V3    S    
C24   C26   A    
C44   C52   A    
C43   C51   A    
C66   H32   S    
C31   C62   S    
C47   C49   A    
C41   C45   A    
C49   C59   A    
C55   C57   A    
C8    C30   A    
C42   C44   A    
C49   C51   A    
C10   H10   S    
C33   C43   A    
C3    C8    S    
O3    C1    A    
H18   C58   S    
C15   C19   A    
C36   C67   S    
C37   C39   A    
C14   C16   A    
O4    V2    S    
C40   H24   S    
C68   H37   S    
C55   H27   S    
C67   H40   S    
O6    C4    A    
O19   V4    S    
C35   C65   S    
H1    C29   S    
O1    V2    S    
O2    V1    S    
C45   C47   A    
H2    C30   S    
H3    C23   S    
C65   H35   S    
C50   C52   A    
C53   C55   A    
C11   H13   S    
C57   C59   A    
C32   C61   S    
O12   C64   A    
C18   C26   A    
O4    C2    A    
C34   H20   S    
C19   C27   A    
C68   H36   S    
C7    C27   A    
C18   C32   A    
C66   H31   S    
C41   C43   A    
O12   V3    S    
C7    C29   A    
C59   H29   S    
C16   C20   A    
C5    C29   A    
C52   C63   S    
C58   C60   A    
C39   H23   S    
C6    C30   A    
C65   C66   S    
C9    H9    S    
C25   H15   S    
C62   O17   A    
C4    C7    S    
O17   V3    S    
C54   H26   S    
C1    C46   S    
C10   C12   A    
O7    V1    S    
C68   H38   S    
C1    O8    A    
C19   C21   A    
O8    V2    S    
O18   V4    S    
C56   H28   S    
H4    C24   S    
O14   C62   A    
C67   H39   S    
C26   H16   S    
C12   H14   S    
C22   C24   A    
C15   C17   A    
C48   C50   A    
C50   C60   A    
C38   H22   S    
C20   C28   A    
C8    C28   A    
O11   V4    S    
C48   C54   A    
C11   C13   A    
C53   H25   S    
O9    V2    S    
C33   H19   S    
C37   H21   S    
C38   C40   A    
C34   C44   A    
O10   V1    S    
O3    V1    S    
C40   C42   A    
C13   H11   S    
C14   H12   S    
C9    C31   A    
C34   C36   A    
