data_str_m9_o22_o22_f0_sra.sym.163
_audit_creation_date              2013-03-05T15:58:24-0500
_audit_creation_method            fapswitch 2.2
_symmetry_space_group_name_H-M    P1
_symmetry_Int_Tables_number       1
_space_group_crystal_system       triclinic
_cell_length_a                    7.209358
_cell_length_b                    15.123281
_cell_length_c                    15.31
_cell_angle_alpha                 90.001233
_cell_angle_beta                  90.003897
_cell_angle_gamma                 90.004425
_cell_volume                      1669.23622926

loop_
_atom_site_label
_atom_site_type_symbol
_atom_site_description
_atom_site_fract_x
_atom_site_fract_y
_atom_site_fract_z
_atom_type_partial_charge
O1    O     O_R   0.388780 0.834790 0.412340 -0.566058
O2    O     O_R   0.111220 0.165210 0.912340 -0.566089
O3    O     O_R   0.888780 0.665210 0.587660 -0.566076
O4    O     O_R   0.611220 0.334790 0.087660 -0.566091
O5    O     O_R   0.059040 0.845930 0.587040 -0.592086
O6    O     O_R   0.440960 0.154070 0.087040 -0.592030
O7    O     O_R   0.559040 0.654070 0.412960 -0.592011
O8    O     O_R   0.940960 0.345930 0.912960 -0.592117
C1    C     C_R   0.227674 0.866415 0.616717 0.950781
C2    C     C_R   0.272322 0.133578 0.116715 0.950884
C3    C     C_R   0.727667 0.633580 0.383289 0.950265
C4    C     C_R   0.772330 0.366416 0.883283 0.950739
O9    O     O_R   0.059070 0.845930 0.412970 -0.555253
O10   O     O_R   0.440930 0.154070 0.912970 -0.554968
O11   O     O_R   0.559070 0.654070 0.587030 -0.554950
O12   O     O_R   0.940930 0.345930 0.087030 -0.555369
O13   O     O_R   0.888760 0.665210 0.412340 -0.598715
O14   O     O_R   0.611240 0.334790 0.912340 -0.598473
O15   O     O_R   0.388760 0.834790 0.587660 -0.598453
O16   O     O_R   0.111240 0.165210 0.087660 -0.598470
C5    C     C_R   0.228605 0.866992 0.383700 0.886531
C6    C     C_R   0.271382 0.132978 0.883726 0.886863
C7    C     C_R   0.728612 0.632979 0.616276 0.886897
C8    C     C_R   0.771397 0.367010 0.116287 0.886970
O17   O     O_3   0.222280 0.690700 0.500000 -0.265118
O18   O     O_3   0.277720 0.309300 0.000000 -0.265364
O19   O     O_3   0.722280 0.809300 0.500000 -0.265163
O20   O     O_3   0.777720 0.190700 0.000000 -0.265081
V1    V     V_3+5 0.947430 0.761000 0.500000 1.251671
V2    V     V_3+5 0.552570 0.239000 0.000000 1.252001
V3    V     V_3+5 0.447430 0.739000 0.500000 1.251950
V4    V     V_3+5 0.052570 0.261000 0.000000 1.251815
C9    C     C_3   0.949614 0.535131 0.707752 0.259783
C10   C     C_3   0.550344 0.464525 0.208063 0.259527
C11   C     C_3   0.449593 0.964812 0.292200 0.259876
C12   C     C_3   0.050377 0.035135 0.792233 0.259716
H1    H     H_    0.008571 0.505836 0.646956 0.093726
H2    H     H_    0.490773 0.493745 0.147356 0.093782
H3    H     H_    0.508651 0.994042 0.353012 0.093711
H4    H     H_    0.991385 0.005840 0.853023 0.093734
C13   C     C_3   0.959799 0.463556 0.780175 -0.417210
C14   C     C_3   0.540165 0.536070 0.280517 -0.416932
C15   C     C_3   0.459759 0.036449 0.219833 -0.417174
C16   C     C_3   0.040198 0.963559 0.719809 -0.417174
H5    H     H_    0.040402 0.488143 0.837228 0.198202
H6    H     H_    0.460251 0.511321 0.337716 0.198139
H7    H     H_    0.540417 0.011938 0.162775 0.198252
H8    H     H_    0.959632 0.988150 0.662748 0.198211
H9    H     H_    0.039051 0.405494 0.756264 0.189802
H10   H     H_    0.460153 0.593968 0.256776 0.189764
H11   H     H_    0.538963 0.094509 0.243796 0.189904
H12   H     H_    0.960910 0.905500 0.743710 0.189791
H13   H     H_    0.699752 0.453778 0.595236 0.191934
H14   H     H_    0.798732 0.546289 0.095204 0.191815
H15   H     H_    0.199661 0.046137 0.404742 0.191868
H16   H     H_    0.300139 0.953774 0.904767 0.191928
C17   C     C_3   0.639243 0.477413 0.657882 -0.516186
C18   C     C_3   0.859972 0.522724 0.157730 -0.515738
C19   C     C_3   0.139188 0.022519 0.342075 -0.515699
C20   C     C_3   0.360701 0.977410 0.842132 -0.516140
C21   C     C_3   0.648128 0.592515 0.773764 -0.213714
C22   C     C_3   0.852638 0.407624 0.273670 -0.213798
C23   C     C_3   0.148098 0.907414 0.226190 -0.214287
C24   C     C_3   0.351913 0.092509 0.726249 -0.213678
C25   C     C_3   0.742590 0.562114 0.687690 -0.144443
C26   C     C_3   0.757423 0.437866 0.187713 -0.144665
C27   C     C_3   0.242560 0.937833 0.312268 -0.144328
C28   C     C_3   0.257401 0.062112 0.812313 -0.144461
H17   H     H_    0.498442 0.603058 0.761520 0.237070
H18   H     H_    0.002302 0.397236 0.261230 0.236681
H19   H     H_    0.998424 0.896770 0.238411 0.236756
H20   H     H_    0.501599 0.103041 0.738509 0.237095
H21   H     H_    0.704837 0.656835 0.796135 0.218200
H22   H     H_    0.796374 0.343255 0.296150 0.218527
H23   H     H_    0.204881 0.843117 0.203808 0.218138
H24   H     H_    0.295244 0.156830 0.703873 0.218227
C29   C     C_3   0.762668 0.436345 0.811103 -0.130233
C30   C     C_3   0.737341 0.563645 0.311123 -0.130181
C31   C     C_3   0.262629 0.063637 0.188887 -0.130666
C32   C     C_3   0.237336 0.936342 0.688897 -0.130307
C33   C     C_3   0.647037 0.404550 0.730005 0.271166
C34   C     C_3   0.852299 0.595584 0.229859 0.271226
C35   C     C_3   0.146995 0.095410 0.269983 0.271117
C36   C     C_3   0.352930 0.904549 0.770003 0.271161
C37   C     C_3   0.668196 0.521522 0.846677 -0.431501
C38   C     C_3   0.832660 0.478625 0.346587 -0.431378
C39   C     C_3   0.168134 0.978448 0.153298 -0.430555
C40   C     C_3   0.331849 0.021516 0.653332 -0.431467
H25   H     H_    0.750964 0.549133 0.901654 0.202875
H26   H     H_    0.750508 0.450914 0.401718 0.202815
H27   H     H_    0.250874 0.950864 0.098307 0.202879
H28   H     H_    0.249110 0.049128 0.598348 0.202936
H29   H     H_    0.528489 0.505457 0.873243 0.179553
H30   H     H_    0.972477 0.494910 0.372913 0.179550
H31   H     H_    0.028410 0.994509 0.126747 0.179504
H32   H     H_    0.471561 0.005450 0.626776 0.179575
H33   H     H_    0.491345 0.492931 0.643611 0.196489
H34   H     H_    0.007858 0.507421 0.143185 0.195862
H35   H     H_    0.991282 0.006983 0.356315 0.196436
H36   H     H_    0.508595 0.992925 0.856426 0.196475
H37   H     H_    0.502117 0.392973 0.752795 0.078750
H38   H     H_    0.997318 0.607318 0.252447 0.078614
H39   H     H_    0.002081 0.106995 0.247185 0.078751
H40   H     H_    0.497859 0.892979 0.747225 0.078742
N1    N     N_R   0.064703 0.611123 0.732557 0.234150
O21   O     O_R   0.042760 0.649696 0.807754 -0.345862
O22   O     O_R   0.202574 0.634714 0.683047 -0.389076
N2    N     N_R   0.435956 0.388333 0.233005 0.234136
O23   O     O_R   0.458515 0.349845 0.308208 -0.345840
O24   O     O_R   0.298214 0.364376 0.183566 -0.388773
N3    N     N_R   0.564566 0.888819 0.267292 0.234120
O25   O     O_R   0.542761 0.850481 0.191965 -0.345663
O26   O     O_R   0.702373 0.865084 0.316783 -0.389530
N4    N     N_R   0.935329 0.111130 0.767424 0.234159
O27   O     O_R   0.957317 0.149710 0.692233 -0.345866
O28   O     O_R   0.797476 0.134734 0.816935 -0.389026
N5    N     N_R   0.717166 0.321774 0.692922 0.258981
O29   O     O_R   0.607734 0.253693 0.688995 -0.378626
O30   O     O_R   0.871130 0.320405 0.648541 -0.356420
N6    N     N_R   0.781601 0.678277 0.192816 0.259022
O31   O     O_R   0.891665 0.746093 0.187550 -0.377785
O32   O     O_R   0.626556 0.679523 0.149236 -0.356745
N7    N     N_R   0.217140 0.178168 0.307121 0.259110
O33   O     O_R   0.107539 0.246185 0.311282 -0.378481
O34   O     O_R   0.371096 0.179474 0.351529 -0.356149
N8    N     N_R   0.282780 0.821767 0.807075 0.258988
O35   O     O_R   0.392273 0.753723 0.811093 -0.378584
O36   O     O_R   0.128784 0.820392 0.851426 -0.356394

loop_
_geom_bond_atom_site_label_1
_geom_bond_atom_site_label_2
_geom_bond_distance
_ccdc_geom_bond_type
O17   V3    1.779920 S    
C40   H32   1.113079 S    
O1    C5    1.327751 A    
N8    O35   1.298447 A    
H15   C19   1.112679 S    
O19   V1    1.780023 S    
C19   H35   1.113436 S    
O3    C7    1.327732 A    
N3    O25   1.300314 A    
C10   C14   1.551308 S    
C34   N6    1.464738 S    
C32   C36   1.570828 S    
O15   V3    2.019597 S    
C10   C26   1.577508 S    
C31   C39   1.555820 S    
N4    O27   1.300303 A    
C9    C25   1.577496 S    
N7    O33   1.298703 A    
C33   H37   1.115341 S    
O7    C3    1.334324 A    
N1    O22   1.299954 A    
C18   C26   1.550539 S    
C35   H39   1.115338 S    
C24   C28   1.553019 S    
O9    V1    2.018156 S    
C19   C35   1.560971 S    
C39   H27   1.113001 S    
N5    O30   1.301647 A    
C13   C29   1.553501 S    
O4    C8    1.327729 A    
N7    O34   1.301712 A    
C15   C31   1.553477 S    
C33   N5    1.464642 S    
O1    V3    2.019571 S    
O13   V1    2.019514 S    
N2    O23   1.300339 A    
C22   H18   1.106895 S    
O2    V4    2.019569 S    
C14   H6    1.113073 S    
O3    V1    2.019562 S    
C12   H4    1.115069 S    
C38   H30   1.113127 S    
C19   C27   1.550506 S    
C37   H29   1.113074 S    
C1    O15   1.332464 A    
C40   H28   1.113009 S    
C2    O16   1.332424 A    
C39   H31   1.113070 S    
O2    C6    1.327751 A    
N8    O36   1.301600 A    
O14   V2    2.019592 S    
C11   C27   1.577541 S    
C11   C15   1.551340 S    
C8    C26   1.534344 S    
C16   H12   1.109770 S    
O11   C7    1.340227 A    
C12   N4    1.467389 S    
O12   C8    1.340238 A    
C5    C27   1.534268 S    
O10   V2    2.018048 S    
C13   H9    1.109771 S    
N6    O32   1.301866 A    
O5    V1    2.018060 S    
C36   N8    1.464648 S    
C23   C27   1.553054 S    
O7    V3    2.018214 S    
C22   C26   1.553124 S    
O8    V4    2.018177 S    
C16   C32   1.553539 S    
C9    N1    1.467380 S    
C38   H26   1.113065 S    
H13   C17   1.112663 S    
O18   V4    1.779920 S    
C21   H21   1.109303 S    
C9    H1    1.115069 S    
H16   C20   1.112666 S    
C34   H38   1.115374 S    
C1    C32   1.531132 S    
C11   H3    1.115077 S    
O5    C1    1.334282 A    
C3    C30   1.531074 S    
C22   C38   1.555621 S    
C30   C34   1.571049 S    
C29   C33   1.570827 S    
O8    C4    1.334307 A    
C17   H33   1.113420 S    
C4    C29   1.531174 S    
H14   C18   1.112788 S    
C24   H24   1.109309 S    
O9    C5    1.340207 A    
N3    O26   1.299993 A    
C6    C28   1.534291 S    
C21   C37   1.555592 S    
C14   H10   1.109768 S    
O6    V2    2.018170 S    
C23   H19   1.106928 S    
C14   C30   1.553702 S    
C36   H40   1.115346 S    
C17   C33   1.561003 S    
C12   C16   1.551295 S    
C11   N3    1.467462 S    
N6    O31   1.299179 A    
O16   V4    2.019601 S    
C21   H17   1.106841 S    
C3    O13   1.332390 A    
C37   H25   1.113002 S    
C23   C39   1.555745 S    
C10   H2    1.115137 S    
C17   C25   1.550491 S    
C20   H36   1.113421 S    
O6    C2    1.334379 A    
N4    O28   1.299949 A    
C2    C31   1.531237 S    
C12   C28   1.577461 S    
O11   V3    2.018162 S    
C18   H34   1.113513 S    
O12   V4    2.018197 S    
N1    O21   1.300293 A    
C9    C13   1.551311 S    
C7    C25   1.534333 S    
C18   C34   1.560978 S    
C10   N2    1.467490 S    
C32   C40   1.555612 S    
N5    O29   1.298458 A    
C31   C35   1.570838 S    
C20   C36   1.560998 S    
O10   C6    1.340206 A    
C23   H23   1.109327 S    
C15   H11   1.109744 S    
O20   V2    1.780023 S    
N2    O24   1.300052 A    
C24   H20   1.106834 S    
C29   C37   1.555633 S    
C21   C25   1.553019 S    
C20   C28   1.550503 S    
C30   C38   1.555752 S    
C4    O14   1.332441 A    
C13   H5    1.113016 S    
C22   H22   1.109322 S    
C35   N7    1.464683 S    
C15   H7    1.112992 S    
C24   C40   1.555571 S    
O4    V2    2.019482 S    
C16   H8    1.113023 S    
