data_str_m3_o1_o14_f0_pcu.sym.113
_audit_creation_date              2012-12-10T18:45:03-0500
_audit_creation_method            fapswitch 2.2
_symmetry_space_group_name_H-M    P1
_symmetry_Int_Tables_number       1
_space_group_crystal_system       triclinic
_cell_length_a                    10.780943
_cell_length_b                    9.811239
_cell_length_c                    10.67322
_cell_angle_alpha                 86.975828
_cell_angle_beta                  87.336713
_cell_angle_gamma                 88.423639
_cell_volume                      1125.80821151

loop_
_atom_site_label
_atom_site_type_symbol
_atom_type_description
_atom_site_fract_x
_atom_site_fract_y
_atom_site_fract_z
_atom_type_partial_charge
C1    C     C_R   0.259424 0.502022 0.503087 0.896027
C2    C     C_R   0.739811 0.497902 0.500997 0.973185
C3    C     C_R   0.938011 0.579618 0.415396 0.296474
C4    C     C_R   0.060773 0.604733 0.435506 0.388931
C5    C     C_R   0.561555 0.065214 0.588376 -0.072846
C6    C     C_R   0.438080 0.079045 0.412184 -0.020962
C7    C     C_R   0.561483 0.921092 0.588427 -0.048771
C8    C     C_R   0.438567 0.935194 0.412014 0.101353
C9    C     C_R   0.503552 0.504112 0.258140 0.981070
C10   C     C_R   0.487704 0.496792 0.739984 0.809257
C11   C     C_R   0.464602 0.764426 0.082297 -0.098722
C12   C     C_R   0.322715 0.694299 0.881960 -0.111250
C13   C     C_R   0.382669 0.863391 0.026754 -0.004018
C14   C     C_R   0.307017 0.826471 0.929594 -0.055216
C15   C     C_R   0.412665 0.602043 0.934633 0.018102
C16   C     C_R   0.458610 0.626435 0.050735 0.020943
C17   C     C_R   0.506984 0.511543 0.122259 -0.099528
C18   C     C_R   0.465300 0.488749 0.873172 -0.092522
C19   C     C_R   0.538403 0.389612 0.064872 -0.137937
C20   C     C_R   0.523358 0.380767 0.939233 -0.185703
C21   C     C_R   0.062090 0.409965 0.592633 -0.067951
C22   C     C_R   0.932260 0.409390 0.592920 -0.081232
C23   C     C_R   0.872305 0.493646 0.502258 -0.329943
C24   C     C_R   0.125832 0.506842 0.511631 -0.293873
H1    H     H_    0.578696 0.302344 0.116323 0.186616
H2    H     H_    0.560924 0.291767 0.893178 0.158632
H3    H     H_    0.610834 0.114551 0.658760 0.148233
H4    H     H_    0.388547 0.139307 0.342066 0.179510
H5    H     H_    0.610872 0.860973 0.658864 0.154083
H6    H     H_    0.390894 0.886526 0.340685 0.199443
N1    N     N_R   0.500000 0.857200 0.500000 -0.101535
N2    N     N_R   0.500000 0.142810 0.500000 -0.107786
O1    O     O_R   0.316770 0.614620 0.499990 -0.544495
O2    O     O_R   0.683230 0.614620 0.500010 -0.561945
O3    O     O_R   0.316800 0.385290 0.500000 -0.658959
O4    O     O_R   0.683200 0.385290 0.500000 -0.621501
O5    O     O_R   0.500010 0.614690 0.316770 -0.602449
O6    O     O_R   0.499990 0.614690 0.683230 -0.646038
O7    O     O_R   0.500040 0.385360 0.316770 -0.619594
O8    O     O_R   0.499960 0.385360 0.683230 -0.647161
Zn1   Zn    Zn3+2 0.500000 0.653120 0.500000 1.049371
Zn2   Zn    Zn3+2 0.500000 0.346880 0.500000 0.969204
C25   C     C_2   0.580808 0.806352 0.136748 0.448699
H7    H     H_    0.659218 0.735762 0.134398 0.185773
O9    O     O_2   0.593083 0.918478 0.178170 -0.578494
C26   C     C_2   0.235561 0.641913 0.791973 0.524612
H8    H     H_    0.249024 0.539781 0.760373 0.032037
O10   O     O_2   0.144300 0.707191 0.757381 -0.536945
C27   C     C_2   0.382980 0.007185 0.062409 0.493862
H9    H     H_    0.458964 0.072195 0.030000 0.055446
O11   O     O_2   0.298559 0.052917 0.129196 -0.526672
C28   C     C_2   0.225086 0.930992 0.866753 0.521581
H10   H     H_    0.224973 0.940598 0.764985 0.092035
O12   O     O_2   0.155775 0.005424 0.927689 -0.440446
C29   C     C_2   0.129455 0.320057 0.685252 0.507524
H11   H     H_    0.202238 0.249360 0.654704 0.080999
O13   O     O_2   0.103442 0.324739 0.797562 -0.506950
C30   C     C_2   0.858330 0.320209 0.684443 0.566004
H12   H     H_    0.770512 0.357643 0.724963 0.026244
O14   O     O_2   0.892243 0.203028 0.711604 -0.515958
S1    S     S_3+6 0.871024 0.637642 0.273065 0.071698
O15   O     O_2   0.799564 0.767872 0.297058 -0.206936
O16   O     O_2   0.968365 0.663283 0.169605 -0.202459
O17   O     O_3   0.774894 0.520023 0.227068 -0.629644
H13   H     H_    0.827719 0.436818 0.216717 0.365817
S2    S     S_3+6 0.126830 0.762373 0.375476 0.094501
O18   O     O_2   0.182490 0.831361 0.481273 -0.307104
O19   O     O_2   0.225736 0.731060 0.276558 -0.313872
O20   O     O_3   0.023431 0.874793 0.313322 -0.427642
H14   H     H_    0.073677 0.950988 0.276067 0.407791

loop_
_geom_bond_atom_site_label_1
_geom_bond_atom_site_label_2
_ccdc_geom_bond_type
C22   C30   S    
C15   C18   A    
C6    N2    A    
C29   H11   S    
C14   C28   S    
C11   C25   S    
C7    H5    S    
S1    O17   S    
C25   O9    D    
C11   C16   A    
O4    Zn2   S    
C19   C20   A    
C12   C15   A    
C10   O6    A    
C5    N2    A    
O1    Zn1   S    
O17   H13   S    
C2    O2    A    
C9    O5    A    
S2    O18   D    
C8    H6    S    
C13   C14   A    
C4    S2    S    
C11   C13   A    
C22   C23   A    
O20   H14   S    
O2    Zn1   S    
C20   H2    S    
C10   C18   S    
C4    C24   A    
C13   C27   S    
O8    Zn2   S    
C17   C19   A    
C12   C14   A    
C21   C22   A    
C27   H9    S    
O7    Zn2   S    
C18   C20   A    
C29   O13   D    
C25   H7    S    
O5    Zn1   S    
S1    O15   D    
C19   H1    S    
C26   O10   D    
S2    O20   S    
C7    N1    A    
S2    O19   D    
C3    S1    S    
C1    O1    A    
C15   C16   A    
C9    O7    A    
C2    O4    A    
C28   H10   S    
C1    O3    A    
C1    C24   S    
C10   O8    A    
O6    Zn1   S    
C21   C24   A    
C9    C17   S    
C2    C23   S    
C5    C7    A    
O3    Zn2   S    
N2    Zn2   S    
C26   H8    S    
C21   C29   S    
C6    C8    A    
C3    C23   A    
N1    Zn1   S    
C30   H12   S    
C5    H3    S    
C8    N1    A    
C30   O14   D    
S1    O16   D    
C6    H4    S    
C3    C4    A    
C28   O12   D    
C16   C17   A    
C27   O11   D    
C12   C26   S    
