data_str_m2_o14_o16_f0_pcu.sym.59
_audit_creation_date              2012-10-26T19:04:43-0400
_audit_creation_method            fapswitch 2.2
_symmetry_space_group_name_H-M    P1
_symmetry_Int_Tables_number       1
_space_group_crystal_system       triclinic
_cell_length_a                    9.617288
_cell_length_b                    10.855392
_cell_length_c                    13.345329
_cell_angle_alpha                 93.593105
_cell_angle_beta                  73.383815
_cell_angle_gamma                 89.36566
_cell_volume                      1331.82863543

loop_
_atom_site_label
_atom_site_type_symbol
_atom_type_description
_atom_site_fract_x
_atom_site_fract_y
_atom_site_fract_z
_atom_type_partial_charge
C1    C     C_R   0.499391 0.737754 0.496218 0.537188
C2    C     C_R   0.377258 0.516020 0.815570 -0.050933
C3    C     C_R   0.229841 0.891485 0.498929 -0.088968
C4    C     C_R   0.422727 0.506373 0.700232 0.538695
C5    C     C_R   0.097555 0.956732 0.537253 -0.135894
C6    C     C_R   0.092418 0.073624 0.586836 -0.117563
C7    C     C_R   0.221081 0.130134 0.588352 -0.086412
C8    C     C_R   0.357242 0.069060 0.540977 0.020871
C9    C     C_R   0.360284 0.941992 0.511034 0.032756
C10   C     C_R   0.493406 0.872857 0.494777 0.001601
C11   C     C_R   0.621744 0.935125 0.489813 -0.152115
C12   C     C_R   0.423436 0.556633 0.984852 -0.012595
C13   C     C_R   0.621023 0.062488 0.498988 -0.133043
C14   C     C_R   0.490451 0.130740 0.521219 -0.000766
C15   C     C_R   0.912195 0.293354 0.390296 0.265057
C16   C     C_R   0.496443 0.263800 0.509449 0.570039
C17   C     C_R   0.005915 0.189628 0.363559 -0.113168
C18   C     C_R   0.150893 0.202969 0.352894 -0.166273
C19   C     C_R   0.198041 0.315060 0.382280 -0.046389
C20   C     C_R   0.099853 0.406699 0.443499 0.148003
C21   C     C_R   0.949643 0.402437 0.444960 0.155321
C22   C     C_R   0.904159 0.590100 0.552693 -0.014700
C23   C     C_R   0.466024 0.567347 0.875310 -0.014659
C24   C     C_R   0.051212 0.589015 0.553904 -0.005718
C25   C     C_R   0.576596 0.506440 0.300633 0.589070
C26   C     C_R   0.766993 0.641043 0.045534 -0.073484
C27   C     C_R   0.615198 0.535784 0.190492 0.019010
C28   C     C_R   0.245062 0.464667 0.867285 -0.151392
C29   C     C_R   0.193106 0.475097 0.976013 0.248945
C30   C     C_R   0.276312 0.532540 0.035363 0.270052
C31   C     C_R   0.530429 0.568827 0.038597 0.056036
C32   C     C_R   0.663334 0.624136 0.990692 0.046511
C33   C     C_R   0.690675 0.660429 0.888519 -0.123789
C34   C     C_R   0.594530 0.630378 0.830626 -0.097286
C35   C     C_R   0.512839 0.517838 0.135170 -0.065781
C36   C     C_R   0.741509 0.599029 0.145836 -0.048507
Cl1   Cl    Cl    0.805071 0.283449 0.303509 -0.518432
Cl2   Cl    Cl    0.023073 0.413958 0.035302 -0.518539
Cu1   Cu    Cu3+1 0.359340 0.500010 0.500010 0.953519
Cu2   Cu    Cu3+1 0.640660 0.499990 0.499990 0.988526
H1    H     H_    0.819173 0.617073 0.189195 0.197589
H2    H     H_    0.312349 0.325481 0.355854 0.194319
H3    H     H_    0.789573 0.706854 0.851626 0.106637
H4    H     H_    0.087307 0.661772 0.598823 0.115097
H5    H     H_    0.867388 0.686594 0.010935 0.162803
H6    H     H_    0.417472 0.465538 0.168862 0.166736
H7    H     H_    0.179200 0.419644 0.822959 0.162165
H8    H     H_    0.621085 0.659845 0.751879 0.137517
H9    H     H_    0.724428 0.885416 0.476594 0.136039
H10   H     H_    0.006574 0.563582 0.285685 0.367647
H11   H     H_    0.226995 0.804894 0.455712 0.177616
H12   H     H_    0.998698 0.915835 0.529367 0.105532
H13   H     H_    0.989237 0.122587 0.620389 0.119456
H14   H     H_    0.212399 0.221117 0.627922 0.145765
H15   H     H_    0.723554 0.107373 0.488161 0.143669
H16   H     H_    0.831525 0.664345 0.595813 0.102185
H17   H     H_    0.973906 0.104555 0.330317 0.171079
H18   H     H_    0.228178 0.129058 0.314949 0.155365
N1    N     N_R   0.852480 0.498790 0.499000 -0.250849
N2    N     N_R   0.148360 0.498710 0.498970 -0.242801
O1    O     O_R   0.381190 0.680360 0.500010 -0.515428
O2    O     O_2   0.074308 0.702466 0.132718 -0.306559
O3    O     O_3   0.091740 0.515277 0.240194 -0.487896
O4    O     O_R   0.618760 0.680340 0.500000 -0.523979
O5    O     O_R   0.323240 0.499990 0.650990 -0.510043
O6    O     O_R   0.560820 0.499960 0.650980 -0.507327
O7    O     O_R   0.381240 0.319660 0.500000 -0.541885
O8    O     O_R   0.618810 0.319640 0.499990 -0.467053
O9    O     O_R   0.439180 0.500040 0.349020 -0.506685
O10   O     O_R   0.676760 0.500010 0.349010 -0.436492
O11   O     O_2   0.280031 0.688998 0.203793 -0.289828
S1    S     S_3+6 0.181736 0.614830 0.155470 0.014815

loop_
_geom_bond_atom_site_label_1
_geom_bond_atom_site_label_2
_ccdc_geom_bond_type
C29   Cl2   S    
C2    C4    S    
C28   H7    S    
C26   C32   A    
C6    C7    A    
C3    C9    A    
C27   C36   A    
C20   N2    A    
C11   C13   A    
C9    C10   A    
C30   S1    S    
C19   C20   A    
Cu2   O4    S    
C19   H2    S    
C15   C21   A    
C24   N2    A    
C23   C34   A    
C27   C35   A    
C32   C33   A    
C2    C23   A    
C17   C18   A    
Cu1   O9    S    
O2    S1    D    
O11   S1    D    
C5    H12   S    
Cu2   N1    S    
Cu2   O6    S    
C13   C14   A    
O3    S1    S    
C2    C28   A    
C4    O6    A    
H10   O3    S    
Cu1   O5    S    
C12   C23   A    
C36   H1    S    
C29   C30   A    
Cu2   O10   S    
C4    O5    A    
C16   O8    A    
Cu1   N2    S    
C22   C24   A    
C26   C36   A    
C28   C29   A    
C33   C34   A    
C21   N1    A    
C31   C35   A    
C7    H14   S    
C12   C31   A    
C5    C6    A    
C24   H4    S    
C14   C16   S    
C25   O9    A    
C10   C11   A    
C6    H13   S    
C16   O7    A    
C33   H3    S    
C1    O4    A    
C3    C5    A    
C22   N1    A    
Cu1   O1    S    
C34   H8    S    
C20   C21   A    
C7    C8    A    
Cu2   O8    S    
Cu1   Cu2   S    
C15   C17   A    
C3    H11   S    
C11   H9    S    
C18   C19   A    
C22   H16   S    
C25   O10   A    
C8    C14   A    
C26   H5    S    
C12   C30   A    
C35   H6    S    
Cu1   O7    S    
C18   H18   S    
C15   Cl1   S    
C1    C10   S    
C31   C32   A    
C17   H17   S    
C8    C9    A    
C13   H15   S    
C25   C27   S    
C1    O1    A    
