data_str_m4_o4_o15_f0_acs.sym.144
_audit_creation_date              2012-12-11T15:44:52-0500
_audit_creation_method            fapswitch 2.2
_symmetry_space_group_name_H-M    P1
_symmetry_Int_Tables_number       1
_space_group_crystal_system       triclinic
_cell_length_a                    18.929193
_cell_length_b                    10.979785
_cell_length_c                    18.733359
_cell_angle_alpha                 89.863038
_cell_angle_beta                  90.266594
_cell_angle_gamma                 89.676236
_cell_volume                      3893.3969822

loop_
_atom_site_label
_atom_site_type_symbol
_atom_type_description
_atom_site_fract_x
_atom_site_fract_y
_atom_site_fract_z
_atom_type_partial_charge
C1    C     C_R   0.775850 0.479496 0.638288 0.559262
C2    C     C_R   0.224807 0.481173 0.362124 0.556664
C3    C     C_R   0.275850 0.979498 0.638288 0.559247
C4    C     C_R   0.724840 0.981287 0.362130 0.556692
C5    C     C_R   0.795820 0.979705 0.549243 -0.161500
C6    C     C_R   0.240311 0.169506 0.477423 -0.140240
C7    C     C_R   0.295788 0.479643 0.549242 -0.161429
C8    C     C_R   0.740457 0.669546 0.477407 -0.140210
C9    C     C_R   0.788614 0.958704 0.476650 -0.181419
C10   C     C_R   0.253314 0.136830 0.548024 -0.112184
C11   C     C_R   0.288523 0.458470 0.476667 -0.181182
C12   C     C_R   0.753444 0.636862 0.548007 -0.112136
C13   C     C_3   0.628782 0.162736 0.466709 -0.262174
C14   C     C_3   0.304768 0.821581 0.489593 -0.285338
C15   C     C_3   0.128795 0.662745 0.466655 -0.262113
C16   C     C_3   0.804717 0.321565 0.489597 -0.285398
C17   C     C_3   0.638461 0.191519 0.545550 -0.279990
C18   C     C_3   0.290303 0.857636 0.412496 -0.276435
C19   C     C_3   0.138490 0.691595 0.545482 -0.279993
C20   C     C_3   0.790253 0.357615 0.412505 -0.276518
C21   C     C_R   0.746610 0.054178 0.585072 0.024110
C22   C     C_R   0.245529 0.082889 0.422984 0.033875
C23   C     C_R   0.246607 0.554194 0.585055 0.024037
C24   C     C_R   0.745546 0.582862 0.422977 0.033867
C25   C     C_R   0.986829 0.334097 0.419324 -0.066333
C26   C     C_R   0.994375 0.351951 0.569189 0.010082
C27   C     C_R   0.486844 0.834108 0.419330 -0.066338
C28   C     C_R   0.494379 0.851979 0.569192 0.010101
C29   C     C_R   0.989515 0.108251 0.432670 0.050499
C30   C     C_R   0.042962 0.139841 0.572021 0.038693
C31   C     C_R   0.489526 0.608261 0.432700 0.050548
C32   C     C_R   0.543014 0.639908 0.572033 0.038679
C33   C     C_R   0.013624 0.008183 0.472751 -0.102600
C34   C     C_R   0.042586 0.024638 0.540291 -0.172816
C35   C     C_R   0.513649 0.508210 0.472791 -0.102503
C36   C     C_R   0.542638 0.524695 0.540317 -0.172834
C37   C     C_R   0.011938 0.240637 0.535066 0.007742
C38   C     C_R   0.995847 0.227587 0.461494 -0.048717
C39   C     C_R   0.511970 0.740679 0.535073 0.007775
C40   C     C_R   0.495877 0.727608 0.461504 -0.048684
C41   C     C_R   0.977066 0.458060 0.526001 0.002375
C42   C     C_R   0.967115 0.443864 0.451975 0.001256
C43   C     C_R   0.477058 0.958082 0.526003 0.002360
C44   C     C_R   0.467126 0.943882 0.451974 0.001288
C45   C     C_R   0.771560 0.120021 0.648006 0.544427
C46   C     C_R   0.228117 0.121452 0.352033 0.527008
C47   C     C_R   0.271560 0.620022 0.648004 0.544411
C48   C     C_R   0.728119 0.621447 0.352032 0.527087
C49   C     C_R   0.967675 0.578708 0.553175 -0.081482
C50   C     C_R   0.937590 0.540378 0.410805 -0.083833
C51   C     C_R   0.467631 0.078726 0.553175 -0.081517
C52   C     C_R   0.437602 0.040389 0.410796 -0.083871
C53   C     C_R   0.939545 0.672913 0.511728 -0.148969
C54   C     C_R   0.922850 0.652849 0.440892 -0.119875
C55   C     C_R   0.439508 0.172922 0.511717 -0.148962
C56   C     C_R   0.422845 0.152856 0.440875 -0.119906
C57   C     C_R   0.742480 0.052725 0.069639 0.011688
C58   C     C_R   0.243778 0.090693 0.919824 0.018146
C59   C     C_R   0.242480 0.552727 0.069639 0.011685
C60   C     C_R   0.743779 0.590692 0.919825 0.018146
C61   C     C_R   0.795759 0.993870 0.031915 0.037714
C62   C     C_R   0.184149 0.051956 0.957420 0.030966
C63   C     C_R   0.295759 0.493873 0.031915 0.037719
C64   C     C_R   0.684149 0.551956 0.957421 0.030966
C65   C     C_R   0.800015 0.002617 0.959189 0.031248
C66   C     C_R   0.181246 0.062524 0.030135 0.039936
C67   C     C_R   0.300016 0.502619 0.959190 0.031251
C68   C     C_R   0.681247 0.562523 0.030135 0.039949
C69   C     C_R   0.689444 0.112138 0.955869 -0.164606
C70   C     C_R   0.290415 0.172818 0.030751 -0.161366
C71   C     C_R   0.189445 0.612140 0.955869 -0.164610
C72   C     C_R   0.790416 0.672816 0.030751 -0.161367
C73   C     C_R   0.685672 0.103571 0.030607 -0.161238
C74   C     C_R   0.293584 0.162699 0.956041 -0.165405
C75   C     C_R   0.185673 0.603574 0.030608 -0.161238
C76   C     C_R   0.793585 0.662698 0.956041 -0.165404
C77   C     C_3   0.873729 0.997986 0.042745 -0.277745
C78   C     C_3   0.148143 0.930686 0.960009 -0.272027
C79   C     C_3   0.373730 0.497989 0.042745 -0.277768
C80   C     C_3   0.648139 0.430689 0.960009 -0.272019
C81   C     C_3   0.879153 0.008063 0.962521 -0.272460
C82   C     C_3   0.145065 0.943611 0.040190 -0.279410
C83   C     C_3   0.379154 0.508066 0.962522 -0.272446
C84   C     C_3   0.645065 0.443610 0.040190 -0.279423
C85   C     C_R   0.750797 0.072451 0.920587 0.018925
C86   C     C_R   0.236703 0.112821 0.068855 0.014125
C87   C     C_R   0.250797 0.572453 0.920587 0.018921
C88   C     C_R   0.736704 0.612819 0.068856 0.014133
C89   C     C_R   0.968999 0.348685 0.644601 0.585154
C90   C     C_R   0.025939 0.345079 0.351305 0.517205
C91   C     C_R   0.468997 0.848691 0.644600 0.585166
C92   C     C_R   0.525944 0.845081 0.351307 0.517166
C93   C     C_R   0.019659 0.340918 0.068584 0.016089
C94   C     C_R   0.008867 0.341767 0.920101 0.020391
C95   C     C_R   0.519659 0.840918 0.068584 0.016100
C96   C     C_R   0.508866 0.841768 0.920101 0.020390
C97   C     C_R   0.024199 0.449155 0.030397 0.040938
C98   C     C_R   0.019446 0.450485 0.957680 0.031605
C99   C     C_R   0.524196 0.949156 0.030397 0.040943
C100  C     C_R   0.519442 0.950486 0.957681 0.031607
C101  C     C_R   0.018972 0.230752 0.956192 -0.165968
C102  C     C_R   0.023433 0.230230 0.030821 -0.161470
C103  C     C_R   0.518974 0.730753 0.956192 -0.165968
C104  C     C_R   0.523436 0.730231 0.030820 -0.161468
C105  C     C_3   0.983450 0.564413 0.039605 -0.280404
C106  C     C_3   0.977617 0.567305 0.959290 -0.270510
C107  C     C_3   0.483442 0.064408 0.039607 -0.280417
C108  C     C_3   0.477608 0.067300 0.959292 -0.270508
C109  C     C_R   0.759614 0.533920 0.851534 0.560470
C110  C     C_R   0.237919 0.527327 0.145528 0.549534
C111  C     C_R   0.259614 0.033920 0.851534 0.560474
C112  C     C_R   0.737919 0.027326 0.145528 0.549539
C113  C     C_R   0.771769 0.123646 0.852253 0.551820
C114  C     C_R   0.225817 0.131384 0.144738 0.539106
C115  C     C_R   0.271769 0.623646 0.852253 0.551812
C116  C     C_R   0.725817 0.631383 0.144738 0.539143
C117  C     C_R   0.971726 0.346914 0.852527 0.560791
C118  C     C_R   0.033339 0.347107 0.144250 0.538593
C119  C     C_R   0.471726 0.846914 0.852527 0.560795
C120  C     C_R   0.533339 0.847107 0.144250 0.538598
C121  C     C_R   0.729158 0.002549 0.439058 -0.008065
C122  C     C_R   0.268332 0.015039 0.564684 0.029817
C123  C     C_R   0.229091 0.502370 0.439053 -0.008047
C124  C     C_R   0.768341 0.515017 0.564680 0.029829
C125  C     C_R   0.673231 0.051666 0.478830 0.021409
C126  C     C_R   0.259819 0.927035 0.511507 -0.021908
C127  C     C_R   0.173214 0.551665 0.478817 0.021371
C128  C     C_R   0.759751 0.426998 0.511516 -0.021891
C129  C     C_R   0.682121 0.078466 0.550767 0.032689
C130  C     C_R   0.247545 0.960347 0.441527 0.024289
C131  C     C_R   0.182123 0.578516 0.550745 0.032634
C132  C     C_R   0.747478 0.460313 0.441529 0.024286
Cr1   Cr    Cr6+3 0.885860 0.491680 0.749630 1.006817
Cr2   Cr    Cr6+3 0.114140 0.491680 0.250370 1.015126
Cr3   Cr    Cr6+3 0.385860 0.991680 0.749630 1.006816
Cr4   Cr    Cr6+3 0.614140 0.991680 0.250370 1.015096
Cr5   Cr    Cr6+3 0.730490 0.332970 0.748720 0.995613
Cr6   Cr    Cr6+3 0.269510 0.332970 0.251280 1.035311
Cr7   Cr    Cr6+3 0.230490 0.832970 0.748720 0.995636
Cr8   Cr    Cr6+3 0.769510 0.832970 0.251280 1.035226
Cr9   Cr    Cr6+3 0.887570 0.179310 0.750150 1.005580
Cr10  Cr    Cr6+3 0.112430 0.179310 0.249850 1.044670
Cr11  Cr    Cr6+3 0.387570 0.679310 0.750150 1.005596
Cr12  Cr    Cr6+3 0.612430 0.679310 0.249850 1.044219
H1    H     H_    0.844666 0.950283 0.574407 0.144892
H2    H     H_    0.223842 0.260867 0.465122 0.125177
H3    H     H_    0.344638 0.450223 0.574407 0.144881
H4    H     H_    0.724107 0.760992 0.465095 0.125233
H5    H     H_    0.931968 0.762549 0.534521 0.102149
H6    H     H_    0.900641 0.725500 0.408573 0.147973
H7    H     H_    0.431911 0.262553 0.534507 0.102207
H8    H     H_    0.400643 0.225499 0.408546 0.148201
H9    H     H_    0.647579 0.158366 0.926862 0.122330
H10   H     H_    0.330853 0.223471 0.058550 0.133084
H11   H     H_    0.147580 0.658369 0.926863 0.122329
H12   H     H_    0.830855 0.723468 0.058551 0.133087
H13   H     H_    0.639999 0.140084 0.057736 0.132193
H14   H     H_    0.337525 0.202617 0.927806 0.122190
H15   H     H_    0.140001 0.640088 0.057736 0.132200
H16   H     H_    0.837526 0.702616 0.927806 0.122189
H17   H     H_    0.895625 0.911164 0.064159 0.138697
H18   H     H_    0.183682 0.855781 0.943206 0.166258
H19   H     H_    0.395626 0.411167 0.064160 0.138666
H20   H     H_    0.683675 0.355781 0.943203 0.166260
H21   H     H_    0.891057 0.081429 0.071290 0.139884
H22   H     H_    0.095252 0.932653 0.933958 0.127219
H23   H     H_    0.391057 0.581432 0.071290 0.139853
H24   H     H_    0.595246 0.432661 0.933960 0.127215
H25   H     H_    0.899443 0.097738 0.945229 0.165834
H26   H     H_    0.090396 0.954059 0.060647 0.137584
H27   H     H_    0.399443 0.597741 0.945230 0.165834
H28   H     H_    0.590397 0.454059 0.060649 0.137550
H29   H     H_    0.904677 0.927503 0.937420 0.127498
H30   H     H_    0.178418 0.875880 0.069222 0.138332
H31   H     H_    0.404678 0.427506 0.937420 0.127498
H32   H     H_    0.678417 0.375875 0.069219 0.138322
H33   H     H_    0.016752 0.145034 0.927875 0.123263
H34   H     H_    0.027269 0.144118 0.058735 0.135327
H35   H     H_    0.516757 0.645036 0.927874 0.123262
H36   H     H_    0.527276 0.644119 0.058734 0.135311
H37   H     H_    0.015905 0.639543 0.061585 0.136974
H38   H     H_    0.922471 0.555214 0.940870 0.167752
H39   H     H_    0.515894 0.139542 0.061587 0.136957
H40   H     H_    0.422462 0.055201 0.940872 0.167752
H41   H     H_    0.932009 0.550057 0.066726 0.136533
H42   H     H_    0.006398 0.644548 0.934574 0.126569
H43   H     H_    0.432003 0.050047 0.066729 0.136527
H44   H     H_    0.506385 0.144547 0.934575 0.126572
H45   H     H_    0.830834 0.910398 0.449818 0.155923
H46   H     H_    0.250718 0.205602 0.589335 0.168265
H47   H     H_    0.330708 0.410062 0.449847 0.156176
H48   H     H_    0.750939 0.705685 0.589307 0.168117
H49   H     H_    0.073954 0.639292 0.451831 0.176537
H50   H     H_    0.781546 0.233126 0.502709 0.149309
H51   H     H_    0.573944 0.139257 0.451872 0.176543
H52   H     H_    0.281587 0.733152 0.502709 0.149284
H53   H     H_    0.653468 0.230467 0.430896 0.148048
H54   H     H_    0.359912 0.830193 0.507330 0.142184
H55   H     H_    0.153498 0.730400 0.430814 0.148124
H56   H     H_    0.859862 0.330208 0.507333 0.142181
H57   H     H_    0.668313 0.275558 0.556080 0.158118
H58   H     H_    0.337276 0.886845 0.382497 0.125031
H59   H     H_    0.168362 0.775611 0.555988 0.158107
H60   H     H_    0.837227 0.386845 0.382513 0.125035
H61   H     H_    0.589811 0.185448 0.577365 0.128812
H62   H     H_    0.257626 0.790599 0.383143 0.147211
H63   H     H_    0.089832 0.685618 0.577288 0.128769
H64   H     H_    0.757587 0.290567 0.383148 0.147170
H65   H     H_    0.010658 0.916623 0.451580 0.151250
H66   H     H_    0.064667 0.946527 0.568150 0.098781
H67   H     H_    0.510683 0.416639 0.451636 0.151310
H68   H     H_    0.564733 0.446599 0.568179 0.098795
H69   H     H_    0.924875 0.528378 0.354835 0.125078
H70   H     H_    0.985335 0.607263 0.605069 0.149101
H71   H     H_    0.424899 0.028387 0.354823 0.125091
H72   H     H_    0.485258 0.107298 0.605076 0.149115
O1    O     O_R   0.957020 0.451640 0.669920 -0.539497
O2    O     O_R   0.042980 0.451640 0.330080 -0.521461
O3    O     O_R   0.457020 0.951640 0.669920 -0.539505
O4    O     O_R   0.542980 0.951640 0.330080 -0.521405
O5    O     O_R   0.736470 0.210100 0.823360 -0.508555
O6    O     O_R   0.263530 0.210100 0.176640 -0.509602
O7    O     O_R   0.236470 0.710100 0.823360 -0.508561
O8    O     O_R   0.763530 0.710100 0.176640 -0.509576
O9    O     O_R   0.831960 0.093290 0.830130 -0.520886
O10   O     O_R   0.168040 0.093290 0.169870 -0.514489
O11   O     O_R   0.331960 0.593290 0.830130 -0.520886
O12   O     O_R   0.668040 0.593290 0.169870 -0.514548
O13   O     O_R   0.945600 0.250580 0.824860 -0.506584
O14   O     O_R   0.054400 0.250580 0.175140 -0.505194
O15   O     O_R   0.445600 0.750580 0.824860 -0.506584
O16   O     O_R   0.554400 0.750580 0.175140 -0.505299
O17   O     O_3   0.834640 0.334650 0.749500 -0.267641
O18   O     O_3   0.165360 0.334650 0.250500 -0.272437
O19   O     O_3   0.334640 0.834650 0.749500 -0.267649
O20   O     O_3   0.665360 0.834650 0.250500 -0.272268
O21   O     O_R   0.821450 0.543440 0.674610 -0.499203
O22   O     O_R   0.178550 0.543440 0.325390 -0.499570
O23   O     O_R   0.321450 0.043440 0.674610 -0.499200
O24   O     O_R   0.678550 0.043440 0.325390 -0.499546
O25   O     O_R   0.715320 0.458650 0.668100 -0.527813
O26   O     O_R   0.284680 0.458650 0.331900 -0.491075
O27   O     O_R   0.215320 0.958650 0.668100 -0.527743
O28   O     O_R   0.784680 0.958650 0.331900 -0.491608
O29   O     O_R   0.737170 0.209590 0.674530 -0.517870
O30   O     O_R   0.262830 0.209590 0.325470 -0.528182
O31   O     O_R   0.237170 0.709590 0.674530 -0.517851
O32   O     O_R   0.762830 0.709590 0.325470 -0.528125
O33   O     O_R   0.832710 0.092740 0.669580 -0.526408
O34   O     O_R   0.167290 0.092740 0.330420 -0.493755
O35   O     O_R   0.332710 0.592740 0.669580 -0.526390
O36   O     O_R   0.667290 0.592740 0.330420 -0.493917
O37   O     O_R   0.946290 0.250060 0.676040 -0.496200
O38   O     O_R   0.053710 0.250060 0.323960 -0.492056
O39   O     O_R   0.446290 0.750060 0.676040 -0.496189
O40   O     O_R   0.553710 0.750060 0.323960 -0.492357
O41   O     O_R   0.956270 0.452200 0.830470 -0.520739
O42   O     O_R   0.043730 0.452200 0.169530 -0.520833
O43   O     O_R   0.456270 0.952200 0.830470 -0.520736
O44   O     O_R   0.543730 0.952200 0.169530 -0.520828
O45   O     O_R   0.820760 0.543950 0.823440 -0.504559
O46   O     O_R   0.179240 0.543950 0.176560 -0.503954
O47   O     O_R   0.320760 0.043950 0.823440 -0.504563
O48   O     O_R   0.679240 0.043950 0.176560 -0.503967
O49   O     O_R   0.714570 0.459210 0.828640 -0.519336
O50   O     O_R   0.285430 0.459210 0.171360 -0.503813
O51   O     O_R   0.214570 0.959210 0.828640 -0.519328
O52   O     O_R   0.785430 0.959210 0.171360 -0.503791
C133  C     C_2   0.950707 0.085685 0.364828 0.262254
H73   H     H_    0.921021 0.158693 0.339270 0.103026
O53   O     O_2   0.950962 0.985173 0.336970 -0.525755
C134  C     C_2   0.082536 0.151931 0.640164 0.252123
H74   H     H_    0.089350 0.073295 0.674757 0.121246
O54   O     O_2   0.110434 0.247794 0.656888 -0.517579
C135  C     C_2   0.450666 0.585661 0.364889 0.262209
H75   H     H_    0.421264 0.658780 0.339132 0.103249
O55   O     O_2   0.450472 0.484965 0.337325 -0.526023
C136  C     C_2   0.582603 0.652037 0.640164 0.252059
H76   H     H_    0.589471 0.573415 0.674735 0.121376
O56   O     O_2   0.610454 0.747924 0.656901 -0.517545

loop_
_geom_bond_atom_site_label_1
_geom_bond_atom_site_label_2
_ccdc_geom_bond_type
C51   H72   S    
C58   C62   A    
Cr11  O39   S    
C119  O43   A    
C55   C56   A    
C82   H26   S    
C67   C83   S    
C101  C102  A    
C72   H12   S    
C83   H31   S    
Cr4   O48   S    
Cr9   O33   S    
C41   C42   A    
C14   C18   S    
C48   O36   A    
C35   C36   A    
Cr10  O38   S    
C75   H15   S    
C72   C76   A    
C31   C135  S    
Cr3   O43   S    
C120  O16   A    
C47   O31   A    
C97   C98   A    
Cr1   O45   S    
C69   C85   A    
C54   H6    S    
C63   C79   S    
C53   C54   A    
C26   C89   S    
C15   C19   S    
C14   H54   S    
C25   C90   S    
C50   C54   A    
C95   C120  S    
C13   H53   S    
C116  O12   A    
Cr10  O34   S    
C64   C68   A    
C115  O7    A    
C16   C20   S    
C135  O55   D    
C66   C86   A    
C112  O48   A    
C65   C81   S    
C6    H2    S    
C94   C117  S    
C95   C99   A    
Cr10  O14   S    
C57   C112  S    
C66   C82   S    
C94   C98   A    
C113  O5    A    
Cr9   O13   S    
C6    C22   A    
Cr5   O5    S    
C59   C110  S    
C117  O41   A    
C31   C40   A    
Cr8   O32   S    
C93   C97   A    
C32   C39   A    
C57   C73   A    
C92   O4    A    
C35   H67   S    
C70   C74   A    
C80   H20   S    
C127  C131  A    
C60   C109  S    
C34   H66   S    
C45   O33   A    
C121  C125  A    
C52   C56   A    
C33   H65   S    
C27   C44   A    
C46   O34   A    
C135  H75   S    
C29   C33   A    
C61   C77   S    
C134  H74   S    
C79   H19   S    
C11   H47   S    
C83   H27   S    
C29   C38   A    
Cr4   O44   S    
C9    C121  A    
C107  C108  S    
Cr8   O52   S    
C69   C73   A    
C81   H25   S    
C56   H8    S    
Cr7   O27   S    
C112  O52   A    
C51   C55   A    
C16   H56   S    
C3    C122  S    
C80   C84   S    
C124  C128  A    
C97   C105  S    
C122  C126  A    
C44   C52   A    
Cr1   O41   S    
Cr12  O36   S    
C100  C108  S    
C71   H11   S    
Cr2   O46   S    
C15   C127  S    
C133  H73   S    
C22   C130  A    
C15   H49   S    
C53   H5    S    
C64   C80   S    
C19   H63   S    
C18   H62   S    
C8    H4    S    
Cr5   O49   S    
C4    C121  S    
C20   C132  S    
C9    H45   S    
C128  C132  A    
Cr5   O17   S    
C41   C49   A    
C72   C88   A    
C62   C78   S    
Cr10  O10   S    
C46   O30   A    
C21   C45   S    
C14   C126  S    
C134  O54   D    
C19   C131  S    
C12   H48   S    
C63   C67   A    
C78   H22   S    
C5    H1    S    
Cr12  O20   S    
C17   C129  S    
C58   C111  S    
C68   C84   S    
C82   H30   S    
C62   C66   A    
C30   C134  S    
C88   C116  S    
C20   H60   S    
C109  O49   A    
C70   H10   S    
C126  C130  A    
C45   O29   A    
C39   C40   A    
C133  O53   D    
C30   C34   A    
Cr8   O8    S    
C3    O27   A    
Cr6   O50   S    
C28   C39   A    
C1    O21   A    
Cr2   O2    S    
C49   H70   S    
C60   C76   A    
C7    H3    S    
Cr1   O1    S    
C30   C37   A    
C107  H39   S    
Cr8   O28   S    
C50   H69   S    
C81   H29   S    
C116  O8    A    
C7    C11   A    
C43   C44   A    
C115  O11   A    
C37   C38   A    
Cr6   O30   S    
C110  O46   A    
C125  C129  A    
C25   C38   A    
C114  O10   A    
Cr9   O9    S    
Cr5   O29   S    
C78   C82   S    
C24   C48   S    
C113  O9    A    
C99   C100  A    
C12   C124  A    
C77   C81   S    
C27   C40   A    
C8    C12   A    
Cr3   O3    S    
C19   H59   S    
C33   C34   A    
C4    O24   A    
C23   C131  A    
C27   C92   S    
C18   H58   S    
C10   H46   S    
C114  O6    A    
C74   H14   S    
C17   H57   S    
C16   C128  S    
C21   C129  A    
C105  H41   S    
C106  H42   S    
C1    O25   A    
C36   H68   S    
C84   H32   S    
C71   C87   A    
C92   O40   A    
C94   C101  A    
C22   C46   S    
C42   C50   A    
C78   H18   S    
C96   C119  S    
Cr4   O24   S    
Cr7   O19   S    
C91   O3    A    
C102  H34   S    
C136  O56   D    
Cr6   O18   S    
C13   H51   S    
C93   C118  S    
C20   H64   S    
C109  O45   A    
C117  O13   A    
C70   C86   A    
C59   C75   A    
C123  C127  A    
C110  O50   A    
C4    O28   A    
C32   C136  S    
C95   C104  A    
C58   C74   A    
C87   C115  S    
Cr7   O7    S    
C55   H7    S    
C2    O26   A    
C14   H52   S    
C76   H16   S    
C86   C114  S    
Cr1   O17   S    
C93   C102  A    
C59   C63   A    
C108  H44   S    
C2    O22   A    
C71   C75   A    
Cr3   O19   S    
Cr11  O11   S    
C84   H28   S    
Cr6   O26   S    
C25   C42   A    
Cr11  O35   S    
C32   C36   A    
C26   C37   A    
C57   C61   A    
Cr3   O47   S    
Cr4   O4    S    
C108  H40   S    
C119  O15   A    
C11   C123  A    
C99   C107  S    
C105  C106  S    
C28   C43   A    
C67   C87   A    
C98   C106  S    
C18   C130  S    
C13   C17   S    
C60   C64   A    
C29   C133  S    
C23   C47   S    
C85   C113  S    
C73   H13   S    
C1    C124  S    
C111  O51   A    
C48   O32   A    
C65   C85   A    
C120  O44   A    
C79   C83   S    
C24   C132  A    
Cr12  O40   S    
C43   C51   A    
Cr7   O31   S    
C104  H36   S    
C7    C23   A    
C91   O39   A    
Cr5   O25   S    
C118  O14   A    
C68   C88   A    
C96   C100  A    
C31   C35   A    
C17   H61   S    
Cr2   O42   S    
C8    C24   A    
C77   H17   S    
Cr3   O23   S    
C15   H55   S    
C28   C91   S    
C103  H35   S    
C52   H71   S    
Cr4   O20   S    
C90   O38   A    
Cr11  O15   S    
C69   H9    S    
Cr12  O16   S    
C90   O2    A    
C49   C53   A    
C16   H50   S    
C6    C10   A    
Cr2   O22   S    
C89   O1    A    
Cr1   O21   S    
Cr11  O19   S    
C61   C65   A    
C10   C122  A    
Cr10  O18   S    
C47   O35   A    
Cr9   O37   S    
Cr9   O17   S    
C118  O42   A    
C5    C21   A    
C96   C103  A    
Cr7   O51   S    
C103  C104  A    
Cr8   O20   S    
C79   H23   S    
Cr6   O6    S    
C136  H76   S    
Cr12  O12   S    
C107  H43   S    
C89   O37   A    
C5    C9    A    
C105  H37   S    
C111  O47   A    
C77   H21   S    
C13   C125  S    
C80   H24   S    
C101  H33   S    
C2    C123  S    
C106  H38   S    
C26   C41   A    
C3    O23   A    
Cr2   O18   S    
