data_str_m9_o11_o18_f0_sra.sym.145
_audit_creation_date              2012-12-11T14:21:06-0500
_audit_creation_method            fapswitch 2.2
_symmetry_space_group_name_H-M    P1
_symmetry_Int_Tables_number       1
_space_group_crystal_system       triclinic
_cell_length_a                    21.999331
_cell_length_b                    7.206959
_cell_length_c                    14.920607
_cell_angle_alpha                 89.900464
_cell_angle_beta                  106.931667
_cell_angle_gamma                 89.959978
_cell_volume                      2263.08752268

loop_
_atom_site_label
_atom_site_type_symbol
_atom_type_description
_atom_site_fract_x
_atom_site_fract_y
_atom_site_fract_z
_atom_type_partial_charge
O1    O     O_R   0.584770 0.505770 0.002090 -0.538006
O2    O     O_R   0.415230 0.005770 0.997910 -0.538272
O3    O     O_R   0.467060 0.173340 0.861950 -0.539220
O4    O     O_R   0.532940 0.673340 0.138050 -0.539579
C1    C     C_R   0.455209 0.344341 0.825997 0.681126
C2    C     C_R   0.544821 0.843920 0.174053 0.681096
O5    O     O_R   0.587510 0.175890 0.993210 -0.544275
O6    O     O_R   0.412490 0.675890 0.006790 -0.544238
O7    O     O_R   0.536540 0.008150 0.130100 -0.536756
O8    O     O_R   0.463460 0.508150 0.869900 -0.536673
C3    C     C_R   0.613230 0.344538 0.999625 0.722296
C4    C     C_R   0.386767 0.844647 0.000372 0.722629
O9    O     O_3   0.483140 0.340040 0.044760 -0.377241
O10   O     O_3   0.516860 0.840040 0.955240 -0.376917
V1    V     V_3+5 0.503130 0.064190 0.991700 1.435589
V2    V     V_3+5 0.496870 0.564190 0.008300 1.435372
C5    C     C_2   0.213375 0.737411 0.997255 -0.157242
C6    C     C_2   0.786610 0.237337 0.002348 -0.156387
C7    C     C_2   0.184036 0.888760 0.020148 -0.145134
C8    C     C_2   0.815955 0.389223 0.979933 -0.144043
H1    H     H_    0.184784 0.617333 0.967655 0.119485
H2    H     H_    0.815189 0.116647 0.031511 0.119440
C9    C     C_2   0.282811 0.718834 0.008388 -0.090912
C10   C     C_2   0.717177 0.218866 0.991219 -0.091100
C11   C     C_2   0.318426 0.860016 0.992728 -0.236425
C12   C     C_2   0.681575 0.359700 0.007309 -0.237058
H3    H     H_    0.303585 0.581369 0.023223 0.131562
H4    H     H_    0.696393 0.081678 0.975989 0.132060
H5    H     H_    0.296409 0.994224 0.971652 0.133558
H6    H     H_    0.703598 0.493525 0.028735 0.134139
C13   C     C_R   0.926684 0.889678 0.724081 -0.030253
C14   C     C_R   0.073409 0.387069 0.275745 -0.028463
C15   C     C_R   0.573153 0.848769 0.275567 -0.027969
C16   C     C_R   0.426747 0.351323 0.724611 -0.026291
C17   C     C_R   0.935369 0.939380 0.568432 -0.165563
C18   C     C_R   0.063510 0.408260 0.432105 -0.165502
C19   C     C_R   0.963642 0.928617 0.664677 -0.174581
C20   C     C_R   0.035568 0.406351 0.335619 -0.176121
C21   C     C_R   0.861204 0.862111 0.687363 -0.204493
C22   C     C_R   0.139350 0.370277 0.312111 -0.203212
C23   C     C_R   0.830808 0.876918 0.589852 0.084952
C24   C     C_R   0.169271 0.375046 0.409951 0.085241
C25   C     C_R   0.869498 0.915665 0.530726 0.141871
C26   C     C_R   0.129758 0.393940 0.469622 0.141963
C27   C     C_R   0.763552 0.858074 0.549423 0.049378
C28   C     C_R   0.236748 0.363884 0.450303 0.049627
C29   C     C_R   0.736300 0.878672 0.450296 0.061169
C30   C     C_R   0.263408 0.372113 0.549953 0.060763
C31   C     C_R   0.777235 0.915975 0.394913 -0.188433
C32   C     C_R   0.221708 0.389875 0.605868 -0.187796
C33   C     C_R   0.842301 0.933459 0.434488 -0.204437
C34   C     C_R   0.156434 0.400214 0.566317 -0.204699
C35   C     C_R   0.722634 0.820219 0.604772 -0.168868
C36   C     C_R   0.278437 0.345380 0.394409 -0.166017
C37   C     C_R   0.657553 0.802791 0.565161 -0.186136
C38   C     C_R   0.343726 0.335168 0.433995 -0.185781
C39   C     C_R   0.630336 0.821266 0.468934 0.129120
C40   C     C_R   0.370416 0.342382 0.530693 0.129724
C41   C     C_R   0.669035 0.860270 0.409864 0.084764
C42   C     C_R   0.330890 0.361573 0.590317 0.084900
C43   C     C_R   0.564444 0.797957 0.431160 -0.162544
C44   C     C_R   0.436682 0.328672 0.568284 -0.162253
C45   C     C_R   0.536174 0.809450 0.334908 -0.164342
C46   C     C_R   0.464615 0.331582 0.664790 -0.166525
C47   C     C_R   0.638639 0.875918 0.312382 -0.212701
C48   C     C_R   0.360802 0.367478 0.688147 -0.211531
H7    H     H_    0.871663 0.962946 0.389076 0.121506
H8    H     H_    0.126461 0.414346 0.612170 0.121280
H9    H     H_    0.664307 0.903219 0.262389 0.093106
H10   H     H_    0.334588 0.380925 0.738504 0.091573
H11   H     H_    0.485547 0.786007 0.306546 0.119868
H12   H     H_    0.515699 0.317647 0.692883 0.119969
H13   H     H_    0.628197 0.772897 0.610531 0.138432
H14   H     H_    0.373699 0.320518 0.388173 0.136295
H15   H     H_    0.964909 0.969858 0.523432 0.117593
H16   H     H_    0.033316 0.423135 0.477558 0.117466
H17   H     H_    0.014260 0.952270 0.692984 0.105260
H18   H     H_    0.984492 0.420616 0.307582 0.104436
H19   H     H_    0.835534 0.835255 0.737416 0.100344
H20   H     H_    0.165558 0.357369 0.261705 0.099216
H21   H     H_    0.760723 0.933359 0.320109 0.120034
H22   H     H_    0.237735 0.396623 0.681110 0.119737
H23   H     H_    0.739187 0.802166 0.679548 0.145451
H24   H     H_    0.262377 0.337706 0.319179 0.142480
H25   H     H_    0.534886 0.767220 0.476101 0.121238
H26   H     H_    0.466897 0.313485 0.522881 0.121206
O11   O     O_R   0.036450 0.233070 0.130130 -0.538165
O12   O     O_R   0.963550 0.733070 0.869870 -0.538420
O13   O     O_R   0.912470 0.560570 0.006790 -0.552926
O14   O     O_R   0.087530 0.060570 0.993210 -0.552942
C49   C     C_R   0.886232 0.392631 0.998270 0.651425
C50   C     C_R   0.113765 0.892505 0.001740 0.651880
O15   O     O_R   0.032920 0.562940 0.138050 -0.536089
O16   O     O_R   0.967080 0.062940 0.861950 -0.536147
O17   O     O_R   0.084790 0.730500 0.002090 -0.532914
O18   O     O_R   0.915210 0.230500 0.997910 -0.532783
C51   C     C_R   0.044866 0.394351 0.174422 0.689288
C52   C     C_R   0.955097 0.894783 0.825531 0.689379
O19   O     O_3   0.016820 0.396170 0.955260 -0.377603
O20   O     O_3   0.983180 0.896170 0.044740 -0.377379
V3    V     V_3+5 0.996880 0.672090 0.008300 1.415428
V4    V     V_3+5 0.003120 0.172090 0.991700 1.415581
C53   C     C_2   0.219715 0.047480 0.074803 0.364017
H27   H     H_    0.198931 0.185362 0.065800 0.040763
O21   O     O_2   0.270613 0.024196 0.134377 -0.524113
C54   C     C_2   0.780264 0.549023 0.925816 0.361396
H28   H     H_    0.801011 0.686799 0.935338 0.041320
O22   O     O_2   0.729393 0.526851 0.866120 -0.525319

loop_
_geom_bond_atom_site_label_1
_geom_bond_atom_site_label_2
_ccdc_geom_bond_type
C40   C44   A    
O18   V4    S    
O1    C3    A    
C46   H12   S    
O2    C4    A    
C16   C48   A    
C2    O7    A    
C36   H24   S    
O12   V3    S    
C15   C47   A    
C21   C23   A    
C9    C11   D    
O5    C3    A    
C44   H26   S    
C13   C52   S    
C17   H15   S    
C5    C9    S    
C6    C10   S    
C17   C19   A    
C10   C12   D    
C39   C41   A    
C54   H28   S    
O16   C52   A    
C40   C42   A    
C14   C51   S    
C24   C28   A    
C27   C29   A    
C31   H21   S    
C43   C45   A    
O14   V4    S    
C44   C46   A    
C7    C50   S    
C18   H16   S    
C49   O18   A    
C7    C53   S    
C13   C21   A    
C31   C33   A    
C32   C34   A    
C22   H20   S    
C9    H3    S    
O13   C49   A    
C17   C25   A    
C34   H8    S    
O6    C4    A    
C26   C34   A    
C30   C32   A    
C42   C48   A    
O6    V2    S    
C23   C25   A    
C24   C26   A    
C30   C42   A    
C8    C54   S    
C35   C37   A    
C11   H5    S    
C8    C49   S    
C36   C38   A    
C38   H14   S    
C29   C31   A    
O15   V3    S    
C20   H18   S    
C3    C12   S    
C19   H17   S    
C27   C35   A    
C50   O17   A    
C5    H1    S    
C13   C19   A    
C21   H19   S    
O4    V2    S    
O11   V4    S    
O14   C50   A    
C15   C45   A    
C1    C16   S    
C28   C36   A    
C16   C46   A    
C53   O21   D    
O1    V2    S    
C33   H7    S    
O2    V1    S    
C43   H25   S    
O4    C2    A    
C45   H11   S    
C12   H6    S    
C14   C20   A    
C37   C39   A    
C18   C26   A    
O15   C51   A    
O3    V1    S    
C32   H22   S    
O13   V3    S    
C6    H2    S    
C10   H4    S    
C22   C24   A    
O3    C1    A    
C39   C43   A    
C2    C15   S    
C4    C11   S    
C35   H23   S    
C18   C20   A    
O7    V1    S    
C1    O8    A    
O8    V2    S    
C41   C47   A    
C25   C33   A    
C48   H10   S    
C54   O22   D    
C47   H9    S    
O5    V1    S    
O20   V3    S    
C5    C7    D    
C38   C40   A    
C6    C8    D    
C14   C22   A    
C29   C41   A    
C37   H13   S    
C28   C30   A    
O19   V4    S    
O16   V4    S    
O9    V2    S    
C53   H27   S    
C23   C27   A    
O10   V1    S    
O12   C52   A    
O17   V3    S    
O11   C51   A    
