data_str_m9_o11_o18_f0_sra.sym.6
_audit_creation_date              2013-03-05T15:42:08-0500
_audit_creation_method            fapswitch 2.2
_symmetry_space_group_name_H-M    P1
_symmetry_Int_Tables_number       1
_space_group_crystal_system       triclinic
_cell_length_a                    21.953672
_cell_length_b                    7.207224
_cell_length_c                    14.923833
_cell_angle_alpha                 89.693062
_cell_angle_beta                  106.989116
_cell_angle_gamma                 89.919943
_cell_volume                      2258.23318996

loop_
_atom_site_label
_atom_site_type_symbol
_atom_site_description
_atom_site_fract_x
_atom_site_fract_y
_atom_site_fract_z
_atom_type_partial_charge
O1    O     O_R   0.584770 0.505770 0.002090 -0.557896
O2    O     O_R   0.415230 0.005770 0.997910 -0.558145
O3    O     O_R   0.467060 0.173340 0.861950 -0.558299
O4    O     O_R   0.532940 0.673340 0.138050 -0.558036
C1    C     C_R   0.455123 0.344977 0.825995 0.801065
C2    C     C_R   0.544938 0.843739 0.174044 0.801034
O5    O     O_R   0.587510 0.175890 0.993210 -0.561603
O6    O     O_R   0.412490 0.675890 0.006790 -0.561185
O7    O     O_R   0.536540 0.008150 0.130100 -0.554953
O8    O     O_R   0.463460 0.508150 0.869900 -0.554666
C3    C     C_R   0.612970 0.344840 0.997468 0.824352
C4    C     C_R   0.387025 0.845006 0.002550 0.824598
O9    O     O_3   0.483140 0.340040 0.044760 -0.284704
O10   O     O_3   0.516860 0.840040 0.955240 -0.284959
V1    V     V_3+5 0.503130 0.064190 0.991700 1.135526
V2    V     V_3+5 0.496870 0.564190 0.008300 1.136653
C5    C     C_2   0.214088 0.727453 0.003534 -0.083912
C6    C     C_2   0.786151 0.227694 0.996948 -0.076680
C7    C     C_2   0.180341 0.886608 0.996388 -0.158621
C8    C     C_2   0.819624 0.386894 0.003515 -0.156060
H1    H     H_    0.191066 0.596557 0.009380 0.101516
H2    H     H_    0.809422 0.096888 0.991628 0.101372
H3    H     H_    0.201827 0.018932 0.989397 0.072541
H4    H     H_    0.797917 0.519146 0.010022 0.068387
C9    C     C_2   0.281968 0.714634 0.003250 -0.091298
C10   C     C_2   0.718276 0.214530 0.997206 -0.092951
C11   C     C_2   0.319925 0.861541 0.003514 -0.202739
C12   C     C_2   0.680057 0.361289 0.996481 -0.202718
H5    H     H_    0.301217 0.575671 0.003543 0.101227
H6    H     H_    0.699272 0.075520 0.997325 0.100411
H7    H     H_    0.301960 0.001353 0.004137 0.074821
H8    H     H_    0.697826 0.501119 0.995522 0.074815
C13   C     C_R   0.929172 0.888257 0.723192 -0.149542
C14   C     C_R   0.070951 0.381169 0.276633 -0.148701
C15   C     C_R   0.573837 0.849479 0.275420 -0.064075
C16   C     C_R   0.426477 0.356843 0.724656 -0.065294
C17   C     C_R   0.938656 0.878962 0.565834 -0.094776
C18   C     C_R   0.062857 0.301496 0.430353 -0.095667
C19   C     C_R   0.967996 0.887664 0.662586 0.316408
C20   C     C_R   0.033037 0.332840 0.334897 0.321494
C21   C     C_R   0.862781 0.880370 0.686608 -0.167487
C22   C     C_R   0.136973 0.399631 0.314331 -0.169161
C23   C     C_R   0.832655 0.871996 0.589022 0.055144
C24   C     C_R   0.167711 0.367395 0.410562 0.057249
C25   C     C_R   0.872153 0.872661 0.529027 0.002299
C26   C     C_R   0.129085 0.317595 0.468106 0.003728
C27   C     C_R   0.764884 0.863758 0.549108 0.045338
C28   C     C_R   0.235316 0.380548 0.451214 0.046065
C29   C     C_R   0.737993 0.862245 0.449373 0.019477
C30   C     C_R   0.262790 0.345219 0.549309 0.020569
C31   C     C_R   0.779750 0.863111 0.393036 -0.078270
C32   C     C_R   0.221910 0.295425 0.603114 -0.076956
C33   C     C_R   0.845266 0.867371 0.432270 -0.030194
C34   C     C_R   0.156609 0.282432 0.563186 -0.037252
C35   C     C_R   0.723151 0.855167 0.605446 -0.094814
C36   C     C_R   0.276375 0.427198 0.397133 -0.095022
C37   C     C_R   0.657637 0.846181 0.566196 -0.107109
C38   C     C_R   0.341721 0.440116 0.437082 -0.106438
C39   C     C_R   0.630713 0.846992 0.469416 0.066499
C40   C     C_R   0.369073 0.408998 0.532519 0.066185
C41   C     C_R   0.670252 0.857160 0.409363 0.048026
C42   C     C_R   0.330237 0.361100 0.590292 0.047440
C43   C     C_R   0.564195 0.836501 0.432192 -0.074669
C44   C     C_R   0.435249 0.428167 0.570870 -0.074080
C45   C     C_R   0.535983 0.836148 0.335671 -0.101775
C46   C     C_R   0.463689 0.403583 0.666553 -0.101114
C47   C     C_R   0.640074 0.861084 0.311510 -0.103107
C48   C     C_R   0.360673 0.334543 0.687214 -0.103392
H9    H     H_    0.875283 0.866914 0.386037 0.130185
H10   H     H_    0.127287 0.243442 0.607442 0.128316
H11   H     H_    0.666268 0.872073 0.260944 0.052489
H12   H     H_    0.334828 0.301706 0.736420 0.052774
H13   H     H_    0.484672 0.825815 0.307927 0.053037
H14   H     H_    0.514598 0.422875 0.695484 0.054091
H15   H     H_    0.627654 0.838307 0.612368 0.069452
H16   H     H_    0.371178 0.476766 0.392679 0.069102
H17   H     H_    0.967947 0.879863 0.518577 0.130165
H18   H     H_    0.034149 0.264426 0.475762 0.124868
H19   H     H_    0.836185 0.882868 0.736859 0.057001
H20   H     H_    0.162896 0.434939 0.265547 0.057858
H21   H     H_    0.763585 0.858118 0.317751 0.083340
H22   H     H_    0.238669 0.263980 0.676807 0.084147
H23   H     H_    0.739390 0.852491 0.680780 0.067855
H24   H     H_    0.259792 0.455134 0.323083 0.068194
H25   H     H_    0.533967 0.827240 0.477935 0.063950
H26   H     H_    0.464934 0.465246 0.526896 0.064071
O11   O     O_R   0.036450 0.233070 0.130130 -0.562194
O12   O     O_R   0.963550 0.733070 0.869870 -0.564276
O13   O     O_R   0.912470 0.560570 0.006790 -0.555868
O14   O     O_R   0.087530 0.060570 0.993210 -0.550090
C49   C     C_R   0.886937 0.392019 0.002341 0.873104
C50   C     C_R   0.113054 0.891843 0.997616 0.870401
O15   O     O_R   0.032920 0.562940 0.138050 -0.548114
O16   O     O_R   0.967080 0.062940 0.861950 -0.543134
O17   O     O_R   0.084790 0.730500 0.002090 -0.566252
O18   O     O_R   0.915210 0.230500 0.997910 -0.562357
C51   C     C_R   0.044323 0.393607 0.174584 0.889030
C52   C     C_R   0.955910 0.894821 0.825329 0.888581
O19   O     O_3   0.016820 0.396170 0.955260 -0.284916
O20   O     O_3   0.983180 0.896170 0.044740 -0.285228
V3    V     V_3+5 0.996880 0.672090 0.008300 1.180634
V4    V     V_3+5 0.003120 0.172090 0.991700 1.188592
N1    N     N_R   0.036565 0.894600 0.697093 0.073891
O21   O     O_R   0.065041 0.979413 0.774697 -0.386458
O22   O     O_R   0.071022 0.830579 0.646404 -0.373836
N2    N     N_R   0.964854 0.314327 0.298832 0.081407
O23   O     O_R   0.932532 0.412934 0.227452 -0.388263
O24   O     O_R   0.933918 0.212430 0.343056 -0.381472

loop_
_geom_bond_atom_site_label_1
_geom_bond_atom_site_label_2
_geom_bond_distance
_ccdc_geom_bond_type
C43   C45   1.391853 A    
C22   H20   1.076674 S    
C17   C25   1.402552 A    
O18   V4    2.003292 S    
C14   C22   1.399958 A    
O2    C4    1.325480 A    
C2    O7    1.337383 A    
O12   V3    2.025469 S    
C38   H16   1.084507 S    
C27   C29   1.432040 A    
O5    C3    1.334589 A    
C13   C19   1.412456 A    
C14   C20   1.410934 A    
C20   N2    1.441744 S    
C16   C46   1.394421 A    
C37   C39   1.391580 A    
N2    O23   1.300806 A    
C15   C45   1.394399 A    
C38   C40   1.391351 A    
C46   H14   1.083487 S    
C1    C16   1.460382 S    
C14   C51   1.465367 S    
C45   H13   1.083468 S    
C2    C15   1.460473 S    
C40   C42   1.420088 A    
C13   C52   1.465679 S    
O14   V4    2.012902 S    
C7    C50   1.483083 S    
C49   O18   1.329493 A    
C8    H4    1.082512 S    
C24   C26   1.417234 A    
C29   C31   1.413367 A    
C6    C10   1.494379 S    
C30   C32   1.413489 A    
O13   C49   1.332417 A    
C31   H21   1.075661 S    
C47   H11   1.076797 S    
C48   H12   1.076668 S    
C28   C30   1.432254 A    
C33   H9    1.084453 S    
O6    V2    2.012817 S    
C43   H25   1.084081 S    
C21   C23   1.414292 A    
C22   C24   1.414733 A    
C44   H26   1.084132 S    
C32   C34   1.385934 A    
C36   H24   1.075473 S    
C9    H5    1.085989 S    
C8    C49   1.483493 S    
C39   C41   1.419913 A    
C29   C41   1.432135 A    
C4    C11   1.481998 S    
C11   H7    1.082661 S    
C12   H8    1.082691 S    
O4    C2    1.338453 A    
O15   V3    2.020150 S    
C18   H18   1.084415 S    
C17   H17   1.084389 S    
C50   O17   1.329313 A    
C5    H1    1.085941 S    
C31   C33   1.385895 A    
C44   C46   1.391482 A    
O4    V2    2.029144 S    
C7    H3    1.082529 S    
O11   V4    2.030711 S    
C41   C47   1.416498 A    
O14   C50   1.331468 A    
C34   H10   1.084680 S    
C15   C47   1.398124 A    
O6    C4    1.333691 A    
C26   C34   1.391923 A    
N1    O22   1.301740 A    
O1    V2    2.003092 S    
C32   H22   1.075578 S    
O2    V1    2.004019 S    
C23   C25   1.416781 A    
C10   H6    1.085995 S    
C35   C37   1.387165 A    
C30   C42   1.432371 A    
C35   H23   1.075628 S    
O15   C51   1.327262 A    
O3    V1    2.020222 S    
C27   C35   1.414206 A    
C28   C36   1.414229 A    
O13   V3    2.015067 S    
C6    H2    1.085925 S    
C10   C12   1.347223 D    
O3    C1    1.340394 A    
C21   H19   1.076867 S    
C16   C48   1.398176 A    
C19   N1    1.442659 S    
C9    C11   1.347603 D    
C39   C43   1.404819 A    
C42   C48   1.416761 A    
C40   C44   1.404568 A    
C13   C21   1.400444 A    
C37   H15   1.084471 S    
O7    V1    2.017959 S    
C5    C9    1.494193 S    
C1    O8    1.335901 A    
C17   C19   1.400461 A    
O8    V2    2.022791 S    
C18   C20   1.400054 A    
N2    O24   1.301647 A    
C3    C12   1.482086 S    
O5    V1    2.014979 S    
O20   V3    1.760128 S    
C5    C7    1.351357 D    
C36   C38   1.386820 A    
C6    C8    1.351890 D    
C18   C26   1.402611 A    
C25   C33   1.391958 A    
O17   V3    2.004216 S    
O19   V4    1.755547 S    
O16   V4    2.029069 S    
O9    V2    1.756289 S    
N1    O21   1.300512 A    
O16   C52   1.325357 A    
O10   V1    1.760870 S    
O1    C3    1.325556 A    
C23   C27   1.433403 A    
O12   C52   1.324769 A    
C24   C28   1.433413 A    
O11   C51   1.323061 A    
