data_str_m3_o10_o26_f0_pcu.sym.72
_audit_creation_date              2012-12-10T16:57:09-0500
_audit_creation_method            fapswitch 2.2
_symmetry_space_group_name_H-M    P1
_symmetry_Int_Tables_number       1
_space_group_crystal_system       triclinic
_cell_length_a                    7.749173
_cell_length_b                    8.592467
_cell_length_c                    16.661641
_cell_angle_alpha                 90.872798
_cell_angle_beta                  82.3528
_cell_angle_gamma                 93.494103
_cell_volume                      1097.46806092

loop_
_atom_site_label
_atom_site_type_symbol
_atom_type_description
_atom_site_fract_x
_atom_site_fract_y
_atom_site_fract_z
_atom_type_partial_charge
C1    C     C_R   0.546084 0.794771 0.497983 0.951244
C2    C     C_R   0.386175 0.527754 0.220545 0.324390
C3    C     C_R   0.523182 0.258809 0.832387 0.072334
C4    C     C_R   0.360059 0.475992 0.141893 0.100950
C5    C     C_R   0.566555 0.378625 0.886181 0.015527
C6    C     C_R   0.461469 0.355774 0.105956 0.062084
C7    C     C_R   0.561075 0.535599 0.866659 -0.209974
C8    C     C_R   0.587470 0.291635 0.145702 -0.313321
C9    C     C_R   0.512634 0.578207 0.793466 0.345714
C10   C     C_R   0.615684 0.343697 0.222589 0.354371
C11   C     C_2   0.594978 0.346322 0.968392 -0.198964
C12   C     C_R   0.453925 0.205233 0.501908 1.025215
C13   C     C_2   0.454919 0.311406 0.021921 -0.199955
C14   C     C_3   0.235526 0.555789 0.094526 -0.419203
C15   C     C_3   0.053880 0.473016 0.106405 -0.874740
C16   C     C_3   0.525095 0.088877 0.856054 -0.380832
C17   C     C_3   0.710894 0.034584 0.843762 -0.767308
C18   C     C_2   0.570421 0.958110 0.496903 -0.359349
C19   C     C_2   0.429580 0.041913 0.503181 -0.326140
C20   C     C_R   0.480118 0.498822 0.653655 0.940406
C21   C     C_R   0.518986 0.495119 0.345718 0.981683
C22   C     C_R   0.474835 0.460618 0.737842 -0.205132
C23   C     C_R   0.514085 0.461432 0.260016 -0.172365
C24   C     C_R   0.481215 0.301577 0.756107 0.357062
H1    H     H_    0.328540 0.285904 0.001522 0.165405
H2    H     H_    0.175214 0.642115 0.243113 0.350036
H3    H     H_    0.795433 0.196185 0.228399 0.333975
H4    H     H_    0.454724 0.749985 0.728368 0.321086
H5    H     H_    0.059441 0.350225 0.084998 0.253588
H6    H     H_    0.997905 0.474050 0.171249 0.282818
H7    H     H_    0.966180 0.533553 0.071291 0.248170
H8    H     H_    0.226568 0.680388 0.112287 0.216932
H9    H     H_    0.284969 0.559533 0.028881 0.216766
H10   H     H_    0.765155 0.039359 0.778654 0.258154
H11   H     H_    0.796228 0.109177 0.879019 0.244496
H12   H     H_    0.716571 0.391055 0.988485 0.162673
H13   H     H_    0.710828 0.912821 0.865012 0.271263
H14   H     H_    0.468542 0.070688 0.920105 0.210232
H15   H     H_    0.440103 0.013059 0.821509 0.247589
H16   H     H_    0.590381 0.625940 0.909842 0.166899
H17   H     H_    0.665237 0.201356 0.115950 0.162044
H18   H     H_    0.703513 0.008912 0.490873 0.183181
H19   H     H_    0.296479 0.991128 0.509282 0.177881
H20   H     H_    0.022685 0.382169 0.439928 0.205222
H21   H     H_    0.977320 0.617911 0.560021 0.194099
H22   H     H_    0.525289 0.103760 0.701062 0.342337
N1    N     N_2   0.953500 0.457650 0.478520 -0.161946
N2    N     N_2   0.046500 0.542350 0.521480 -0.169248
O1    O     O_R   0.388470 0.738640 0.505270 -0.611800
O2    O     O_3   0.292741 0.644920 0.260140 -0.755565
O3    O     O_3   0.736131 0.276571 0.263422 -0.752518
O4    O     O_3   0.510885 0.735151 0.777472 -0.795910
O5    O     O_R   0.611530 0.261360 0.494730 -0.603677
O6    O     O_R   0.679650 0.711510 0.491500 -0.636143
O7    O     O_R   0.320350 0.288490 0.508500 -0.631857
O8    O     O_R   0.337210 0.515200 0.623500 -0.611360
O9    O     O_R   0.662790 0.484800 0.376500 -0.573294
O10   O     O_R   0.628380 0.488060 0.609730 -0.615986
O11   O     O_R   0.371620 0.511940 0.390270 -0.593796
O12   O     O_3   0.451910 0.192685 0.696676 -0.780233
Zn1   Zn    Zn3+2 0.305580 0.518120 0.509190 0.983648
Zn2   Zn    Zn3+2 0.694420 0.481880 0.490810 0.991136

loop_
_geom_bond_atom_site_label_1
_geom_bond_atom_site_label_2
_ccdc_geom_bond_type
O10   Zn2   S    
C2    C4    A    
C1    O6    A    
C15   H5    S    
C10   C23   A    
C19   H19   S    
C11   C13   D    
O5    Zn2   S    
N1    N2    D    
H20   N1    S    
C20   O8    A    
C24   O12   S    
C14   H9    S    
H2    O2    S    
C1    C18   S    
O9    Zn2   S    
C17   H13   S    
C6    C13   S    
C15   H7    S    
H4    O4    S    
C13   H1    S    
N2    Zn1   S    
C9    O4    S    
N1    Zn2   S    
C10   O3    S    
O7    Zn1   S    
C12   C19   S    
C4    C6    A    
C11   H12   S    
C2    O2    S    
H3    O3    S    
C21   O11   A    
C21   C23   S    
C5    C11   S    
C4    C14   S    
C22   C24   A    
C9    C22   A    
O11   Zn1   S    
C12   O7    A    
O1    Zn1   S    
C17   H10   S    
C20   C22   S    
C16   H15   S    
C20   O10   A    
C21   O9    A    
C7    C9    A    
C14   H8    S    
C8    H17   S    
C15   H6    S    
C8    C10   A    
C18   C19   D    
H21   N2    S    
C16   H14   S    
C2    C23   A    
C5    C7    A    
C14   C15   S    
O6    Zn2   S    
C6    C8    A    
C17   H11   S    
C18   H18   S    
H22   O12   S    
O8    Zn1   S    
C7    H16   S    
C1    O1    A    
C3    C16   S    
C12   O5    A    
C3    C24   A    
C16   C17   S    
C3    C5    A    
