data_str_m9_o16_o26_f0_sra.sym.69
_audit_creation_date              2012-12-11T15:15:45-0500
_audit_creation_method            fapswitch 2.2
_symmetry_space_group_name_H-M    P1
_symmetry_Int_Tables_number       1
_space_group_crystal_system       triclinic
_cell_length_a                    20.617535
_cell_length_b                    22.773841
_cell_length_c                    6.940234
_cell_angle_alpha                 90.00116
_cell_angle_beta                  86.962091
_cell_angle_gamma                 89.999946
_cell_volume                      3254.14117451

loop_
_atom_site_label
_atom_site_type_symbol
_atom_type_description
_atom_site_fract_x
_atom_site_fract_y
_atom_site_fract_z
_atom_type_partial_charge
O1    O     O_R   0.387100 0.552640 0.378490 -0.535409
O2    O     O_R   0.612900 0.052640 0.621510 -0.535418
O3    O     O_R   0.249610 0.559600 0.072250 -0.554887
O4    O     O_R   0.750390 0.059600 0.927750 -0.554882
O5    O     O_R   0.249120 0.447360 0.902040 -0.548148
O6    O     O_R   0.750880 0.947360 0.097960 -0.548153
C1    C     C_R   0.226643 0.572894 0.244268 0.667521
C2    C     C_R   0.773354 0.072896 0.755734 0.667521
O7    O     O_R   0.386610 0.559560 0.048860 -0.540598
O8    O     O_R   0.613390 0.059560 0.951140 -0.540597
O9    O     O_R   0.387100 0.447320 0.878470 -0.525938
O10   O     O_R   0.612900 0.947320 0.121530 -0.525942
C3    C     C_R   0.408255 0.574353 0.214135 0.773186
C4    C     C_R   0.591745 0.074354 0.785868 0.773175
O11   O     O_R   0.249120 0.552680 0.402050 -0.549044
O12   O     O_R   0.750880 0.052680 0.597950 -0.549045
O13   O     O_3   0.318110 0.463180 0.223790 -0.355008
O14   O     O_3   0.681890 0.963180 0.776210 -0.355003
V1    V     V_3+5 0.318110 0.506830 0.948930 1.475860
V2    V     V_3+5 0.681890 0.006830 0.051070 1.475855
O15   O     O_R   0.386610 0.440400 0.548840 -0.511342
O16   O     O_R   0.613390 0.940400 0.451160 -0.511329
C5    C     C_R   0.407899 0.425281 0.714542 0.803765
C6    C     C_R   0.592101 0.925281 0.285454 0.803749
O17   O     O_R   0.249610 0.440440 0.572240 -0.542984
O18   O     O_R   0.750390 0.940440 0.427760 -0.542974
C7    C     C_R   0.226815 0.426747 0.744316 0.724494
C8    C     C_R   0.773186 0.926749 0.255682 0.724469
V3    V     V_3+5 0.318110 0.493170 0.448930 1.523793
V4    V     V_3+5 0.681890 0.993170 0.551070 1.523800
O19   O     O_3   0.318110 0.536820 0.723940 -0.388707
O20   O     O_3   0.681890 0.036820 0.276060 -0.388707
C9    C     C_R   0.172052 0.384776 0.760578 -0.034254
C10   C     C_R   0.827953 0.884781 0.239413 -0.034267
C11   C     C_R   0.146418 0.361070 0.593705 -0.143173
C12   C     C_R   0.853603 0.861091 0.406285 -0.143187
C13   C     C_R   0.093873 0.322477 0.607739 -0.111684
C14   C     C_R   0.906151 0.822501 0.392243 -0.111702
C15   C     C_R   0.066035 0.306364 0.789433 0.173429
C16   C     C_R   0.933976 0.806376 0.210542 0.173445
C17   C     C_R   0.091097 0.330461 0.955972 -0.138311
C18   C     C_R   0.908899 0.830457 0.044004 -0.138319
C19   C     C_R   0.143746 0.369086 0.942043 -0.149559
C20   C     C_R   0.856246 0.869078 0.057941 -0.149574
C21   C     C_R   0.928971 0.150349 0.873401 0.024682
C22   C     C_R   0.071034 0.650353 0.126535 0.024663
C23   C     C_R   0.872612 0.115603 0.889972 -0.159789
C24   C     C_R   0.127394 0.615605 0.109992 -0.159775
C25   C     C_R   0.843019 0.145578 0.571585 -0.151044
C26   C     C_R   0.156957 0.645560 0.428432 -0.151004
C27   C     C_R   0.897575 0.181717 0.555547 -0.066231
C28   C     C_R   0.102401 0.681701 0.444451 -0.066276
C29   C     C_R   0.940394 0.185166 0.705510 0.072442
C30   C     C_R   0.059600 0.685163 0.294444 0.072442
C31   C     C_2   0.010167 0.265604 0.811063 -0.221327
C32   C     C_2   0.989844 0.765616 0.188907 -0.221354
C33   C     C_2   0.996613 0.225081 0.678264 -0.218671
C34   C     C_2   0.003382 0.725082 0.321678 -0.218651
C35   C     C_R   0.829735 0.112714 0.739661 -0.091342
C36   C     C_R   0.170257 0.612708 0.260337 -0.091353
H1    H     H_    0.166527 0.372689 0.451504 0.125851
H2    H     H_    0.833506 0.872722 0.548492 0.125835
H3    H     H_    0.863436 0.088638 0.017189 0.161548
H4    H     H_    0.136582 0.588649 0.982760 0.161560
H5    H     H_    0.810923 0.143727 0.453101 0.125698
H6    H     H_    0.189040 0.643701 0.546947 0.125700
H7    H     H_    0.024860 0.222362 0.542258 0.153376
H8    H     H_    0.975123 0.722359 0.457663 0.153360
H9    H     H_    0.070126 0.319037 0.097453 0.099673
H10   H     H_    0.929860 0.819021 0.902519 0.099663
H11   H     H_    0.161979 0.386835 0.073431 0.122595
H12   H     H_    0.838001 0.886813 0.926553 0.122601
H13   H     H_    0.980247 0.267516 0.944739 0.127443
H14   H     H_    0.019772 0.767535 0.055247 0.127406
H15   H     H_    0.074646 0.306483 0.475675 0.097951
H16   H     H_    0.925394 0.806520 0.524301 0.097948
H17   H     H_    0.906263 0.207536 0.425550 0.126126
H18   H     H_    0.093700 0.707510 0.574466 0.126081
C37   C     C_R   0.575264 0.360273 0.718167 -0.154686
C38   C     C_R   0.424738 0.860278 0.281668 -0.154681
H19   H     H_    0.534929 0.446854 0.721548 0.127930
H20   H     H_    0.465076 0.946858 0.278274 0.127923
H21   H     H_    0.665203 0.277461 0.697020 0.120942
H22   H     H_    0.334793 0.777470 0.302727 0.120941
H23   H     H_    0.624592 0.376897 0.712173 0.123881
H24   H     H_    0.375410 0.876904 0.287580 0.123876
C39   C     C_R   0.460223 0.380736 0.717594 -0.082911
C40   C     C_R   0.539776 0.880737 0.282389 -0.082913
C41   C     C_R   0.472455 0.093117 0.840636 -0.010804
C42   C     C_R   0.527550 0.593111 0.159470 -0.010812
C43   C     C_R   0.421157 0.132581 0.872893 -0.209292
C44   C     C_R   0.578854 0.632572 0.127270 -0.209293
C45   C     C_R   0.429741 0.192612 0.845389 -0.071972
C46   C     C_R   0.570270 0.692605 0.154744 -0.071969
C47   C     C_R   0.489550 0.216040 0.774919 0.100337
C48   C     C_R   0.510451 0.716039 0.225115 0.100341
C49   C     C_R   0.544008 0.176858 0.758954 0.029469
C50   C     C_R   0.455990 0.676860 0.241018 0.029472
C51   C     C_R   0.498488 0.277967 0.739565 0.012986
C52   C     C_R   0.501511 0.777968 0.260430 0.012990
C53   C     C_R   0.563224 0.299685 0.724438 0.095268
C54   C     C_R   0.436775 0.799689 0.275451 0.095269
C55   C     C_R   0.615934 0.260916 0.714379 -0.165113
C56   C     C_R   0.384063 0.760922 0.285449 -0.165109
C57   C     C_R   0.606457 0.200561 0.724106 -0.186115
C58   C     C_R   0.393538 0.700567 0.275763 -0.186109
C59   C     C_R   0.446891 0.319636 0.717081 0.286490
C60   C     C_R   0.553104 0.819637 0.282967 0.286487
C61   C     C_R   0.524254 0.400254 0.722134 -0.174417
C62   C     C_R   0.475748 0.900257 0.277742 -0.174387
C63   C     C_R   0.535345 0.115120 0.788694 -0.118867
C64   C     C_R   0.464655 0.615119 0.211323 -0.118867
H25   H     H_    0.389606 0.220221 0.892418 0.188135
H26   H     H_    0.610414 0.720210 0.107771 0.188130
H27   H     H_    0.373657 0.116856 0.923663 0.128166
H28   H     H_    0.626360 0.616844 0.076570 0.128163
H29   H     H_    0.649073 0.172747 0.712600 0.095958
H30   H     H_    0.350920 0.672754 0.287216 0.095948
Cl1   Cl    Cl    0.368511 0.298658 0.649355 -0.691021
Cl2   Cl    Cl    0.631469 0.798662 0.350832 -0.690998
C65   C     C_2   0.457682 0.029632 0.870923 0.326711
H31   H     H_    0.410956 0.016690 0.937110 0.050679
O21   O     O_2   0.495889 0.991075 0.819309 -0.526276
C66   C     C_2   0.542324 0.529625 0.129223 0.326697
H32   H     H_    0.589061 0.516679 0.063116 0.050704
O22   O     O_2   0.504107 0.491071 0.180775 -0.526279
C67   C     C_2   0.976986 0.146437 0.025462 0.318540
H33   H     H_    0.024551 0.166387 0.004831 0.080818
O23   O     O_2   0.964474 0.119663 0.175301 -0.536743
C68   C     C_2   0.023033 0.646447 0.974429 0.318560
H34   H     H_    0.975493 0.666451 0.994946 0.080793
O24   O     O_2   0.035520 0.619607 0.824702 -0.536716

loop_
_geom_bond_atom_site_label_1
_geom_bond_atom_site_label_2
_ccdc_geom_bond_type
V4    O20   S    
O13   V3    S    
C60   Cl2   S    
C42   C64   A    
O4    C2    A    
V1    O19   S    
C56   C58   A    
C46   H26   S    
C15   C17   A    
C14   H16   S    
C7    C9    S    
O9    V1    S    
C25   H5    S    
O10   V2    S    
H20   C62   S    
C17   H9    S    
C11   C13   A    
C3    C64   S    
O3    C1    A    
C27   H17   S    
C2    C35   S    
C23   H3    S    
C49   C63   A    
C47   C51   A    
C24   H4    S    
O12   V4    S    
C43   H27   S    
C18   H10   S    
O7    C3    A    
C38   H24   S    
C9    C11   A    
O5    C7    A    
O7    V1    S    
O6    C8    A    
O8    V2    S    
C25   C27   A    
C48   C50   A    
C26   C28   A    
O3    V1    S    
O14   V4    S    
C41   C43   A    
C10   C12   A    
C24   C36   A    
C40   C62   A    
C16   C18   A    
C13   H15   S    
C8    C10   S    
C2    O12   A    
C5    C39   S    
C58   H30   S    
C17   C19   A    
C57   H29   S    
C18   C20   A    
C33   H7    S    
C28   H18   S    
C59   Cl1   S    
C28   C30   A    
O11   V3    S    
C21   C23   A    
O17   V3    S    
C4    C63   S    
C13   C15   A    
C22   C24   A    
C52   C60   A    
C23   C35   A    
C32   H14   S    
C37   C61   A    
C9    C19   A    
C50   C64   A    
C11   H1    S    
O8    C4    A    
C29   C33   S    
C1    O11   A    
C12   H2    S    
C16   C32   S    
O15   V3    S    
C38   C54   A    
C27   C29   A    
C31   H13   S    
C68   O24   D    
C67   O23   D    
C43   C45   A    
C26   H6    S    
C42   C44   A    
C22   C30   A    
O1    V3    S    
C10   C20   A    
C55   C57   A    
C45   H25   S    
C46   C48   A    
C44   H28   S    
C65   H31   S    
H21   C55   S    
O5    V1    S    
C34   H8    S    
C51   C53   A    
H19   C61   S    
O18   V4    S    
C31   C33   D    
O17   C7    A    
H22   C56   S    
O16   C6    A    
O1    C3    A    
C67   H33   S    
C1    C36   S    
C37   H23   S    
C51   C59   A    
C66   O22   D    
C52   C54   A    
V2    O20   S    
C41   C63   A    
C19   H11   S    
O16   V4    S    
C42   C66   S    
C6    C40   S    
C39   C59   A    
C25   C35   A    
C22   C68   S    
C47   C49   A    
C39   C61   A    
C15   C31   S    
O6    V2    S    
O10   C6    A    
O18   C8    A    
C50   C58   A    
C54   C56   A    
O2    V4    S    
C26   C36   A    
O15   C5    A    
C68   H34   S    
C49   C57   A    
V3    O19   S    
C12   C14   A    
C14   C16   A    
C44   C46   A    
C45   C47   A    
C41   C65   S    
C21   C67   S    
C40   C60   A    
C48   C52   A    
O9    C5    A    
O13   V1    S    
C32   C34   D    
C20   H12   S    
O14   V2    S    
O2    C4    A    
C65   O21   D    
C21   C29   A    
O4    V2    S    
C30   C34   S    
C53   C55   A    
C38   C62   A    
C37   C53   A    
C66   H32   S    
