data_str_m12_o4_o10_f0_bcu.sym.103
_audit_creation_date              2012-12-11T16:45:22-0500
_audit_creation_method            fapswitch 2.2
_symmetry_space_group_name_H-M    P1
_symmetry_Int_Tables_number       1
_space_group_crystal_system       triclinic
_cell_length_a                    19.926693
_cell_length_b                    17.148531
_cell_length_c                    15.303466
_cell_angle_alpha                 89.986978
_cell_angle_beta                  52.472944
_cell_angle_gamma                 89.890729
_cell_volume                      4147.24868418

loop_
_atom_site_label
_atom_site_type_symbol
_atom_type_description
_atom_site_fract_x
_atom_site_fract_y
_atom_site_fract_z
_atom_type_partial_charge
C1    C     C_R   0.846585 0.679645 0.033127 0.573928
C2    C     C_R   0.137930 0.688280 0.992499 0.519289
C3    C     C_R   0.373903 0.192887 0.992271 0.519043
C4    C     C_R   0.653763 0.178905 0.966802 0.570986
C5    C     C_R   0.807927 0.364166 0.325053 0.076262
C6    C     C_R   0.112185 0.315456 0.695582 0.063597
C7    C     C_R   0.386952 0.815537 0.304626 0.061091
C8    C     C_R   0.693330 0.863921 0.677220 0.035558
C9    C     C_R   0.850390 0.309841 0.929890 -0.016594
C10   C     C_R   0.164181 0.314429 0.049313 -0.027151
C11   C     C_R   0.341240 0.813394 0.943071 -0.016276
C12   C     C_R   0.645294 0.809488 0.076021 -0.002412
C13   C     C_R   0.887643 0.684603 0.305394 0.022841
C14   C     C_R   0.191233 0.638041 0.674215 0.064891
C15   C     C_R   0.307915 0.137845 0.325042 0.061355
C16   C     C_R   0.614323 0.185062 0.694456 0.025352
C17   C     C_R   0.844355 0.712934 0.489529 0.154511
C18   C     C_R   0.294674 0.635622 0.469979 0.163323
C19   C     C_R   0.204574 0.135795 0.529198 0.162451
C20   C     C_R   0.658667 0.319077 0.622004 0.128879
C21   C     C_R   0.867706 0.741120 0.388942 0.045090
C22   C     C_R   0.270307 0.663626 0.571569 0.036318
C23   C     C_R   0.228813 0.163841 0.427708 0.039206
C24   C     C_R   0.631714 0.245475 0.616081 0.035718
C25   C     C_R   0.183766 0.227634 0.428698 -0.209746
C26   C     C_R   0.634918 0.228370 0.523637 -0.194512
C27   C     C_R   0.851793 0.819444 0.380484 -0.216628
C28   C     C_R   0.315537 0.726910 0.570830 -0.202500
C29   C     C_R   0.133942 0.273698 0.523609 -0.191875
C30   C     C_R   0.683607 0.275198 0.429497 -0.206207
C31   C     C_R   0.804015 0.865722 0.474610 -0.182821
C32   C     C_R   0.365235 0.773142 0.476284 -0.200405
C33   C     C_R   0.128938 0.255223 0.617097 0.040382
C34   C     C_R   0.729296 0.338325 0.428227 0.036635
C35   C     C_R   0.771398 0.833655 0.577839 0.047603
C36   C     C_R   0.369964 0.755136 0.382925 0.041374
C37   C     C_R   0.796789 0.758984 0.583207 0.136744
C38   C     C_R   0.344275 0.680741 0.376633 0.163321
C39   C     C_R   0.154682 0.180661 0.622969 0.163748
C40   C     C_R   0.706759 0.365143 0.529446 0.176494
C41   C     C_3   0.851484 0.739024 0.616316 -0.492663
C42   C     C_3   0.298238 0.654427 0.332886 -0.523269
C43   C     C_3   0.200845 0.154079 0.666536 -0.522189
C44   C     C_3   0.759722 0.393467 0.562256 -0.546255
C45   C     C_R   0.850033 0.329317 0.221759 -0.120272
C46   C     C_R   0.101408 0.302105 0.792162 -0.135974
C47   C     C_R   0.398085 0.802243 0.207859 -0.140753
C48   C     C_R   0.650476 0.830120 0.780507 -0.123247
C49   C     C_3   0.903008 0.688660 0.514677 -0.505031
C50   C     C_3   0.243682 0.605458 0.435081 -0.516329
C51   C     C_3   0.255908 0.105743 0.563698 -0.519439
C52   C     C_3   0.706960 0.343009 0.663214 -0.489071
C53   C     C_2   0.774730 0.189550 0.977989 -0.202267
C54   C     C_2   0.271437 0.218293 0.954681 -0.214339
C55   C     C_2   0.247889 0.706520 0.019301 -0.205023
C56   C     C_2   0.724887 0.690760 0.023270 -0.195281
C57   C     C_2   0.296242 0.753736 0.932845 -0.158585
C58   C     C_2   0.683689 0.747968 0.097836 -0.171454
C59   C     C_2   0.814377 0.247982 0.905566 -0.152992
C60   C     C_2   0.222165 0.262841 0.044432 -0.156858
C61   C     C_R   0.866845 0.387519 0.895375 0.512421
C62   C     C_R   0.139928 0.388354 0.094841 0.545920
C63   C     C_R   0.361006 0.889844 0.902746 0.511119
C64   C     C_R   0.628199 0.887486 0.110770 0.500575
C65   C     C_R   0.906125 0.607348 0.304754 -0.151897
C66   C     C_R   0.141262 0.577815 0.684321 -0.131018
C67   C     C_R   0.358211 0.077755 0.315336 -0.133192
C68   C     C_R   0.595257 0.107736 0.694387 -0.130724
C69   C     C_R   0.877639 0.298922 0.992230 -0.227568
C70   C     C_R   0.130166 0.301067 0.996084 -0.217253
C71   C     C_R   0.372269 0.800908 0.000427 -0.206737
C72   C     C_R   0.620521 0.798677 0.010779 -0.224925
C73   C     C_R   0.897417 0.698044 0.209356 -0.087063
C74   C     C_R   0.149208 0.671770 0.777793 -0.161878
C75   C     C_R   0.350031 0.171256 0.221313 -0.156757
C76   C     C_R   0.602498 0.197774 0.791790 -0.101310
C77   C     C_R   0.857913 0.424752 0.315173 -0.163457
C78   C     C_R   0.093972 0.393474 0.695248 -0.115004
C79   C     C_R   0.405392 0.893454 0.305072 -0.098564
C80   C     C_R   0.642388 0.923036 0.684009 -0.100132
C81   C     C_R   0.834798 0.585264 0.942536 -0.261003
C82   C     C_R   0.152547 0.592694 0.079395 -0.202481
C83   C     C_R   0.358782 0.098798 0.904794 -0.218921
C84   C     C_R   0.665904 0.083395 0.056549 -0.246420
C85   C     C_R   0.796011 0.651587 0.006366 -0.024495
C86   C     C_R   0.182347 0.664183 0.030019 -0.042469
C87   C     C_R   0.336602 0.174065 0.943430 -0.041804
C88   C     C_R   0.704482 0.150057 0.993342 -0.023944
H1    H     H_    0.109154 0.328002 0.518120 0.129304
H2    H     H_    0.693796 0.255815 0.354970 0.125911
H3    H     H_    0.786539 0.923745 0.467324 0.129665
H4    H     H_    0.390310 0.827159 0.481850 0.130275
H5    H     H_    0.886878 0.790103 0.613970 0.200731
H6    H     H_    0.261919 0.701809 0.329036 0.200604
H7    H     H_    0.236756 0.201340 0.671119 0.201242
H8    H     H_    0.826641 0.373474 0.506274 0.206126
H9    H     H_    0.816723 0.704899 0.694134 0.191706
H10   H     H_    0.339013 0.618918 0.256628 0.194454
H11   H     H_    0.160346 0.118146 0.742267 0.191171
H12   H     H_    0.750780 0.456837 0.581685 0.205462
H13   H     H_    0.968767 0.709965 0.452726 0.198401
H14   H     H_    0.176763 0.625682 0.488520 0.202395
H15   H     H_    0.322594 0.126354 0.510524 0.201424
H16   H     H_    0.743916 0.294623 0.663852 0.211967
H17   H     H_    0.897752 0.625412 0.533800 0.188191
H18   H     H_    0.252746 0.541809 0.417526 0.194447
H19   H     H_    0.247597 0.042117 0.580001 0.202281
H20   H     H_    0.667218 0.376864 0.740871 0.206048
H21   H     H_    0.916092 0.579727 0.359499 0.099998
H22   H     H_    0.155320 0.536419 0.622424 0.107226
H23   H     H_    0.344005 0.036363 0.377245 0.106380
H24   H     H_    0.585578 0.080342 0.639283 0.098704
H25   H     H_    0.887732 0.243931 0.017225 0.123330
H26   H     H_    0.128402 0.247165 0.960825 0.127396
H27   H     H_    0.378161 0.746194 0.030484 0.129198
H28   H     H_    0.610810 0.743664 0.985501 0.125028
H29   H     H_    0.900619 0.754274 0.175657 0.138413
H30   H     H_    0.169968 0.721145 0.798603 0.156209
H31   H     H_    0.328771 0.219687 0.199185 0.155600
H32   H     H_    0.595634 0.253665 0.828400 0.153401
H33   H     H_    0.843452 0.465999 0.377410 0.117680
H34   H     H_    0.083251 0.420672 0.640998 0.105916
H35   H     H_    0.415629 0.920467 0.359852 0.111983
H36   H     H_    0.655388 0.960367 0.618586 0.096882
H37   H     H_    0.816230 0.553719 0.900455 0.173687
H38   H     H_    0.166987 0.562882 0.127980 0.188780
H39   H     H_    0.348826 0.069816 0.851158 0.158189
H40   H     H_    0.685520 0.049188 0.096560 0.142053
H41   H     H_    0.195265 0.248135 0.353786 0.121318
H42   H     H_    0.609283 0.174646 0.518287 0.125537
H43   H     H_    0.870041 0.843393 0.303523 0.142917
H44   H     H_    0.304303 0.746759 0.645787 0.136675
N1    N     N_R   0.908660 0.628630 0.995840 -0.102031
N2    N     N_R   0.091340 0.628630 0.004160 -0.088150
N3    N     N_R   0.408660 0.128630 0.995840 -0.090380
N4    N     N_R   0.591340 0.128630 0.004160 -0.103800
N5    N     N_R   0.922310 0.368460 0.151950 -0.039541
N6    N     N_R   0.077690 0.368460 0.848050 -0.036750
N7    N     N_R   0.422310 0.868460 0.151950 -0.040179
N8    N     N_R   0.577690 0.868460 0.848050 -0.040467
N9    N     N_R   0.903470 0.421430 0.936420 -0.078054
N10   N     N_R   0.096530 0.421430 0.063580 -0.089281
N11   N     N_R   0.403470 0.921430 0.936420 -0.081659
N12   N     N_R   0.596530 0.921430 0.063580 -0.074894
N13   N     N_R   0.927500 0.575670 0.211370 -0.043497
N14   N     N_R   0.072500 0.575670 0.788630 -0.042560
N15   N     N_R   0.427500 0.075670 0.211370 -0.042251
N16   N     N_R   0.572500 0.075670 0.788630 -0.044881
N17   N     N_R   0.908660 0.365680 0.995820 -0.064679
N18   N     N_R   0.091340 0.365680 0.004180 -0.067550
N19   N     N_R   0.408660 0.865680 0.995820 -0.070272
N20   N     N_R   0.591340 0.865680 0.004180 -0.066093
N21   N     N_R   0.922310 0.631420 0.151980 -0.044830
N22   N     N_R   0.077690 0.631420 0.848020 -0.052881
N23   N     N_R   0.422310 0.131420 0.151980 -0.053633
N24   N     N_R   0.577690 0.131420 0.848020 -0.049708
N25   N     N_R   0.927500 0.426330 0.211360 -0.051916
N26   N     N_R   0.072500 0.426330 0.788640 -0.040861
N27   N     N_R   0.427500 0.926330 0.211360 -0.040327
N28   N     N_R   0.572500 0.926330 0.788640 -0.036875
N29   N     N_R   0.903470 0.570760 0.936440 -0.065874
N30   N     N_R   0.096530 0.570760 0.063560 -0.067367
N31   N     N_R   0.403470 0.070760 0.936440 -0.067130
N32   N     N_R   0.596530 0.070760 0.063560 -0.066247
Ni1   Ni    Ni4+2 0.000000 0.630300 0.000000 0.224679
Ni2   Ni    Ni4+2 0.500000 0.130300 0.000000 0.221898
Ni3   Ni    Ni4+2 0.000000 0.369700 0.000000 0.196298
Ni4   Ni    Ni4+2 0.500000 0.869700 0.000000 0.199847
Ni5   Ni    Ni4+2 0.988090 0.497570 0.863760 0.236744
Ni6   Ni    Ni4+2 0.011910 0.497570 0.136240 0.199124
Ni7   Ni    Ni4+2 0.488090 0.997570 0.863760 0.236202
Ni8   Ni    Ni4+2 0.511910 0.997570 0.136240 0.235969
O1    O     O_3   0.846830 0.753654 0.068728 -0.707529
C89   C     C_3   0.881083 0.808122 0.981482 0.094606
H45   H     H_    0.871960 0.867050 0.017287 0.136127
H46   H     H_    0.846693 0.807735 0.945320 0.115304
C90   C     C_3   0.976293 0.796193 0.890665 -0.308512
H47   H     H_    0.008913 0.787748 0.928362 0.234229
H48   H     H_    0.986144 0.743630 0.841738 0.199581
C91   C     C_3   0.015293 0.865678 0.812424 -1.001654
H49   H     H_    0.980918 0.877426 0.777735 0.266840
H50   H     H_    0.082355 0.852569 0.743347 0.281693
H51   H     H_    0.012914 0.918372 0.856464 0.266809
O2    O     O_3   0.124015 0.763935 0.974684 -0.713710
C92   C     C_3   0.092837 0.811155 0.068187 0.160170
H52   H     H_    0.145688 0.829487 0.069308 0.125003
H53   H     H_    0.044797 0.780183 0.146717 0.097348
C93   C     C_3   0.051519 0.884214 0.062365 -0.298210
H54   H     H_    0.093223 0.909663 0.978438 0.218609
H55   H     H_    0.990570 0.868335 0.079348 0.193954
C94   C     C_3   0.035520 0.945893 0.145054 -1.037561
H56   H     H_    0.997097 0.921517 0.229682 0.276155
H57   H     H_    0.000962 0.995993 0.143337 0.271160
H58   H     H_    0.096603 0.967243 0.123311 0.267786
O3    O     O_3   0.389018 0.266222 0.015748 -0.708851
C95   C     C_3   0.417440 0.319607 0.929024 0.188432
H59   H     H_    0.363249 0.342149 0.933490 0.147638
H60   H     H_    0.464221 0.292514 0.846622 0.087659
C96   C     C_3   0.459186 0.389095 0.941177 -0.288178
H61   H     H_    0.414849 0.414013 0.025404 0.223000
H62   H     H_    0.517194 0.369496 0.929686 0.192007
C97   C     C_3   0.483038 0.452609 0.856927 -1.020757
H63   H     H_    0.526663 0.429078 0.771920 0.270377
H64   H     H_    0.515210 0.501047 0.866137 0.272418
H65   H     H_    0.425432 0.476010 0.870205 0.280150
O4    O     O_3   0.654311 0.252794 0.930342 -0.709824
C98   C     C_3   0.617793 0.307342 0.017984 0.075654
H66   H     H_    0.625818 0.365862 0.981919 0.139407
H67   H     H_    0.651424 0.308398 0.055162 0.117358
C99   C     C_3   0.522671 0.294081 0.107680 -0.305447
H68   H     H_    0.492129 0.280195 0.068624 0.243079
H69   H     H_    0.513549 0.244236 0.160261 0.196556
C100  C     C_3   0.479818 0.365660 0.181187 -0.991737
H70   H     H_    0.509323 0.380445 0.221526 0.267550
H71   H     H_    0.411649 0.353257 0.245955 0.273571
H72   H     H_    0.485309 0.416307 0.131935 0.261080
H73   H     H_    0.782789 0.178513 0.040869 0.135571
H74   H     H_    0.264240 0.214060 0.889980 0.146677
H75   H     H_    0.250075 0.704145 0.088444 0.141032
H76   H     H_    0.716522 0.679869 0.960705 0.136456
H77   H     H_    0.293287 0.753988 0.864287 0.153272
H78   H     H_    0.691955 0.755886 0.160809 0.175304
H79   H     H_    0.807827 0.255919 0.841003 0.170494
H80   H     H_    0.229903 0.266494 0.108716 0.155426
H81   H     H_    0.829048 0.280467 0.199742 0.093270
H82   H     H_    0.094873 0.246262 0.829118 0.100561
H83   H     H_    0.404427 0.746451 0.170876 0.103743
H84   H     H_    0.671604 0.782053 0.803763 0.105428
O5    O     O_3   0.876109 0.416093 0.803971 -0.671218
C101  C     C_3   0.795647 0.425757 0.828549 0.141464
H85   H     H_    0.746697 0.444864 0.915498 0.081352
H86   H     H_    0.774498 0.370333 0.815605 0.129391
C102  C     C_3   0.802011 0.486019 0.749652 -0.254960
H87   H     H_    0.850924 0.530406 0.726259 0.211124
H88   H     H_    0.821752 0.455935 0.673230 0.203009
C103  C     C_3   0.717989 0.527891 0.800267 -1.068228
H89   H     H_    0.666235 0.485354 0.830833 0.273640
H90   H     H_    0.723423 0.565701 0.737306 0.273851
H91   H     H_    0.701646 0.565037 0.870202 0.264536
O6    O     O_3   0.163753 0.425507 0.151826 -0.691689
C104  C     C_3   0.115236 0.397951 0.261441 0.160712
H92   H     H_    0.158667 0.390723 0.283544 0.136030
H93   H     H_    0.084887 0.339951 0.274497 0.074556
C105  C     C_3   0.047896 0.458644 0.338083 -0.307094
H94   H     H_    0.078065 0.516716 0.321930 0.204932
H95   H     H_    0.001135 0.462345 0.321252 0.188417
C106  C     C_3   0.002294 0.438198 0.458870 -1.010946
H96   H     H_    0.969228 0.381402 0.478763 0.269914
H97   H     H_    0.955209 0.484397 0.510682 0.259028
H98   H     H_    0.047876 0.435357 0.477830 0.267219
O7    O     O_3   0.370717 0.916101 0.810205 -0.673744
C107  C     C_3   0.291381 0.922787 0.831098 0.122369
H99   H     H_    0.258491 0.976859 0.878369 0.098628
H100  H     H_    0.248475 0.873703 0.879417 0.132903
C108  C     C_3   0.306114 0.925739 0.720753 -0.230746
H101  H     H_    0.338283 0.981179 0.677772 0.194929
H102  H     H_    0.348044 0.876566 0.668297 0.200419
C109  C     C_3   0.223398 0.919396 0.735564 -1.070558
H103  H     H_    0.189485 0.865166 0.780644 0.290984
H104  H     H_    0.237150 0.916942 0.653606 0.269567
H105  H     H_    0.182305 0.970589 0.781766 0.273023
O8    O     O_3   0.602649 0.913098 0.212685 -0.677447
C110  C     C_3   0.669013 0.911390 0.221635 0.129082
H106  H     H_    0.687195 0.972377 0.222573 0.108020
H107  H     H_    0.727291 0.881563 0.152459 0.092561
C111  C     C_3   0.636275 0.873400 0.331431 -0.228878
H108  H     H_    0.584471 0.909736 0.400244 0.195439
H109  H     H_    0.609903 0.814897 0.337429 0.199083
C112  C     C_3   0.706190 0.864798 0.343743 -1.025997
H110  H     H_    0.757088 0.826341 0.277867 0.291642
H111  H     H_    0.679864 0.838213 0.424920 0.280086
H112  H     H_    0.733151 0.922708 0.338918 0.257980

loop_
_geom_bond_atom_site_label_1
_geom_bond_atom_site_label_2
_ccdc_geom_bond_type
C84   H40   S    
C110  C111  S    
C83   C87   A    
C94   H57   S    
C108  H102  S    
N8    Ni4   S    
C96   H62   S    
C27   H43   S    
C7    C36   S    
C109  H104  S    
N17   Ni3   S    
C56   H76   S    
C30   H2    S    
C98   H67   S    
C25   H41   S    
C29   H1    S    
C10   C60   S    
C58   H78   S    
C18   C38   A    
N9    N17   A    
O7    C107  S    
C57   H77   S    
O1    C89   S    
O2    C92   S    
C104  H93   S    
C100  H72   S    
C69   H25   S    
C2    N2    A    
C97   H64   S    
C93   C94   S    
C9    C61   A    
C55   H75   S    
C14   C74   A    
C107  H100  S    
C35   C37   A    
C43   H11   S    
C38   C42   S    
C11   C63   A    
C42   H10   S    
C99   H68   S    
C79   N27   A    
C54   C87   S    
C48   H84   S    
C11   C71   A    
C92   H53   S    
N23   Ni2   S    
C51   H15   S    
N19   Ni4   S    
C76   H32   S    
C29   C33   A    
C42   H6    S    
N16   Ni7   S    
C62   O6    S    
C105  H94   S    
C74   N22   A    
C101  C102  S    
C93   H55   S    
C104  H92   S    
C68   H24   S    
C89   H45   S    
C82   H38   S    
N12   Ni8   S    
C93   H54   S    
C33   C39   A    
C41   H5    S    
C92   H52   S    
C20   C24   A    
C103  H90   S    
C90   H48   S    
C97   H65   S    
C70   N18   A    
C98   C99   S    
C43   H7    S    
N22   Ni1   S    
C16   C68   A    
C56   C58   D    
N31   Ni7   S    
C102  H87   S    
C3    N3    A    
C68   N16   A    
C91   H51   S    
C4    N4    A    
C12   C58   S    
C44   C52   S    
C15   C23   S    
C12   C72   A    
C108  C109  S    
N7    N27   A    
C96   H61   S    
C16   C24   S    
C18   C22   A    
C112  H110  S    
C59   H79   S    
C53   H73   S    
C80   H36   S    
C10   C62   A    
N3    N31   A    
C62   N10   A    
C95   C96   S    
C1    N1    A    
C60   H80   S    
C13   C65   A    
C41   C49   S    
N20   Ni4   S    
C91   H50   S    
C54   H74   S    
C106  H97   S    
C1    C85   A    
C74   H30   S    
C71   N19   A    
C73   H29   S    
N27   Ni8   S    
C30   C34   A    
C3    C87   A    
C98   H66   S    
C15   C67   A    
C28   C32   A    
C77   H33   S    
C95   H60   S    
C103  H89   S    
C97   H63   S    
C17   C49   S    
C48   N8    A    
O4    C98   S    
C44   H12   S    
C92   C93   S    
C54   C60   D    
C6    C78   A    
C82   N30   A    
C72   N20   A    
C100  H70   S    
C27   C31   A    
C76   N24   A    
C70   H26   S    
C94   H56   S    
N1    N29   A    
N6    Ni3   S    
C28   H44   S    
C8    C35   S    
C7    C47   A    
C19   C23   A    
N14   N22   A    
C8    C48   A    
O5    C101  S    
C44   H8    S    
N1    Ni1   S    
N25   Ni6   S    
C96   C97   S    
N6    N26   A    
C61   O5    S    
N12   N20   A    
N30   Ni6   S    
C20   C40   A    
N24   Ni2   S    
C71   H27   S    
C90   C91   S    
C1    O1    S    
C5    C34   S    
C45   N5    A    
C14   C66   A    
N2    Ni1   S    
C13   C21   S    
C55   C57   D    
C2    O2    S    
C66   H22   S    
C101  H86   S    
C102  H88   S    
C89   C90   S    
C65   H21   S    
C111  H109  S    
C42   C50   S    
C107  C108  S    
C10   C70   A    
C67   H23   S    
C13   C73   A    
C50   H14   S    
C99   H69   S    
N3    Ni2   S    
C112  H111  S    
C8    C80   A    
C67   N15   A    
C14   C22   S    
C21   C27   A    
C41   H9    S    
N32   Ni8   S    
C109  H105  S    
N14   Ni5   S    
C17   C37   A    
C19   C39   A    
C5    C77   A    
C108  H101  S    
N21   Ni1   S    
C32   C36   A    
N5    Ni3   S    
C66   N14   A    
N15   N23   A    
N15   Ni8   S    
C18   C50   S    
C7    C79   A    
C15   C75   A    
N4    N32   A    
C106  H98   S    
C61   N9    A    
N13   N21   A    
C110  H107  S    
C83   N31   A    
N13   Ni6   S    
C52   H16   S    
N11   N19   A    
C6    C46   A    
C83   H39   S    
C81   H37   S    
N9    Ni5   S    
C16   C76   A    
C81   N29   A    
C78   N26   A    
C79   H35   S    
C84   C88   A    
C24   C26   A    
C95   H59   S    
C111  C112  S    
C26   H42   S    
C63   O7    S    
C47   N7    A    
C56   C85   S    
C49   H17   S    
C106  H96   S    
C105  C106  S    
N26   Ni5   S    
C4    O4    S    
O8    C110  S    
C4    C88   A    
N4    Ni2   S    
C99   C100  S    
C64   N12   A    
C53   C59   D    
C72   H28   S    
C31   H3    S    
C6    C33   S    
N5    N25   A    
C75   N23   A    
C104  C105  S    
C69   N17   A    
N10   N18   A    
C55   C86   S    
C110  H106  S    
C109  H103  S    
C45   H81   S    
C100  H71   S    
N29   Ni5   S    
N7    Ni4   S    
C20   C52   S    
C75   H31   S    
C82   C86   A    
N8    N28   A    
C49   H13   S    
C9    C69   A    
C25   C29   A    
C84   N32   A    
C32   H4    S    
C5    C45   A    
C43   C51   S    
C19   C51   S    
C12   C64   A    
N18   Ni3   S    
C31   C35   A    
C36   C38   A    
O6    C104  S    
N28   Ni7   S    
C105  H95   S    
C2    C86   A    
C53   C88   S    
C64   O8    S    
C23   C25   A    
C37   C41   S    
C101  H85   S    
C78   H34   S    
C102  C103  S    
C89   H46   S    
C94   H58   S    
C80   N28   A    
C111  H108  S    
N11   Ni7   S    
O3    C95   S    
N2    N30   A    
C40   C44   S    
C46   H82   S    
C47   H83   S    
C52   H20   S    
C51   H19   S    
C90   H47   S    
C112  H112  S    
C73   N21   A    
C50   H18   S    
C63   N11   A    
C46   N6    A    
C34   C40   A    
C3    O3    S    
C22   C28   A    
N16   N24   A    
C9    C59   S    
C11   C57   S    
C65   N13   A    
C39   C43   S    
C103  H91   S    
C81   C85   A    
C91   H49   S    
N10   Ni6   S    
C77   N25   A    
C107  H99   S    
C26   C30   A    
C17   C21   A    
