data_str_m4_o4_o24_f0_acs.sym.97
_audit_creation_date              2012-12-11T15:50:47-0500
_audit_creation_method            fapswitch 2.2
_symmetry_space_group_name_H-M    P1
_symmetry_Int_Tables_number       1
_space_group_crystal_system       triclinic
_cell_length_a                    18.90988
_cell_length_b                    10.958963
_cell_length_c                    18.714185
_cell_angle_alpha                 90.026208
_cell_angle_beta                  91.403699
_cell_angle_gamma                 90.191661
_cell_volume                      3877.00456211

loop_
_atom_site_label
_atom_site_type_symbol
_atom_type_description
_atom_site_fract_x
_atom_site_fract_y
_atom_site_fract_z
_atom_type_partial_charge
C1    C     C_R   0.274049 0.039159 0.855062 0.549404
C2    C     C_R   0.726668 0.040689 0.145621 0.541869
C3    C     C_R   0.774049 0.539159 0.855062 0.549404
C4    C     C_R   0.226668 0.540689 0.145621 0.541869
C5    C     C_3   0.554927 0.741230 0.958875 -0.125829
C6    C     C_3   0.504995 0.716365 0.021194 -0.102096
C7    C     C_3   0.054926 0.241228 0.958875 -0.125829
C8    C     C_3   0.004993 0.216366 0.021195 -0.102096
C9    C     C_R   0.241752 0.577840 0.073064 0.016944
C10   C     C_R   0.760525 0.572509 0.928545 0.018180
C11   C     C_R   0.741752 0.077840 0.073064 0.016944
C12   C     C_R   0.260525 0.072509 0.928545 0.018180
C13   C     C_R   0.305929 0.554154 0.040223 0.007381
C14   C     C_R   0.696333 0.548714 0.961183 -0.008291
C15   C     C_R   0.805929 0.054154 0.040223 0.007381
C16   C     C_R   0.196333 0.048715 0.961183 -0.008291
C17   C     C_R   0.311430 0.563611 0.966539 0.021499
C18   C     C_R   0.690353 0.558700 0.034736 0.023764
C19   C     C_R   0.811430 0.063611 0.966539 0.021500
C20   C     C_R   0.190353 0.058700 0.034736 0.023764
C21   C     C_R   0.188367 0.618534 0.956577 -0.179729
C22   C     C_R   0.814079 0.611383 0.045426 -0.174871
C23   C     C_R   0.688367 0.118533 0.956577 -0.179730
C24   C     C_R   0.314079 0.111384 0.045426 -0.174871
C25   C     C_R   0.184125 0.617207 0.030090 -0.174767
C26   C     C_R   0.818896 0.608429 0.971867 -0.166298
C27   C     C_R   0.684125 0.117207 0.030090 -0.174768
C28   C     C_R   0.318896 0.108430 0.971867 -0.166297
C29   C     C_3   0.352166 0.444461 0.044189 -0.270964
C30   C     C_3   0.650717 0.437906 0.957178 -0.272426
C31   C     C_3   0.852166 0.944461 0.044189 -0.270964
C32   C     C_3   0.150718 0.937906 0.957178 -0.272426
C33   C     C_3   0.358259 0.454225 0.963749 -0.279598
C34   C     C_3   0.644349 0.447774 0.037501 -0.275046
C35   C     C_3   0.858260 0.954225 0.963750 -0.279598
C36   C     C_3   0.144349 0.947774 0.037501 -0.275046
C37   C     C_R   0.251837 0.590471 0.923452 0.014516
C38   C     C_R   0.749639 0.586314 0.077987 0.018586
C39   C     C_R   0.751837 0.090471 0.923452 0.014516
C40   C     C_R   0.249639 0.086314 0.077987 0.018586
C41   C     C_R   0.514239 0.831633 0.429266 0.018191
C42   C     C_R   0.505996 0.831140 0.579264 0.022639
C43   C     C_R   0.014240 0.331633 0.429266 0.018191
C44   C     C_R   0.005997 0.331140 0.579264 0.022639
C45   C     C_R   0.472017 0.822055 0.854471 0.546668
C46   C     C_R   0.560978 0.817093 0.137700 0.565361
C47   C     C_R   0.972017 0.322055 0.854471 0.546668
C48   C     C_R   0.060978 0.317093 0.137700 0.565361
C49   C     C_R   0.519991 0.724761 0.468617 0.027110
C50   C     C_R   0.519153 0.723526 0.541589 0.028527
C51   C     C_R   0.019991 0.224761 0.468617 0.027110
C52   C     C_R   0.019153 0.223526 0.541589 0.028527
C53   C     C_R   0.511304 0.942666 0.542241 -0.166151
C54   C     C_R   0.515131 0.942896 0.467187 -0.163057
C55   C     C_R   0.011304 0.442667 0.542241 -0.166151
C56   C     C_R   0.015130 0.442896 0.467187 -0.163057
C57   C     C_3   0.482597 0.605989 0.459941 -0.281708
C58   C     C_3   0.483559 0.600905 0.540736 -0.271598
C59   C     C_3   0.982597 0.105989 0.459941 -0.281708
C60   C     C_3   0.983559 0.100905 0.540736 -0.271598
C61   C     C_R   0.255007 0.604390 0.417432 0.022130
C62   C     C_R   0.747264 0.616751 0.584280 0.023045
C63   C     C_R   0.755007 0.104390 0.417432 0.022130
C64   C     C_R   0.247264 0.116751 0.584280 0.023045
C65   C     C_R   0.222171 0.708181 0.444973 0.029230
C66   C     C_R   0.796198 0.691728 0.549725 0.032134
C67   C     C_R   0.722171 0.208181 0.444973 0.029230
C68   C     C_R   0.296198 0.191728 0.549725 0.032134
C69   C     C_R   0.228608 0.734156 0.516935 0.015245
C70   C     C_R   0.787369 0.719467 0.478567 0.015603
C71   C     C_R   0.728608 0.234156 0.516935 0.015245
C72   C     C_R   0.287369 0.219466 0.478567 0.015603
C73   C     C_R   0.303750 0.558230 0.534062 -0.168670
C74   C     C_R   0.674617 0.616609 0.476794 -0.155937
C75   C     C_R   0.803750 0.058229 0.534062 -0.168670
C76   C     C_R   0.174617 0.116609 0.476794 -0.155937
C77   C     C_R   0.300269 0.535745 0.461566 -0.178506
C78   C     C_R   0.682386 0.592881 0.550054 -0.161775
C79   C     C_R   0.800269 0.035745 0.461566 -0.178506
C80   C     C_R   0.182386 0.092881 0.550054 -0.161775
C81   C     C_3   0.145670 0.743892 0.442301 -0.265939
C82   C     C_3   0.874386 0.675651 0.542591 -0.268361
C83   C     C_3   0.645670 0.243891 0.442301 -0.265939
C84   C     C_3   0.374386 0.175651 0.542591 -0.268361
C85   C     C_3   0.152125 0.766509 0.521481 -0.269988
C86   C     C_3   0.864563 0.703932 0.464431 -0.271737
C87   C     C_3   0.652125 0.266509 0.521481 -0.269988
C88   C     C_3   0.364563 0.203932 0.464431 -0.271737
C89   C     C_R   0.260802 0.635390 0.851334 0.551966
C90   C     C_R   0.739538 0.634326 0.149152 0.546750
C91   C     C_R   0.760802 0.135390 0.851334 0.551966
C92   C     C_R   0.239538 0.134326 0.149152 0.546750
C93   C     C_R   0.267441 0.657532 0.562193 0.023727
C94   C     C_R   0.729267 0.673879 0.439815 0.016161
C95   C     C_R   0.767441 0.157532 0.562193 0.023727
C96   C     C_R   0.229267 0.173879 0.439815 0.016160
C97   C     C_R   0.270624 0.049807 0.647387 0.542490
C98   C     C_R   0.729585 0.048506 0.352485 0.550833
C99   C     C_R   0.770624 0.549807 0.647387 0.542490
C100  C     C_R   0.229585 0.548506 0.352485 0.550833
C101  C     C_R   0.471169 0.823578 0.647733 0.537938
C102  C     C_R   0.531664 0.823736 0.354174 0.548423
C103  C     C_R   0.971169 0.323578 0.647733 0.537938
C104  C     C_R   0.031664 0.323736 0.354174 0.548423
C105  C     C_R   0.273374 0.686893 0.636574 0.569334
C106  C     C_R   0.725669 0.690945 0.363121 0.573661
C107  C     C_R   0.773374 0.186893 0.636574 0.569334
C108  C     C_R   0.225669 0.190945 0.363121 0.573661
C109  C     C_3   0.484512 0.913071 0.030364 -0.111295
C110  C     C_3   0.534235 0.937962 0.967500 -0.125195
C111  C     C_3   0.984513 0.413073 0.030364 -0.111295
C112  C     C_3   0.034237 0.437961 0.967499 -0.125195
C113  C     C_3   0.450207 0.805547 0.988969 -0.103869
C114  C     C_3   0.589638 0.848741 0.000481 -0.138051
C115  C     C_3   0.950206 0.305550 0.988969 -0.103869
C116  C     C_3   0.089639 0.348738 0.000481 -0.138051
C117  C     C_3   0.500502 0.829998 0.927381 0.050984
C118  C     C_3   0.539224 0.823880 0.061989 0.052516
C119  C     C_3   0.000501 0.329998 0.927381 0.050984
C120  C     C_3   0.039224 0.323880 0.061989 0.052517
Cr1   Cr    Cr6+3 0.229640 0.835880 0.747370 1.001776
Cr2   Cr    Cr6+3 0.770360 0.835880 0.252630 0.997039
Cr3   Cr    Cr6+3 0.729640 0.335880 0.747370 1.001776
Cr4   Cr    Cr6+3 0.270360 0.335880 0.252630 0.997039
Cr5   Cr    Cr6+3 0.387390 0.989720 0.750850 1.002850
Cr6   Cr    Cr6+3 0.612610 0.989720 0.249150 1.001692
Cr7   Cr    Cr6+3 0.887390 0.489720 0.750850 1.002850
Cr8   Cr    Cr6+3 0.112610 0.489720 0.249150 1.001692
Cr9   Cr    Cr6+3 0.385770 0.677220 0.749340 1.005707
Cr10  Cr    Cr6+3 0.614230 0.677220 0.250660 1.004009
Cr11  Cr    Cr6+3 0.885770 0.177220 0.749340 1.005707
Cr12  Cr    Cr6+3 0.114230 0.177220 0.250660 1.004009
H1    H     H_    0.392425 0.789011 0.982762 0.122639
H2    H     H_    0.647489 0.864129 0.006882 0.119391
H3    H     H_    0.892425 0.289015 0.982762 0.122639
H4    H     H_    0.147489 0.364124 0.006882 0.119391
H5    H     H_    0.507198 0.028574 0.570318 0.120916
H6    H     H_    0.516447 0.028967 0.439054 0.121072
H7    H     H_    0.007198 0.528574 0.570318 0.120916
H8    H     H_    0.016447 0.528967 0.439054 0.121072
H9    H     H_    0.014748 0.033536 0.435216 0.132087
H10   H     H_    0.930738 0.104283 0.563334 0.172261
H11   H     H_    0.514748 0.533536 0.435216 0.132087
H12   H     H_    0.430738 0.604282 0.563334 0.172261
H13   H     H_    0.429178 0.618011 0.435318 0.149176
H14   H     H_    0.517927 0.527512 0.562975 0.120325
H15   H     H_    0.929178 0.118011 0.435318 0.149176
H16   H     H_    0.017927 0.027512 0.562975 0.120325
H17   H     H_    0.332435 0.494636 0.568164 0.136996
H18   H     H_    0.629080 0.581535 0.448017 0.138982
H19   H     H_    0.832435 0.994636 0.568164 0.136996
H20   H     H_    0.129080 0.081535 0.448017 0.138982
H21   H     H_    0.326893 0.456652 0.441520 0.138643
H22   H     H_    0.641321 0.545529 0.578025 0.117039
H23   H     H_    0.826893 0.956652 0.441520 0.138643
H24   H     H_    0.141320 0.045529 0.578025 0.117039
H25   H     H_    0.136500 0.828596 0.410757 0.138137
H26   H     H_    0.905455 0.746178 0.572506 0.132234
H27   H     H_    0.636500 0.328596 0.410757 0.138137
H28   H     H_    0.405455 0.246178 0.572506 0.132234
H29   H     H_    0.143358 0.862286 0.535694 0.133428
H30   H     H_    0.891836 0.789128 0.448668 0.124954
H31   H     H_    0.643358 0.362286 0.535694 0.133428
H32   H     H_    0.391836 0.289128 0.448668 0.124954
H33   H     H_    0.121508 0.699862 0.553336 0.151229
H34   H     H_    0.875611 0.623920 0.429866 0.160872
H35   H     H_    0.621508 0.199862 0.553336 0.151229
H36   H     H_    0.375611 0.123920 0.429866 0.160872
H37   H     H_    0.455959 0.983050 0.061182 0.118892
H38   H     H_    0.543540 0.028497 0.943215 0.106772
H39   H     H_    0.955961 0.483053 0.061181 0.118892
H40   H     H_    0.043542 0.528495 0.943214 0.106772
H41   H     H_    0.581768 0.673432 0.925333 0.125313
H42   H     H_    0.492712 0.625281 0.043636 0.119015
H43   H     H_    0.081766 0.173429 0.925334 0.125313
H44   H     H_    0.992710 0.125283 0.043637 0.119016
H45   H     H_    0.142228 0.647073 0.925642 0.130462
H46   H     H_    0.860487 0.638540 0.076693 0.130879
H47   H     H_    0.642228 0.147073 0.925642 0.130463
H48   H     H_    0.360487 0.138540 0.076693 0.130879
H49   H     H_    0.133174 0.637978 0.052288 0.146114
H50   H     H_    0.870211 0.627139 0.949717 0.143422
H51   H     H_    0.633173 0.137978 0.052288 0.146114
H52   H     H_    0.370210 0.127139 0.949717 0.143422
H53   H     H_    0.823190 0.861712 0.061175 0.171846
H54   H     H_    0.180694 0.857013 0.940056 0.176843
H55   H     H_    0.323190 0.361712 0.061176 0.171846
H56   H     H_    0.680693 0.357013 0.940056 0.176843
H57   H     H_    0.402761 0.462671 0.073776 0.130310
H58   H     H_    0.600035 0.453947 0.927432 0.126347
H59   H     H_    0.902761 0.962671 0.073776 0.130310
H60   H     H_    0.100035 0.953946 0.927432 0.126346
H61   H     H_    0.412514 0.478263 0.946834 0.142018
H62   H     H_    0.589907 0.469758 0.054306 0.134373
H63   H     H_    0.912514 0.978263 0.946835 0.142018
H64   H     H_    0.089906 0.969758 0.054305 0.134373
H65   H     H_    0.333226 0.376671 0.934164 0.142165
H66   H     H_    0.669958 0.371480 0.067353 0.145629
H67   H     H_    0.833226 0.876671 0.934164 0.142165
H68   H     H_    0.169958 0.871480 0.067353 0.145629
O1    O     O_R   0.214300 0.709080 0.827500 -0.530961
O2    O     O_R   0.785700 0.709080 0.172500 -0.528973
O3    O     O_R   0.714300 0.209080 0.827500 -0.530961
O4    O     O_R   0.285700 0.209080 0.172500 -0.528973
O5    O     O_R   0.445900 0.919370 0.676500 -0.510233
O6    O     O_R   0.554100 0.919370 0.323500 -0.502998
O7    O     O_R   0.945900 0.419370 0.676500 -0.510233
O8    O     O_R   0.054100 0.419370 0.323500 -0.502998
O9    O     O_R   0.456660 0.717710 0.669820 -0.533549
O10   O     O_R   0.543340 0.717710 0.330180 -0.523575
O11   O     O_R   0.956660 0.217710 0.669820 -0.533549
O12   O     O_R   0.043340 0.217710 0.330180 -0.523575
O13   O     O_R   0.320590 0.625770 0.672930 -0.515079
O14   O     O_R   0.679410 0.625770 0.327070 -0.509128
O15   O     O_R   0.820590 0.125770 0.672930 -0.515079
O16   O     O_R   0.179410 0.125770 0.327070 -0.509128
O17   O     O_3   0.334270 0.834280 0.749190 -0.265502
O18   O     O_3   0.665730 0.834280 0.250810 -0.288797
O19   O     O_3   0.834270 0.334280 0.749190 -0.265502
O20   O     O_3   0.165730 0.334280 0.250810 -0.288797
O21   O     O_R   0.236190 0.958390 0.823150 -0.503377
O22   O     O_R   0.763810 0.958390 0.176850 -0.503314
O23   O     O_R   0.736190 0.458390 0.823150 -0.503377
O24   O     O_R   0.263810 0.458390 0.176850 -0.503314
O25   O     O_R   0.332090 0.075280 0.831290 -0.527501
O26   O     O_R   0.667910 0.075280 0.168710 -0.533538
O27   O     O_R   0.832090 0.575280 0.831290 -0.527501
O28   O     O_R   0.167910 0.575280 0.168710 -0.533539
O29   O     O_R   0.446280 0.918040 0.826620 -0.503995
O30   O     O_R   0.553720 0.918040 0.173380 -0.501014
O31   O     O_R   0.946280 0.418040 0.826620 -0.503995
O32   O     O_R   0.053720 0.418040 0.173380 -0.501014
O33   O     O_R   0.457080 0.716270 0.831760 -0.521374
O34   O     O_R   0.542920 0.716270 0.168240 -0.519516
O35   O     O_R   0.957080 0.216270 0.831760 -0.521374
O36   O     O_R   0.042920 0.216270 0.168240 -0.519516
O37   O     O_R   0.320980 0.624440 0.823040 -0.491035
O38   O     O_R   0.679020 0.624440 0.176960 -0.507647
O39   O     O_R   0.820980 0.124440 0.823040 -0.491035
O40   O     O_R   0.179020 0.124440 0.176960 -0.507647
O41   O     O_R   0.213880 0.710510 0.665560 -0.516366
O42   O     O_R   0.786120 0.710510 0.334440 -0.519246
O43   O     O_R   0.713880 0.210510 0.665560 -0.516366
O44   O     O_R   0.286120 0.210510 0.334440 -0.519246
O45   O     O_R   0.235800 0.959720 0.673040 -0.519370
O46   O     O_R   0.764200 0.959720 0.326960 -0.523766
O47   O     O_R   0.735800 0.459720 0.673040 -0.519370
O48   O     O_R   0.264200 0.459720 0.326960 -0.523766
O49   O     O_R   0.331670 0.076720 0.669350 -0.522848
O50   O     O_R   0.668330 0.076720 0.330650 -0.523587
O51   O     O_R   0.831670 0.576720 0.669350 -0.522848
O52   O     O_R   0.168330 0.576720 0.330650 -0.523587
H69   H     H_    0.108494 0.668137 0.429687 0.158796
H70   H     H_    0.891043 0.579967 0.551775 0.162583
H71   H     H_    0.608494 0.168137 0.429687 0.158796
H72   H     H_    0.391043 0.079967 0.551775 0.162583

loop_
_geom_bond_atom_site_label_1
_geom_bond_atom_site_label_2
_ccdc_geom_bond_type
Cr12  O40   S    
C89   O1    A    
C55   C56   A    
Cr4   O20   S    
C67   C83   S    
C57   H13   S    
C5    C114  S    
Cr1   O21   S    
C85   H29   S    
C14   C18   A    
C87   H31   S    
C111  C112  S    
Cr12  O12   S    
C73   C93   A    
C39   C91   S    
C22   H46   S    
C29   H57   S    
C25   H49   S    
Cr3   O43   S    
C28   H52   S    
C84   H28   S    
C75   C95   A    
C7    C8    S    
C48   C120  S    
C63   C79   A    
C53   C54   A    
C15   C19   A    
C32   H60   S    
C33   H65   S    
C35   H67   S    
C55   H7    S    
C17   C33   S    
C12   C28   A    
C53   H5    S    
C32   C36   S    
C13   C29   S    
C16   C20   A    
Cr6   O30   S    
C45   O33   A    
C98   O46   A    
C63   C98   S    
C69   C93   A    
C42   C53   A    
C97   O45   A    
C5    C6    S    
C82   H26   S    
C72   C96   A    
C65   C69   A    
C59   H15   S    
C71   C95   A    
C76   H20   S    
C45   C117  S    
C22   C38   A    
C58   H12   S    
C31   H59   S    
Cr12  O16   S    
C2    O22   A    
C91   O3    A    
C49   C57   S    
C41   C102  S    
C46   C118  S    
Cr11  O19   S    
C41   C49   A    
Cr10  O18   S    
C9    C13   A    
C43   C104  S    
C1    O21   A    
Cr7   O7    S    
C83   H27   S    
C52   C60   S    
C8    C115  S    
C93   C105  S    
C64   C80   A    
Cr5   O5    S    
C11   C15   A    
Cr10  O38   S    
C12   C16   A    
C29   C33   S    
C75   H19   S    
C88   H36   S    
C7    H43   S    
C24   H48   S    
Cr9   O17   S    
Cr4   O24   S    
C86   H30   S    
C104  O8    A    
C23   C27   A    
Cr4   O44   S    
C24   C28   A    
Cr8   O20   S    
C23   H47   S    
C92   O4    A    
C109  C113  S    
Cr2   O46   S    
C60   H10   S    
C34   H62   S    
Cr1   O45   S    
C96   C108  S    
Cr2   O22   S    
C33   H61   S    
C59   C60   S    
Cr8   O32   S    
C113  H1    S    
Cr7   O27   S    
C4    O24   A    
C46   O30   A    
C107  O43   A    
Cr6   O26   S    
C1    C12   S    
C45   O29   A    
C106  O42   A    
Cr5   O25   S    
C2    C11   S    
C101  O5    A    
C110  C117  S    
C105  O41   A    
C72   C88   S    
C44   C103  S    
C109  H37   S    
C109  C118  S    
C80   H24   S    
C47   O35   A    
C79   H23   S    
C106  O14   A    
C63   C67   A    
C81   H25   S    
C90   O38   A    
Cr7   O19   S    
C51   C52   A    
C68   C84   S    
C7    C119  S    
C62   C66   A    
C105  O13   A    
C99   O51   A    
C21   C25   A    
C10   C14   A    
C3    O27   A    
C103  O11   A    
C37   C89   S    
C98   O50   A    
C30   C34   S    
C102  O10   A    
C97   O49   A    
C6    H42   S    
C101  O9    A    
C82   C86   S    
C111  C120  S    
Cr3   O23   S    
Cr10  O34   S    
C116  C120  S    
C115  C119  S    
Cr9   O33   S    
C68   C72   A    
Cr12  O20   S    
C50   C58   S    
C7    C116  S    
Cr4   O48   S    
Cr1   O41   S    
C31   H53   S    
C36   H64   S    
C6    C113  S    
C84   H72   S    
C100  O48   A    
C69   C85   S    
C89   O37   A    
C66   C82   S    
C102  O6    A    
C16   C32   S    
C34   H66   S    
C44   C52   A    
C65   C81   S    
C114  C118  S    
C20   C40   A    
C11   C27   A    
Cr8   O28   S    
C108  O44   A    
Cr7   O31   S    
C10   C26   A    
C114  H2    S    
C107  O15   A    
C87   H35   S    
Cr8   O52   S    
C30   H56   S    
C40   C92   S    
C92   O40   A    
C18   C34   S    
C59   H9    S    
C108  O16   A    
Cr11  O35   S    
C95   C107  S    
C42   C50   A    
C71   C87   S    
C110  H38   S    
C47   O31   A    
C64   C97   S    
Cr4   O4    S    
C54   H6    S    
C61   C77   A    
C46   O34   A    
Cr11  O11   S    
C31   C35   S    
Cr10  O10   S    
C61   C100  S    
C51   C59   S    
C17   C37   A    
C99   O47   A    
C48   O32   A    
C70   C86   S    
C42   C101  S    
C64   C68   A    
C110  C114  S    
C112  C116  S    
C77   H21   S    
C47   C119  S    
C2    O26   A    
Cr7   O51   S    
C113  C117  S    
C1    O25   A    
Cr11  O15   S    
C8    C120  S    
Cr3   O19   S    
C94   C106  S    
C73   C77   A    
Cr2   O18   S    
C73   H17   S    
C48   O36   A    
C5    H41   S    
C62   C78   A    
C78   H22   S    
C76   C80   A    
C103  O7    A    
C100  O52   A    
C5    C117  S    
C83   C87   S    
C9    C25   A    
C112  C119  S    
C111  C115  S    
C8    H44   S    
C15   C31   S    
C36   H68   S    
C116  H4    S    
C13   C17   A    
Cr2   O42   S    
Cr1   O17   S    
C60   H16   S    
C38   C90   S    
Cr5   O29   S    
C32   H54   S    
C58   H14   S    
Cr6   O50   S    
C85   H33   S    
Cr2   O2    S    
Cr5   O49   S    
C18   C38   A    
C74   H18   S    
C14   C30   S    
C3    C10   S    
C88   H32   S    
C109  C110  S    
C76   C96   A    
C35   H63   S    
C44   C55   A    
C43   C51   A    
C57   C58   S    
C112  H40   S    
C84   C88   S    
C115  H3    S    
Cr6   O6    S    
C83   H71   S    
C56   H8    S    
C30   H58   S    
C21   H45   S    
C26   H50   S    
Cr12  O36   S    
C6    C118  S    
Cr10  O14   S    
C67   C71   A    
Cr9   O9    S    
C4    O28   A    
C61   C65   A    
Cr9   O13   S    
C27   H51   S    
C41   C54   A    
Cr3   O47   S    
Cr9   O37   S    
Cr11  O39   S    
Cr1   O1    S    
C62   C99   S    
C20   C36   S    
C29   H55   S    
C43   C56   A    
C21   C37   A    
C66   C70   A    
C24   C40   A    
C19   C39   A    
C49   C50   A    
C22   C26   A    
C91   O39   A    
C74   C94   A    
C70   C94   A    
C3    O23   A    
C104  O12   A    
C82   H70   S    
C19   C35   S    
Cr8   O8    S    
Cr3   O3    S    
C81   H69   S    
C4    C9    S    
C75   C79   A    
C23   C39   A    
C81   C85   S    
Cr6   O18   S    
C57   H11   S    
C86   H34   S    
C74   C78   A    
C90   O2    A    
C111  H39   S    
Cr5   O17   S    
