data_str_m3_o5_o14_f0_pcu.sym.33
_audit_creation_date              2013-03-05T16:46:43-0500
_audit_creation_method            fapswitch 2.2
_symmetry_space_group_name_H-M    P1
_symmetry_Int_Tables_number       1
_space_group_crystal_system       triclinic
_cell_length_a                    10.668189
_cell_length_b                    8.931364
_cell_length_c                    8.115292
_cell_angle_alpha                 89.979239
_cell_angle_beta                  91.618488
_cell_angle_gamma                 90.257144
_cell_volume                      772.920739705

loop_
_atom_site_label
_atom_site_type_symbol
_atom_site_description
_atom_site_fract_x
_atom_site_fract_y
_atom_site_fract_z
_atom_type_partial_charge
O1    O     O_R   0.500000 0.285350 0.636850 -0.584352
O2    O     O_R   0.500000 0.714650 0.636850 -0.588164
O3    O     O_R   0.500000 0.285360 0.363100 -0.622042
O4    O     O_R   0.500000 0.714640 0.363100 -0.615220
C1    C     C_R   0.501333 0.218061 0.500029 0.974520
C2    C     C_R   0.500019 0.781968 0.499963 0.939647
O5    O     O_R   0.316770 0.500000 0.636900 -0.621898
O6    O     O_R   0.683230 0.500000 0.636900 -0.607079
O7    O     O_R   0.316780 0.500000 0.363150 -0.634754
O8    O     O_R   0.683220 0.500000 0.363150 -0.606354
C3    C     C_R   0.259344 0.487811 0.497763 0.923988
C4    C     C_R   0.740566 0.516506 0.503707 0.875785
Zn1   Zn    Zn3+2 0.500000 0.500000 0.682780 1.091772
Zn2   Zn    Zn3+2 0.500000 0.500000 0.317220 1.053869
H1    H     H_    0.109858 0.581681 0.251715 0.183044
H2    H     H_    0.885183 0.614780 0.263420 0.213709
C5    C     C_R   0.112228 0.332924 0.757900 0.337382
C6    C     C_R   0.901354 0.508681 0.821910 0.347109
C7    C     C_R   0.056781 0.327133 0.912313 -0.238331
C8    C     C_R   0.955560 0.418737 0.945914 -0.295399
N1    N     N_1   0.500000 0.500000 0.073640 0.018935
N2    N     N_1   0.500000 0.500000 0.926360 0.026189
C9    C     C_R   0.944185 0.494803 0.658433 -0.043720
C10   C     C_R   0.061721 0.431441 0.635308 -0.064178
C11   C     C_R   0.125485 0.476929 0.493385 -0.038457
C12   C     C_R   0.874719 0.537239 0.514578 -0.042770
C13   C     C_R   0.061954 0.545663 0.360978 -0.207926
C14   C     C_R   0.935530 0.569935 0.369451 -0.189552
C15   C     C_1   0.501270 0.065212 0.500034 -0.087873
C16   C     C_1   0.500744 0.934804 0.499992 -0.116775
N3    N     N_R   0.209293 0.227689 0.721704 0.207095
O9    O     O_R   0.281726 0.175124 0.839612 -0.382840
O10   O     O_R   0.212765 0.166824 0.576228 -0.430105
N4    N     N_R   0.818112 0.627522 0.866922 0.220388
O11   O     O_R   0.755601 0.619390 0.001845 -0.423009
O12   O     O_R   0.813213 0.750660 0.781130 -0.384901
H3    H     H_    0.093269 0.253456 0.007998 0.211889
H4    H     H_    0.919899 0.419551 0.069043 0.200377

loop_
_geom_bond_atom_site_label_1
_geom_bond_atom_site_label_2
_geom_bond_distance
_ccdc_geom_bond_type
H2    C14   1.079301 S    
O7    Zn2   2.000163 S    
N3    O10   1.301448 A    
O6    Zn1   2.000180 S    
C11   C13   1.397476 A    
O7    C3    1.271932 A    
C12   C14   1.390848 A    
C7    C8    1.390865 A    
O6    C4    1.265165 A    
C9    C10   1.395523 A    
O2    C2    1.262960 A    
N1    N2    1.195219 T    
O5    C3    1.273783 A    
C6    N4    1.440731 S    
C15   C16   1.164711 T    
O3    Zn2   1.952719 S    
O8    C4    1.287244 A    
O1    C1    1.263208 A    
Zn2   N1    1.976723 S    
C2    C16   1.365028 S    
Zn1   N2    1.976723 S    
N4    O12   1.301883 A    
O4    Zn2   1.952983 S    
C5    N3    1.438078 S    
C5    C10   1.423952 A    
O1    Zn1   1.953148 S    
C3    C11   1.430346 S    
C6    C9    1.420935 A    
C1    C15   1.365143 S    
O5    Zn1   1.979520 S    
C8    H4    1.079234 S    
C10   C11   1.412709 A    
C6    C8    1.401128 A    
O4    C2    1.263200 A    
N4    O11   1.299863 A    
O8    Zn2   1.979479 S    
C9    C12   1.417415 A    
C13   C14   1.370624 A    
O2    Zn1   1.952882 S    
C7    H3    1.082755 S    
C5    C7    1.401572 A    
H1    C13   1.083885 S    
N3    O9    1.301638 A    
C4    C12   1.442503 S    
O3    C1    1.262932 A    
