data_str_m2_o14_o18_f0_pcu.sym.84
_audit_creation_date              2013-03-05T15:50:50-0500
_audit_creation_method            fapswitch 2.2
_symmetry_space_group_name_H-M    P1
_symmetry_Int_Tables_number       1
_space_group_crystal_system       triclinic
_cell_length_a                    9.580692
_cell_length_b                    10.868096
_cell_length_c                    15.429586
_cell_angle_alpha                 87.400467
_cell_angle_beta                  74.181
_cell_angle_gamma                 90.399156
_cell_volume                      1543.84010052

loop_
_atom_site_label
_atom_site_type_symbol
_atom_site_description
_atom_site_fract_x
_atom_site_fract_y
_atom_site_fract_z
_atom_type_partial_charge
O1    O     O_R   0.118810 0.319640 0.500010 -0.573640
O2    O     O_R   0.881240 0.319660 0.500000 -0.567518
C1    C     C_R   0.002874 0.262813 0.494323 0.825791
O3    O     O_R   0.055570 0.499980 0.629840 -0.566624
O4    O     O_R   0.818000 0.500010 0.629830 -0.581787
C2    C     C_R   0.918241 0.491674 0.672459 0.843454
Cu1   Cu    Cu3+1 0.140660 0.499990 0.500010 0.980796
Cu2   Cu    Cu3+1 0.859340 0.500010 0.499990 0.989565
O5    O     O_R   0.118760 0.680340 0.500000 -0.626041
O6    O     O_R   0.881190 0.680360 0.499990 -0.602716
O7    O     O_R   0.182000 0.499990 0.370170 -0.577472
O8    O     O_R   0.944430 0.500020 0.370160 -0.575645
C3    C     C_R   0.998900 0.737312 0.506044 0.788691
C4    C     C_R   0.082122 0.501652 0.327601 0.770011
C5    C     C_R   0.875329 0.471868 0.771943 -0.161748
C6    C     C_R   0.130286 0.521520 0.228993 -0.069410
C7    C     C_R   0.919085 0.394016 0.913312 -0.049376
C8    C     C_R   0.965861 0.411157 0.818513 -0.076180
C9    C     C_R   0.739609 0.512579 0.820543 -0.142095
C10   C     C_R   0.693654 0.502815 0.915388 0.109389
C11   C     C_R   0.780585 0.435602 0.960885 -0.005724
C12   C     C_R   0.557813 0.550254 0.965275 -0.069963
C13   C     C_R   0.493886 0.503312 0.055880 -0.092737
C14   C     C_R   0.584721 0.435205 0.099653 0.329195
C15   C     C_R   0.724607 0.405461 0.052643 -0.204904
C16   C     C_R   0.485014 0.644538 0.928258 0.327979
C17   C     C_R   0.341555 0.671036 0.971565 -0.225714
C18   C     C_R   0.270655 0.614749 0.054766 0.096064
C19   C     C_R   0.344741 0.530187 0.098348 0.085768
C20   C     C_R   0.127344 0.647828 0.096988 -0.090769
C21   C     C_R   0.058864 0.603839 0.184556 -0.152726
C22   C     C_R   0.264986 0.476575 0.182619 -0.157603
H1    H     H_    0.787911 0.354421 0.089824 0.205913
H2    H     H_    0.302996 0.399922 0.215404 0.189768
H3    H     H_    0.953847 0.638901 0.218769 0.144246
H4    H     H_    0.287058 0.741860 0.942029 0.190584
H5    H     H_    0.667834 0.548385 0.782785 0.187918
H6    H     H_    0.071062 0.713107 0.064023 0.150086
H7    H     H_    0.774305 0.109273 0.517382 0.199289
C23   C     C_R   0.279033 0.121253 0.441541 -0.212629
H8    H     H_    0.291631 0.208883 0.403995 0.205623
C24   C     C_R   0.405232 0.061847 0.448331 0.370229
C25   C     C_R   0.392409 0.946986 0.494069 -0.224138
H9    H     H_    0.487017 0.902797 0.505864 0.174155
C26   C     C_R   0.258025 0.886541 0.522972 -0.198740
H10   H     H_    0.254155 0.800575 0.561428 0.195860
C27   C     C_R   0.133125 0.938895 0.505081 0.099968
C28   C     C_R   0.140161 0.064713 0.478109 0.039903
C29   C     C_R   0.007978 0.128696 0.489313 -0.100832
C30   C     C_R   0.876410 0.062570 0.508197 -0.114124
H11   H     H_    0.772037 0.886736 0.523339 0.179884
C31   C     C_R   0.874413 0.935276 0.514871 -0.152351
C32   C     C_R   0.001824 0.871624 0.512379 -0.105248
H12   H     H_    0.585468 0.353647 0.597106 0.129971
C33   C     C_R   0.697657 0.666937 0.382324 -0.147292
H13   H     H_    0.811136 0.670329 0.374186 0.186911
C34   C     C_R   0.651058 0.751281 0.326497 -0.148536
H14   H     H_    0.728056 0.814507 0.281225 0.177571
C35   C     C_R   0.506834 0.753225 0.327516 -0.138462
H15   H     H_    0.470939 0.818025 0.283060 0.164505
C36   C     C_R   0.408512 0.670431 0.384109 -0.097619
H16   H     H_    0.302098 0.676501 0.376363 0.191597
C37   C     C_R   0.450731 0.584239 0.443526 0.235065
C38   C     C_R   0.600686 0.583202 0.442905 0.240472
N1    N     N_R   0.648320 0.501210 0.499140 -0.196644
C39   C     C_R   0.549875 0.419813 0.553524 0.015303
H17   H     H_    0.328608 0.350871 0.594078 0.167966
C40   C     C_R   0.402374 0.418980 0.552627 -0.010608
N2    N     N_R   0.352470 0.501290 0.499110 -0.207569
N3    N     N_R   0.545589 0.118779 0.410515 0.123825
O9    O     O_R   0.559935 0.237979 0.399390 -0.311255
O10   O     O_R   0.659932 0.051400 0.385225 -0.392292
C41   C     C_2   0.013085 0.327861 0.961943 0.869706
O11   O     O_2   0.051517 0.223062 0.942958 -0.554130
O12   O     O_R   0.057359 0.386062 0.029193 -0.752989
H18   H     H_    0.120897 0.332115 0.057272 0.341490
C42   C     C_2   0.104624 0.356730 0.769204 0.897117
O13   O     O_2   0.104463 0.276961 0.715798 -0.590485
O14   O     O_R   0.233915 0.392898 0.787231 -0.748353
H19   H     H_    0.320384 0.344961 0.753210 0.320462
N4    N     N_R   0.546430 0.404871 0.194156 0.098996
O15   O     O_R   0.551948 0.290981 0.222608 -0.320947
O16   O     O_R   0.536766 0.492061 0.250102 -0.361039
N5    N     N_R   0.560591 0.727144 0.854680 0.106897
O17   O     O_R   0.687277 0.772860 0.853048 -0.336817
O18   O     O_R   0.494964 0.770458 0.796562 -0.354493

loop_
_geom_bond_atom_site_label_1
_geom_bond_atom_site_label_2
_geom_bond_distance
_ccdc_geom_bond_type
C5    C8    1.417298 A    
C39   C40   1.416967 A    
C33   H13   1.060067 S    
C41   O11   1.223080 D    
C9    C10   1.407365 A    
O12   H18   1.013769 S    
N4    O15   1.300705 A    
C1    C29   1.463595 S    
Cu1   Cu2   2.695325 S    
C42   O13   1.223134 D    
C6    C21   1.395498 A    
Cu1   O7    1.933337 S    
C16   C17   1.393117 A    
C13   C19   1.438460 A    
C18   C19   1.419116 A    
N5    O18   1.301641 A    
C19   C22   1.413315 A    
C20   C21   1.392240 A    
O7    C4    1.299711 A    
C34   C35   1.377881 A    
C24   N3    1.435078 S    
C20   H6    1.083939 S    
C23   C28   1.419165 A    
C26   C27   1.416759 A    
C36   C37   1.418150 A    
O5    C3    1.291329 A    
C9    H5    1.079484 S    
C2    C5    1.481990 S    
C37   N2    1.382870 A    
C40   N2    1.365601 A    
C30   C31   1.382224 A    
C13   C14   1.430203 A    
N3    O9    1.300426 A    
C27   C32   1.425523 A    
C23   C24   1.401237 A    
Cu2   N1    2.025461 S    
C7    C41   1.489818 S    
C41   O12   1.397312 S    
O3    Cu1   1.946052 S    
N4    O16   1.297502 A    
C3    C32   1.467983 S    
C42   O14   1.399014 S    
C35   C36   1.388508 A    
H17   C40   1.076932 S    
N5    O17   1.301716 A    
O3    C2    1.301122 A    
C26   H10   1.078687 S    
C7    C11   1.418177 A    
H11   C31   1.083549 S    
O1    C1    1.292820 A    
C22   H2    1.071897 S    
C5    C9    1.398342 A    
C14   N4    1.425667 S    
C27   C28   1.406896 A    
Cu2   O8    1.946052 S    
C33   C38   1.415148 A    
C7    C8    1.411307 A    
C14   C15   1.387116 A    
C25   C26   1.391645 A    
C28   C29   1.421625 A    
O8    C4    1.303111 A    
C29   C30   1.399429 A    
C33   C34   1.387553 A    
C25   H9    1.083235 S    
C21   H3    1.081754 S    
C24   C25   1.393600 A    
C31   C32   1.399531 A    
Cu1   O5    1.972709 S    
C11   C15   1.393164 A    
C23   H8    1.080480 S    
C16   N5    1.438564 S    
O1    Cu1   1.969758 S    
O2    Cu2   1.972709 S    
C10   C12   1.432229 A    
C37   C38   1.434222 A    
O6    C3    1.310191 A    
Cu1   N2    2.025491 S    
O4    Cu2   1.933337 S    
H12   C39   1.081738 S    
C17   H4    1.084557 S    
C6    C22   1.397518 A    
C38   N1    1.380798 A    
C18   C20   1.406875 A    
O2    C1    1.306399 A    
C34   H14   1.082949 S    
O4    C2    1.305137 A    
C8    C42   1.482054 S    
C4    C6    1.469863 S    
C36   H16   1.060528 S    
O14   H19   1.013420 S    
C35   H15   1.083010 S    
H7    C30   1.082824 S    
C10   C11   1.414494 A    
Cu2   O6    1.969758 S    
N1    C39   1.365943 A    
C12   C16   1.427132 A    
C17   C18   1.389676 A    
C12   C13   1.433155 A    
N3    O10   1.301010 A    
C15   H1    1.081738 S    
