data_str_m2_o9_o16_f0_pcu.sym.87
_audit_creation_date              2012-12-10T19:44:28-0500
_audit_creation_method            fapswitch 2.2
_symmetry_space_group_name_H-M    P1
_symmetry_Int_Tables_number       1
_space_group_crystal_system       triclinic
_cell_length_a                    10.872401
_cell_length_b                    12.266186
_cell_length_c                    13.527716
_cell_angle_alpha                 116.736289
_cell_angle_beta                  78.170338
_cell_angle_gamma                 100.772196
_cell_volume                      1567.71606697

loop_
_atom_site_label
_atom_site_type_symbol
_atom_type_description
_atom_site_fract_x
_atom_site_fract_y
_atom_site_fract_z
_atom_type_partial_charge
C1    C     C_R   0.515145 0.852841 0.287512 0.795102
C2    C     C_R   0.666025 0.718218 0.705384 -0.103126
C3    C     C_R   0.042191 0.939162 0.551796 -0.234589
C4    C     C_R   0.129563 0.001681 0.498368 -0.083268
C5    C     C_R   0.086800 0.065138 0.449219 -0.005467
C6    C     C_R   0.957820 0.066141 0.456930 -0.233715
C7    C     C_R   0.870080 0.001680 0.508160 -0.081240
C8    C     C_R   0.912937 0.936315 0.556268 0.002556
C9    C     C_R   0.167288 0.245877 0.406694 -0.171788
C10   C     C_R   0.224447 0.293674 0.330095 -0.139341
C11   C     C_R   0.282880 0.217103 0.225427 -0.134685
C12   C     C_R   0.736792 0.001105 0.503741 0.774811
C13   C     C_R   0.290308 0.094302 0.199201 -0.138047
C14   C     C_R   0.233896 0.046249 0.275837 -0.095796
C15   C     C_R   0.169736 0.121250 0.379263 0.136228
C16   C     C_R   0.555679 0.255957 0.005413 0.171969
C17   C     C_R   0.503155 0.226693 0.828276 -0.166770
C18   C     C_R   0.576292 0.816202 0.090487 -0.284183
C19   C     C_R   0.619564 0.742625 0.980297 -0.255677
C20   C     C_R   0.611504 0.615536 0.941732 0.470189
C21   C     C_R   0.549472 0.560102 0.012881 0.017756
C22   C     C_R   0.518847 0.634590 0.128559 0.037200
C23   C     C_R   0.487600 0.145455 0.711808 0.846817
C24   C     C_R   0.531917 0.431072 0.974058 -0.011292
C25   C     C_R   0.537917 0.380649 0.048060 0.074542
C26   C     C_R   0.509292 0.452997 0.161965 -0.226084
C27   C     C_R   0.482584 0.572763 0.198901 -0.194511
C28   C     C_R   0.489549 0.352123 0.870954 0.481209
C29   C     C_R   0.540279 0.180306 0.894070 -0.293308
C30   C     C_R   0.531370 0.765717 0.167655 -0.101308
C31   C     C_R   0.712110 0.353036 0.342932 -0.322108
C32   C     C_R   0.321515 0.754874 0.635273 0.077943
C33   C     C_R   0.273645 0.650049 0.651674 -0.270341
C34   C     C_R   0.263115 0.999864 0.498084 0.797858
C35   C     C_R   0.336033 0.544815 0.593876 -0.225222
C36   C     C_R   0.450210 0.544768 0.522287 -0.006428
C37   C     C_R   0.492107 0.652133 0.504081 0.287908
C38   C     C_R   0.523950 0.442789 0.467806 -0.037452
C39   C     C_R   0.635466 0.449065 0.394013 0.155471
C40   C     C_R   0.670315 0.551504 0.372121 -0.284025
C41   C     C_R   0.599729 0.650370 0.425470 -0.179528
C42   C     C_R   0.494808 0.335851 0.486107 0.026961
C43   C     C_R   0.679661 0.251872 0.366839 0.075411
C44   C     C_R   0.653661 0.843047 0.747141 -0.159566
C45   C     C_R   0.736694 0.915670 0.701435 -0.074084
C46   C     C_R   0.828882 0.862271 0.610181 0.122273
C47   C     C_R   0.844447 0.737797 0.572446 -0.177106
C48   C     C_R   0.763903 0.666527 0.620764 -0.104150
Cu1   Cu    Cu3+1 0.529370 0.098270 0.475420 0.945744
Cu2   Cu    Cu3+1 0.470630 0.901730 0.524580 0.923511
H1    H     H_    0.599471 0.661528 0.738517 0.161707
H2    H     H_    0.321177 0.252579 0.164099 0.146449
H3    H     H_    0.336669 0.035522 0.118267 0.133720
H4    H     H_    0.235027 0.949581 0.252621 0.106010
H5    H     H_    0.552211 0.084265 0.860034 0.167955
H6    H     H_    0.493172 0.413989 0.221544 0.168920
H7    H     H_    0.587320 0.914576 0.116858 0.181615
H8    H     H_    0.665387 0.785693 0.926150 0.163365
H9    H     H_    0.579264 0.882783 0.814575 0.118236
H10   H     H_    0.433681 0.610900 0.282183 0.190215
H11   H     H_    0.738936 0.177699 0.328871 0.125388
H12   H     H_    0.753475 0.555753 0.313412 0.157551
H13   H     H_    0.797335 0.357046 0.286243 0.139838
H14   H     H_    0.411294 0.322235 0.539282 0.118846
H15   H     H_    0.271177 0.835476 0.678171 0.127986
H16   H     H_    0.291296 0.464137 0.604364 0.129068
H17   H     H_    0.186665 0.649473 0.707360 0.141458
H18   H     H_    0.631936 0.722113 0.399901 0.212006
H19   H     H_    0.727549 0.012469 0.734210 0.108448
H20   H     H_    0.917052 0.695266 0.503931 0.129015
H21   H     H_    0.774887 0.570319 0.590235 0.149420
H22   H     H_    0.074543 0.891809 0.591193 0.155991
H23   H     H_    0.926025 0.112953 0.416727 0.159451
H24   H     H_    0.116894 0.304564 0.485558 0.123031
H25   H     H_    0.220155 0.389078 0.350556 0.137403
N1    N     N_R   0.573890 0.246290 0.438210 -0.182801
N2    N     N_R   0.426890 0.754320 0.561170 -0.208680
O1    O     O_R   0.536940 0.972510 0.318130 -0.579447
O2    O     O_R   0.487330 0.806530 0.359650 -0.622225
O3    O     O_R   0.705160 0.082990 0.479250 -0.591921
O4    O     O_R   0.655550 0.917010 0.520760 -0.598031
O5    O     O_R   0.512670 0.193470 0.640350 -0.580370
O6    O     O_R   0.463060 0.027490 0.681870 -0.595651
O7    O     O_R   0.344450 0.082990 0.479240 -0.579161
O8    O     O_R   0.294840 0.917010 0.520750 -0.596541
C49   C     C_3   0.600685 0.205069 0.073086 -0.879339
H26   H     H_    0.533407 0.214768 0.149045 0.238392
H27   H     H_    0.613551 0.106090 0.024044 0.221630
H28   H     H_    0.693250 0.255456 0.098536 0.238292
O9    O     O_3   0.383366 0.379253 0.848088 -0.597718
C50   C     C_3   0.414207 0.441311 0.779418 -0.246321
H29   H     H_    0.336315 0.414091 0.729243 0.156439
H30   H     H_    0.503279 0.418100 0.720717 0.206321
H31   H     H_    0.415968 0.541755 0.830949 0.170492
O10   O     O_3   0.669071 0.545989 0.835562 -0.626153
C51   C     C_3   0.798085 0.548660 0.839769 -0.358860
H32   H     H_    0.810848 0.511428 0.897993 0.168286
H33   H     H_    0.847589 0.643136 0.863545 0.172030
H34   H     H_    0.842993 0.489490 0.755181 0.190988

loop_
_geom_bond_atom_site_label_1
_geom_bond_atom_site_label_2
_ccdc_geom_bond_type
C23   O5    A    
O10   C51   S    
C17   C29   A    
C35   C36   A    
Cu2   O2    S    
C7    C8    A    
C45   C46   A    
C43   H11   S    
C26   C27   A    
C17   C23   S    
C31   C43   A    
C37   C41   A    
Cu1   O7    S    
C36   C37   A    
C38   C42   A    
C27   H10   S    
C38   C39   A    
C49   H27   S    
C44   H9    S    
C51   H34   S    
C16   C25   A    
C40   H12   S    
Cu1   O1    S    
C18   C19   A    
C11   H2    S    
Cu2   O8    S    
C32   N2    A    
C19   C20   A    
C2    C44   A    
C51   H33   S    
C18   C30   A    
C9    C10   A    
C13   C14   A    
C16   C49   S    
C1    O1    A    
C34   O7    A    
Cu2   O6    S    
C41   H18   S    
C13   H3    S    
C19   H8    S    
C7    C12   S    
C4    C34   S    
C45   H19   S    
C31   H13   S    
C24   C25   A    
C3    C8    A    
C10   C11   A    
C50   H29   S    
C49   H26   S    
C29   H5    S    
C35   H16   S    
C2    C48   A    
C25   C26   A    
C37   N2    A    
C34   O8    A    
Cu1   O5    S    
C47   H20   S    
C50   H30   S    
C10   H25   S    
C18   H7    S    
C47   C48   A    
C51   H32   S    
Cu1   N1    S    
C23   O6    A    
C40   C41   A    
C14   H4    S    
C20   O10   S    
C22   C27   A    
C1    O2    A    
C9    H24   S    
C48   H21   S    
C3    C4    A    
Cu2   N2    S    
C42   H14   S    
C39   C40   A    
C44   C45   A    
C33   H17   S    
C6    H23   S    
C43   N1    A    
C46   C47   A    
C22   C30   A    
C17   C28   A    
C24   C28   A    
C4    C5    A    
C49   H28   S    
C26   H6    S    
C6    C7    A    
C42   N1    A    
Cu1   O3    S    
C32   C33   A    
C36   C38   A    
C3    H22   S    
C16   C29   A    
C50   H31   S    
C11   C13   A    
O9    C50   S    
C5    C6    A    
C12   O3    A    
C1    C30   S    
C33   C35   A    
C31   C39   A    
C12   O4    A    
C9    C15   A    
C8    C46   S    
C5    C15   S    
C2    H1    S    
C20   C21   A    
Cu1   Cu2   S    
C21   C24   A    
C14   C15   A    
C28   O9    S    
C21   C22   A    
Cu2   O4    S    
C32   H15   S    
