data_str_m2_o18_o27_f0_pcu.sym.164
_audit_creation_date              2012-12-10T17:52:02-0500
_audit_creation_method            fapswitch 2.2
_symmetry_space_group_name_H-M    P1
_symmetry_Int_Tables_number       1
_space_group_crystal_system       triclinic
_cell_length_a                    14.668618
_cell_length_b                    14.667424
_cell_length_c                    19.349108
_cell_angle_alpha                 76.664577
_cell_angle_beta                  102.987415
_cell_angle_gamma                 114.650213
_cell_volume                      3642.49476572

loop_
_atom_site_label
_atom_site_type_symbol
_atom_type_description
_atom_site_fract_x
_atom_site_fract_y
_atom_site_fract_z
_atom_type_partial_charge
C1    C     C_R   0.880410 0.312125 0.512446 0.812884
C2    C     C_R   0.119559 0.687806 0.487525 0.787174
C3    C     C_R   0.813152 0.204372 0.521043 -0.058365
C4    C     C_R   0.187026 0.795004 0.474875 -0.050694
C5    C     C_R   0.783485 0.027716 0.565318 -0.212916
C6    C     C_R   0.219435 0.967470 0.416073 -0.219512
C7    C     C_R   0.850376 0.128661 0.553871 -0.199399
C8    C     C_R   0.151243 0.868630 0.434162 -0.213621
C9    C     C_R   0.709308 0.177892 0.497658 -0.262706
C10   C     C_R   0.290568 0.821661 0.499297 -0.265654
C11   C     C_R   0.640685 0.076359 0.506077 0.090657
C12   C     C_R   0.361426 0.919351 0.479018 0.088949
C13   C     C_R   0.679041 0.001286 0.542773 0.164968
C14   C     C_R   0.324014 0.992986 0.437294 0.169856
C15   C     C_R   0.535060 0.047961 0.480796 0.064651
C16   C     C_R   0.467885 0.945684 0.498919 0.060316
C17   C     C_R   0.509576 0.872935 0.534980 -0.213452
C18   C     C_R   0.494694 0.117968 0.436835 -0.249997
C19   C     C_R   0.613094 0.900469 0.556037 -0.216739
C20   C     C_R   0.391183 0.090845 0.415987 -0.248899
C21   C     C_R   0.719118 0.675441 0.384202 -0.111583
C22   C     C_R   0.262477 0.303885 0.594855 -0.117760
C23   C     C_R   0.002337 0.503960 0.632191 0.776254
C24   C     C_R   0.000347 0.500487 0.367047 0.790356
C25   C     C_R   0.797897 0.640335 0.400816 0.033237
C26   C     C_R   0.190944 0.346751 0.586226 0.043938
C27   C     C_R   0.714317 0.508934 0.488945 0.010806
C28   C     C_R   0.290652 0.495650 0.516934 -0.000393
C29   C     C_R   0.630642 0.539004 0.475065 -0.036569
C30   C     C_R   0.372109 0.462271 0.529110 -0.035063
C31   C     C_R   0.638703 0.630568 0.426803 0.048561
C32   C     C_R   0.357942 0.364089 0.570146 0.058876
C33   C     C_R   0.540886 0.482066 0.508430 0.071673
C34   C     C_R   0.464348 0.521459 0.498765 0.070329
C35   C     C_R   0.483585 0.620289 0.460605 -0.278555
C36   C     C_R   0.525409 0.386433 0.550716 -0.272409
C37   C     C_R   0.568347 0.674966 0.425059 -0.010597
C38   C     C_R   0.438678 0.329607 0.583448 -0.005519
C39   C     C_R   0.097041 0.533272 0.756817 -0.008856
C40   C     C_R   0.922246 0.507902 0.234531 -0.004839
C41   C     C_R   0.092953 0.526379 0.829522 -0.154511
C42   C     C_R   0.923811 0.494810 0.165533 -0.154665
C43   C     C_R   0.001326 0.502004 0.854049 -0.035707
C44   C     C_R   0.002712 0.476556 0.149988 -0.025238
C45   C     C_R   0.911604 0.486776 0.803872 0.018364
C46   C     C_R   0.081140 0.467525 0.205081 0.019170
C47   C     C_R   0.914371 0.488075 0.731906 -0.227579
C48   C     C_R   0.078641 0.477871 0.274664 -0.229263
C49   C     C_R   0.005533 0.509250 0.707883 -0.137027
C50   C     C_R   0.000213 0.497583 0.290797 -0.143509
C51   C     C_R   0.004601 0.476618 0.074535 0.392592
C52   C     C_R   0.002276 0.492493 0.931951 0.402162
Cu1   Cu    Cu3+1 0.081740 0.475680 0.518680 0.932665
Cu2   Cu    Cu3+1 0.918260 0.524320 0.481320 0.933017
H1    H     H_    0.291611 0.564002 0.481295 0.127815
H2    H     H_    0.719534 0.447484 0.530258 0.127132
H3    H     H_    0.119071 0.301728 0.605537 0.134685
H4    H     H_    0.862024 0.676468 0.371591 0.114859
H5    H     H_    0.435278 0.659337 0.459822 0.134341
H6    H     H_    0.580762 0.352973 0.559970 0.133610
H7    H     H_    0.162389 0.541486 0.867375 0.195036
H8    H     H_    0.865483 0.504452 0.122257 0.181812
H9    H     H_    0.844657 0.473175 0.694238 0.155806
H10   H     H_    0.138165 0.468587 0.316858 0.162715
H11   H     H_    0.641737 0.842152 0.583002 0.144262
H12   H     H_    0.363541 0.147153 0.382856 0.149468
H13   H     H_    0.313605 0.763992 0.534049 0.146437
H14   H     H_    0.683415 0.238565 0.474930 0.153076
H15   H     H_    0.071155 0.849351 0.414946 0.146552
H16   H     H_    0.930601 0.147642 0.572295 0.154449
H17   H     H_    0.813317 0.970274 0.592178 0.136427
H18   H     H_    0.190592 0.023511 0.384136 0.133898
H19   H     H_    0.464859 0.793014 0.546378 0.141990
H20   H     H_    0.541098 0.194406 0.416186 0.153661
N1    N     N_R   0.917522 0.433944 0.962605 -0.218158
N2    N     N_R   0.090012 0.533651 0.044441 -0.216396
N3    N     N_R   0.918332 0.426914 0.032441 -0.236804
N4    N     N_R   0.088902 0.541140 0.974462 -0.242227
N5    N     N_R   0.795420 0.560800 0.453240 -0.182918
N6    N     N_R   0.204580 0.439200 0.546760 -0.184681
O1    O     O_R   0.977910 0.338110 0.524620 -0.591418
O2    O     O_R   0.022090 0.661890 0.475380 -0.588276
O3    O     O_R   0.839850 0.379180 0.493080 -0.585511
O4    O     O_R   0.160150 0.620820 0.506920 -0.595979
O5    O     O_R   0.069040 0.479450 0.615630 -0.587421
O6    O     O_R   0.930960 0.520550 0.384370 -0.596224
O7    O     O_R   0.930990 0.520520 0.584090 -0.575075
O8    O     O_R   0.069010 0.479480 0.415910 -0.572110
C53   C     C_2   0.198073 0.571162 0.733263 0.357278
H21   H     H_    0.208314 0.605004 0.678066 0.088131
O9    O     O_2   0.272124 0.567105 0.775866 -0.553317
C54   C     C_2   0.840572 0.536797 0.243665 0.368704
H22   H     H_    0.855831 0.591974 0.277727 0.084294
O10   O     O_2   0.755384 0.501697 0.210607 -0.550228
C55   C     C_R   0.585711 0.782802 0.394414 0.132128
C56   C     C_R   0.509038 0.807603 0.346233 -0.156230
C57   C     C_R   0.524715 0.908966 0.318396 -0.115505
C58   C     C_R   0.616888 0.986368 0.338181 -0.091926
C59   C     C_R   0.693206 0.962625 0.386366 -0.115118
C60   C     C_R   0.677205 0.861510 0.415427 -0.121418
H23   H     H_    0.437554 0.748374 0.329781 0.116751
H24   H     H_    0.465463 0.927483 0.281292 0.130214
H25   H     H_    0.628978 0.064795 0.316513 0.131421
H26   H     H_    0.764345 0.022730 0.401990 0.136803
H27   H     H_    0.736379 0.844474 0.453807 0.117538
C61   C     C_R   0.440310 0.237346 0.634449 0.129635
C62   C     C_R   0.449187 0.158498 0.610265 -0.159645
C63   C     C_R   0.451092 0.071648 0.657996 -0.115144
C64   C     C_R   0.445350 0.063347 0.730422 -0.095719
C65   C     C_R   0.438641 0.142280 0.755253 -0.143724
C66   C     C_R   0.437263 0.229592 0.707662 -0.131518
H28   H     H_    0.452819 0.163877 0.554254 0.144259
H29   H     H_    0.456635 0.010700 0.638774 0.138442
H30   H     H_    0.446314 0.995862 0.767337 0.128369
H31   H     H_    0.434259 0.135664 0.811389 0.122616
H32   H     H_    0.432087 0.290323 0.727465 0.126173
C67   C     C_R   0.719240 0.750651 0.317999 0.115061
C68   C     C_R   0.804772 0.841252 0.307700 -0.168577
C69   C     C_R   0.804212 0.911811 0.245320 -0.121493
C70   C     C_R   0.719063 0.892004 0.192396 -0.098631
C71   C     C_R   0.634550 0.801292 0.201535 -0.126655
C72   C     C_R   0.634770 0.730544 0.263823 -0.101551
H33   H     H_    0.870952 0.858056 0.348548 0.109646
H34   H     H_    0.869726 0.981985 0.238094 0.124422
H35   H     H_    0.718689 0.946818 0.144211 0.125609
H36   H     H_    0.568783 0.785809 0.160396 0.129681
H37   H     H_    0.568857 0.660611 0.270298 0.114267
C73   C     C_R   0.225697 0.192514 0.618459 0.108039
C74   C     C_R   0.194582 0.150141 0.686323 -0.160905
C75   C     C_R   0.157821 0.044908 0.707651 -0.122146
C76   C     C_R   0.150248 0.981263 0.661051 -0.106939
C77   C     C_R   0.178518 0.022650 0.592774 -0.132581
C78   C     C_R   0.215192 0.127813 0.571155 -0.122018
H38   H     H_    0.200224 0.198713 0.722919 0.125489
H39   H     H_    0.135250 0.012695 0.760338 0.126571
H40   H     H_    0.122006 0.899843 0.677713 0.122673
H41   H     H_    0.172024 0.973209 0.556658 0.145318
H42   H     H_    0.236482 0.158945 0.517973 0.122630
C79   C     C_R   0.815332 0.475309 0.823753 0.118477
C80   C     C_R   0.729657 0.384529 0.818755 -0.128729
C81   C     C_R   0.639630 0.373603 0.839200 -0.129865
C82   C     C_R   0.633960 0.453571 0.863353 -0.096083
C83   C     C_R   0.718587 0.544606 0.867522 -0.116052
C84   C     C_R   0.809104 0.555584 0.847859 -0.126861
H43   H     H_    0.733153 0.321938 0.800228 0.129767
H44   H     H_    0.574437 0.302942 0.836864 0.125619
H45   H     H_    0.564076 0.444887 0.878996 0.136080
H46   H     H_    0.714171 0.606510 0.886253 0.133686
H47   H     H_    0.874401 0.626302 0.851611 0.121326
C85   C     C_R   0.164015 0.442917 0.192587 0.119145
C86   C     C_R   0.141679 0.358058 0.160149 -0.126243
C87   C     C_R   0.219877 0.334083 0.149662 -0.133913
C88   C     C_R   0.320809 0.394005 0.171868 -0.097707
C89   C     C_R   0.343726 0.477948 0.204689 -0.123486
C90   C     C_R   0.265824 0.502366 0.215206 -0.148521
H48   H     H_    0.063788 0.310054 0.143515 0.124383
H49   H     H_    0.202183 0.268754 0.124583 0.129839
H50   H     H_    0.381252 0.375231 0.163832 0.137705
H51   H     H_    0.421887 0.524022 0.222012 0.126854
H52   H     H_    0.284876 0.567825 0.240608 0.118715

loop_
_geom_bond_atom_site_label_1
_geom_bond_atom_site_label_2
_ccdc_geom_bond_type
C15   C18   A    
C5    H17   S    
C27   C29   A    
C67   C68   A    
C62   H28   S    
C2    O4    A    
C55   C56   A    
C41   H7    S    
C4    C8    A    
C52   N1    A    
C73   C74   A    
C7    H16   S    
C57   C58   A    
C39   C41   A    
C10   H13   S    
C6    H18   S    
C21   C31   A    
C8    H15   S    
C80   C81   A    
C22   C32   A    
Cu1   O4    S    
Cu1   O1    S    
C35   C37   A    
N2    N4    A    
Cu2   N5    S    
C27   N5    A    
C47   H9    S    
Cu2   O7    S    
C43   C52   S    
C23   C49   S    
C61   C62   A    
C1    O1    A    
C58   H25   S    
C29   C33   A    
C45   C79   S    
C33   C36   A    
C63   C64   A    
C37   C55   S    
C35   H5    S    
C34   C35   A    
C72   H37   S    
C83   C84   A    
C68   C69   A    
C21   C67   S    
C17   C19   A    
C65   C66   A    
C11   C15   A    
C12   C16   A    
C77   C78   A    
C62   C63   A    
C66   H32   S    
C32   C38   A    
C53   O9    D    
C42   H8    S    
C5    C13   A    
C57   H24   S    
C40   C42   A    
C59   H26   S    
C78   H42   S    
C18   H20   S    
C23   O7    A    
C56   H23   S    
C17   H19   S    
C41   C43   A    
C42   C44   A    
C52   N4    A    
Cu2   O3    S    
C28   H1    S    
C44   C46   A    
C61   C66   A    
C45   C47   A    
C24   C50   S    
C83   H46   S    
C46   C48   A    
C30   C34   A    
C14   C20   A    
Cu1   N6    S    
C51   N2    A    
C47   C49   A    
C76   H40   S    
Cu2   O6    S    
C13   C19   A    
C55   C60   A    
C16   C17   A    
C6    C8    A    
C77   H41   S    
C69   H34   S    
C26   N6    A    
C31   C37   A    
C1    C3    S    
C63   H29   S    
C38   C61   S    
C2    C4    S    
C67   C72   A    
C51   N3    A    
C84   H47   S    
C3    C9    A    
C6    C14   A    
C9    C11   A    
C79   C84   A    
C22   C73   S    
C59   C60   A    
C86   C87   A    
C56   C57   A    
C54   O10   D    
C33   C34   A    
C60   H27   S    
C86   H48   S    
C40   C54   S    
C69   C70   A    
N1    N3    A    
C89   C90   A    
C71   C72   A    
C10   C12   A    
C64   H30   S    
C81   H44   S    
C44   C51   S    
C39   C49   A    
C75   H39   S    
C12   C14   A    
C85   C90   A    
C23   O5    A    
C2    O2    A    
C25   H4    S    
C4    C10   A    
C76   C77   A    
Cu2   O2    S    
C70   C71   A    
C88   H50   S    
C5    C7    A    
C74   C75   A    
C20   H12   S    
C21   C25   A    
C87   H49   S    
C46   C85   S    
C90   H52   S    
C27   H2    S    
C82   H45   S    
C24   O8    A    
C36   H6    S    
C25   N5    A    
C80   H43   S    
C79   C80   A    
Cu1   Cu2   S    
C1    O3    A    
C3    C7    A    
C28   C30   A    
C75   C76   A    
C88   C89   A    
C9    H14   S    
C89   H51   S    
C43   C45   A    
C73   C78   A    
C36   C38   A    
C30   C32   A    
C11   C13   A    
C40   C50   A    
C48   C50   A    
C54   H22   S    
C70   H35   S    
C19   H11   S    
Cu1   O8    S    
C18   C20   A    
C68   H33   S    
C28   N6    A    
C26   H3    S    
C48   H10   S    
C74   H38   S    
C71   H36   S    
C87   C88   A    
C29   C31   A    
C58   C59   A    
C22   C26   A    
C64   C65   A    
C82   C83   A    
C85   C86   A    
Cu1   O5    S    
C53   H21   S    
C81   C82   A    
C24   O6    A    
C65   H31   S    
C39   C53   S    
C15   C16   A    
