data_str_m12_o9_o13_f0_bcu.sym.12
_audit_creation_date              2012-12-11T17:43:17-0500
_audit_creation_method            fapswitch 2.2
_symmetry_space_group_name_H-M    P1
_symmetry_Int_Tables_number       1
_space_group_crystal_system       triclinic
_cell_length_a                    14.852841
_cell_length_b                    14.886794
_cell_length_c                    16.950826
_cell_angle_alpha                 109.007257
_cell_angle_beta                  106.125076
_cell_angle_gamma                 108.431176
_cell_volume                      3044.05607265

loop_
_atom_site_label
_atom_site_type_symbol
_atom_type_description
_atom_site_fract_x
_atom_site_fract_y
_atom_site_fract_z
_atom_type_partial_charge
C1    C     C_R   0.083204 0.287694 0.082089 -0.135197
C2    C     C_R   0.075722 0.112506 0.141215 -0.228296
C3    C     C_R   0.984313 0.922000 0.079521 0.053008
C4    C     C_R   0.984641 0.111060 0.085643 0.053371
C5    C     C_R   0.074133 0.018831 0.144699 0.030261
C6    C     C_R   0.887703 0.020615 0.050994 0.029848
C7    C     C_R   0.698804 0.949148 0.944141 -0.181339
C8    C     C_R   0.135593 0.953542 0.259233 -0.138426
C9    C     C_R   0.591576 0.030621 0.988690 -0.094248
C10   C     C_R   0.317997 0.033253 0.365565 -0.082036
C11   C     C_R   0.467113 0.438072 0.227440 -0.113549
C12   C     C_R   0.905887 0.721308 0.976911 -0.121915
C13   C     C_R   0.518139 0.379529 0.635612 -0.115173
C14   C     C_R   0.457160 0.447942 0.146569 -0.147951
C15   C     C_R   0.496288 0.361593 0.705720 -0.141526
C16   C     C_R   0.937362 0.517355 0.745370 -0.143845
C17   C     C_R   0.062065 0.549821 0.264552 -0.132342
C18   C     C_R   0.408817 0.356660 0.061297 0.101865
C19   C     C_R   0.484339 0.438101 0.771383 0.116967
C20   C     C_R   0.374231 0.255945 0.058666 -0.171789
C21   C     C_R   0.495121 0.532872 0.765850 -0.175926
C22   C     C_R   0.387132 0.246581 0.139822 -0.124729
C23   C     C_R   0.030387 0.576224 0.743448 0.081909
C24   C     C_R   0.516820 0.550397 0.695541 -0.106642
C25   C     C_R   0.432461 0.337441 0.224133 -0.107830
C26   C     C_R   0.528238 0.473778 0.630446 -0.097274
C27   C     C_R   0.476800 0.336538 0.946989 -0.229393
C28   C     C_R   0.381970 0.436044 0.865632 -0.233610
C29   C     C_R   0.519772 0.382903 0.898682 0.044352
C30   C     C_R   0.361513 0.419908 0.937436 0.065322
C31   C     C_R   0.462670 0.419341 0.846346 0.030076
C32   C     C_R   0.408660 0.366316 0.977129 0.029492
C33   C     C_R   0.602629 0.953086 0.924139 -0.113137
C34   C     C_R   0.967891 0.536057 0.273196 0.082347
C35   C     C_R   0.214419 0.957831 0.330629 -0.099026
C36   C     C_R   0.957705 0.582410 0.360274 0.049667
C37   C     C_R   0.041312 0.615477 0.675203 0.062201
C38   C     C_R   0.142093 0.683707 0.598652 -0.304451
C39   C     C_R   0.859520 0.574627 0.453653 -0.290542
C40   C     C_R   0.775016 0.201518 0.811966 -0.134065
C41   C     C_R   0.279948 0.784869 0.176084 -0.120934
C42   C     C_R   0.139174 0.660242 0.671336 0.189754
C43   C     C_R   0.860247 0.554709 0.367193 0.189303
C44   C     C_R   0.950256 0.600756 0.607683 -0.301523
C45   C     C_R   0.757587 0.195788 0.725141 0.055450
C46   C     C_R   0.050550 0.644357 0.441730 -0.300395
C47   C     C_R   0.952751 0.612655 0.530174 0.166521
C48   C     C_R   0.049018 0.651849 0.524926 0.176094
C49   C     C_R   0.716380 0.099947 0.638502 0.132978
C50   C     C_R   0.445362 0.856033 0.320866 0.126477
C51   C     C_R   0.589348 0.032313 0.393656 -0.238726
C52   C     C_R   0.615035 0.908984 0.551801 -0.233911
C53   C     C_R   0.497845 0.951155 0.318308 -0.175234
C54   C     C_R   0.681300 0.998989 0.635560 -0.172535
C55   C     C_R   0.493145 0.837627 0.393901 -0.292714
C56   C     C_R   0.336362 0.782255 0.254628 0.066243
C57   C     C_R   0.698238 0.108260 0.556006 -0.284429
C58   C     C_R   0.580850 0.920367 0.471591 0.192518
C59   C     C_R   0.626391 0.019874 0.472860 0.188381
C60   C     C_R   0.676511 0.104076 0.073597 -0.125121
C61   C     C_R   0.342873 0.104528 0.329184 -0.122248
C62   C     C_R   0.772795 0.100347 0.094105 -0.146610
C63   C     C_R   0.264261 0.100268 0.257594 -0.174487
C64   C     C_R   0.264263 0.535858 0.952798 -0.129865
C65   C     C_R   0.696182 0.397700 0.988915 -0.134079
C66   C     C_R   0.785070 0.023415 0.029118 0.113684
C67   C     C_R   0.294192 0.461365 0.970046 0.050543
C68   C     C_R   0.159642 0.023686 0.220432 0.113882
C69   C     C_R   0.780694 0.297776 0.734709 -0.126277
C70   C     C_R   0.274078 0.689511 0.252928 -0.154532
C71   C     C_R   0.250414 0.435565 0.026405 -0.131045
C72   C     C_R   0.701673 0.494492 0.913993 -0.147831
C73   C     C_R   0.110095 0.602955 0.824870 -0.129864
C74   C     C_R   0.887961 0.464639 0.185904 -0.143647
C75   C     C_R   0.911668 0.203735 0.000333 -0.146005
C76   C     C_R   0.080604 0.807105 0.052064 -0.132418
C77   C     C_R   0.993453 0.196382 0.056251 0.063238
C78   C     C_R   0.634052 0.422940 0.930946 0.072352
C79   C     C_R   0.989957 0.820464 0.040584 0.048121
C80   C     C_3   0.699199 0.394638 0.262718 -0.970494
C81   C     C_3   0.253743 0.581793 0.708012 -0.949776
C82   C     C_R   0.889348 0.925091 0.042727 -0.228453
H1    H     H_    0.160274 0.315160 0.134437 0.098435
H2    H     H_    0.488753 0.288205 0.708893 0.113635
H3    H     H_    0.340164 0.184937 0.994020 0.116116
H4    H     H_    0.489209 0.594108 0.817141 0.108280
H5    H     H_    0.363724 0.168654 0.136940 0.108341
H6    H     H_    0.525429 0.623713 0.691883 0.103818
H7    H     H_    0.511964 0.296375 0.978517 0.121730
H8    H     H_    0.338806 0.466099 0.827430 0.129440
H9    H     H_    0.125964 0.674596 0.440054 0.128440
H10   H     H_    0.875171 0.569968 0.609980 0.128062
H11   H     H_    0.216399 0.714037 0.594404 0.130982
H12   H     H_    0.823517 0.701095 0.950467 0.095639
H13   H     H_    0.785270 0.549411 0.458677 0.133759
H14   H     H_    0.858581 0.495746 0.700012 0.088729
H15   H     H_    0.140964 0.599588 0.317257 0.095013
H16   H     H_    0.536714 0.896181 0.858434 0.102793
H17   H     H_    0.195051 0.902810 0.359087 0.113228
H18   H     H_    0.729425 0.184630 0.556344 0.118989
H19   H     H_    0.456694 0.763464 0.395764 0.115526
H20   H     H_    0.698059 0.989386 0.697736 0.116149
H21   H     H_    0.464849 0.966673 0.261730 0.122057
H22   H     H_    0.624628 0.107945 0.393324 0.128257
H23   H     H_    0.706421 0.889371 0.892944 0.109121
H24   H     H_    0.582349 0.832467 0.551300 0.122715
H25   H     H_    0.517154 0.033723 0.972962 0.097924
H26   H     H_    0.378915 0.036693 0.421020 0.114106
H27   H     H_    0.667690 0.163900 0.123507 0.113518
H28   H     H_    0.423159 0.163416 0.356652 0.103337
H29   H     H_    0.837991 0.157836 0.160160 0.117827
H30   H     H_    0.285481 0.156924 0.231646 0.104611
H31   H     H_    0.764453 0.137118 0.829964 0.096478
H32   H     H_    0.309722 0.837075 0.147995 0.085321
H33   H     H_    0.283545 0.573631 0.911139 0.103649
H34   H     H_    0.055627 0.895444 0.234502 0.117390
H35   H     H_    0.670725 0.333969 0.007032 0.090954
H36   H     H_    0.775365 0.323951 0.682110 0.093300
H37   H     H_    0.297318 0.653134 0.295399 0.089812
H38   H     H_    0.248379 0.375320 0.048430 0.125214
H39   H     H_    0.681404 0.524229 0.865056 0.116118
H40   H     H_    0.189566 0.664201 0.856707 0.121965
H41   H     H_    0.804945 0.435894 0.163561 0.148147
H42   H     H_    0.829292 0.154987 0.973636 0.119329
H43   H     H_    0.160755 0.867115 0.093231 0.112308
H44   H     H_    0.816168 0.853302 0.006650 0.122118
H45   H     H_    0.442594 0.330067 0.287093 0.097218
H46   H     H_    0.146744 0.186329 0.181903 0.121129
H47   H     H_    0.721096 0.548381 0.293311 0.175316
H48   H     H_    0.632656 0.358557 0.194277 0.264604
H49   H     H_    0.667407 0.388367 0.313824 0.254064
H50   H     H_    0.745911 0.349318 0.257671 0.253917
H51   H     H_    0.298373 0.742524 0.753287 0.158688
H52   H     H_    0.323488 0.595759 0.765006 0.239215
H53   H     H_    0.268850 0.567841 0.645470 0.259076
H54   H     H_    0.186091 0.509985 0.694222 0.266583
H55   H     H_    0.545265 0.487590 0.576189 0.094141
H56   H     H_    0.503812 0.508447 0.292888 0.104812
H57   H     H_    0.527296 0.320363 0.585318 0.104632
H58   H     H_    0.487595 0.526332 0.150263 0.117987
N1    N     N_R   0.055660 0.348550 0.045620 -0.040423
N2    N     N_R   0.185200 0.638170 0.176300 -0.038307
N3    N     N_R   0.201680 0.494570 0.045620 -0.040814
N4    N     N_R   0.798320 0.505430 0.954380 -0.041073
N5    N     N_R   0.068420 0.560530 0.871650 -0.043589
N6    N     N_R   0.931580 0.439470 0.128350 -0.044183
N7    N     N_R   0.948070 0.295860 0.997670 -0.039329
N8    N     N_R   0.051930 0.704140 0.002330 -0.043594
N9    N     N_2   0.763070 0.504868 0.288696 -0.119781
N10   N     N_2   0.233978 0.673820 0.734788 -0.126892
N11   N     N_R   0.944340 0.651450 0.954380 -0.040433
N12   N     N_R   0.960830 0.507850 0.823700 -0.038360
N13   N     N_R   0.039170 0.492150 0.176300 -0.040436
N14   N     N_R   0.811290 0.303410 0.871650 -0.039225
N15   N     N_R   0.188710 0.696590 0.128350 -0.040471
N16   N     N_R   0.205200 0.552990 0.997670 -0.040434
N17   N     N_R   0.794800 0.447010 0.002330 -0.042089
N18   N     N_R   0.814800 0.361830 0.823700 -0.038595
Ni1   Ni    Ni4+2 0.119340 0.493420 0.109960 0.210933
Ni2   Ni    Ni4+2 0.880660 0.506580 0.890040 0.213694
Ni3   Ni    Ni4+2 0.872590 0.372590 0.000000 0.212980
Ni4   Ni    Ni4+2 0.127410 0.627410 0.000000 0.207554

loop_
_geom_bond_atom_site_label_1
_geom_bond_atom_site_label_2
_ccdc_geom_bond_type
N18   Ni2   S    
N12   Ni2   S    
C6    C82   A    
C72   H39   S    
C27   C29   A    
C1    C77   A    
C14   C18   A    
N14   Ni3   S    
C10   H26   S    
N8    N11   A    
C41   H32   S    
C26   H55   S    
C17   N13   A    
C81   H52   S    
C15   C19   A    
C71   H38   S    
C80   H50   S    
C13   H57   S    
C39   C47   A    
C19   C21   A    
C11   H56   S    
C24   C26   A    
C38   C42   A    
C11   C14   A    
C57   C59   A    
N5    Ni4   S    
C11   C25   A    
C81   N10   S    
C12   C79   A    
C69   H36   S    
C37   C42   A    
C49   C57   A    
C60   C62   A    
C33   H16   S    
C63   H30   S    
C61   C63   A    
C82   H44   S    
C72   C78   A    
C60   H27   S    
C63   C68   A    
N1    Ni1   S    
C29   C78   S    
C40   H31   S    
C22   C25   A    
C7    H23   S    
C36   C46   A    
C10   C35   A    
N2    N15   A    
N4    Ni2   S    
N2    Ni1   S    
C67   C71   A    
C30   C67   S    
C43   N9    S    
C44   C47   A    
C74   H41   S    
C19   C31   S    
C64   H33   S    
C54   H20   S    
C9    C33   A    
C76   H43   S    
C7    C33   A    
C12   N11   A    
C40   N14   A    
C80   N9    S    
C23   C73   A    
C5    C68   S    
C35   H17   S    
C61   H28   S    
C52   C54   A    
C81   H53   S    
N15   Ni4   S    
C40   C45   A    
N6    Ni3   S    
C46   C48   A    
C16   H14   S    
C50   C53   A    
C80   H48   S    
C62   C66   A    
C45   C69   A    
C75   H42   S    
C64   C67   A    
C4    C6    A    
N7    Ni3   S    
C8    H34   S    
C39   C43   A    
C46   H9    S    
C75   N7    A    
C58   C59   A    
C23   C37   S    
C57   H18   S    
C50   C56   S    
C73   N5    A    
C51   C53   A    
C8    C35   A    
N13   Ni1   S    
C2    C4    A    
C41   C56   A    
H47   N9    S    
C24   H6    S    
C47   C48   A    
C45   C49   S    
C70   H37   S    
C20   H3    S    
C3    C82   A    
C69   N18   A    
C16   N12   A    
C22   H5    S    
C62   H29   S    
C75   C77   A    
C39   H13   S    
C3    C79   S    
C52   C58   A    
C34   C74   A    
C65   N17   A    
C14   H58   S    
C8    C68   A    
C16   C23   A    
C56   C70   A    
C13   C15   A    
C13   C26   A    
C21   C24   A    
C10   C61   A    
C18   C32   S    
C17   C34   A    
N17   Ni3   S    
C81   H54   S    
C71   N3    A    
C72   N4    A    
C64   N16   A    
C21   H4    S    
C65   C78   A    
C27   C32   A    
C38   C48   A    
C74   N6    A    
C28   C31   A    
H51   N10   S    
C20   C22   A    
C3    C5    A    
C44   H10   S    
C70   N2    A    
N3    Ni1   S    
C15   H2    S    
C1    H1    S    
C55   H19   S    
C50   C55   A    
C9    C60   A    
N8    Ni4   S    
N11   Ni2   S    
C37   C44   A    
C28   C30   A    
C51   H22   S    
C4    C77   S    
C29   C31   A    
C7    C66   A    
C30   C32   A    
C12   H12   S    
N3    N16   A    
N6    N13   A    
C53   H21   S    
C38   H11   S    
C34   C36   S    
C27   H7    S    
C18   C20   A    
C25   H45   S    
C42   N10   S    
N5    N12   A    
C1    N1    A    
N1    N7    A    
C52   H24   S    
C2    C5    A    
C6    C66   S    
C76   C79   A    
C51   C59   A    
C76   N8    A    
C73   H40   S    
C55   C58   A    
C80   H49   S    
N14   N18   A    
C65   H35   S    
C9    H25   S    
C36   C43   A    
C28   H8    S    
N4    N17   A    
C17   H15   S    
N16   Ni4   S    
C49   C54   A    
C41   N15   A    
C2    H46   S    
