data_str_m3_o14_o29_f0_pcu.sym.274
_audit_creation_date              2012-12-10T17:54:25-0500
_audit_creation_method            fapswitch 2.2
_symmetry_space_group_name_H-M    P1
_symmetry_Int_Tables_number       1
_space_group_crystal_system       triclinic
_cell_length_a                    26.46892
_cell_length_b                    10.62546
_cell_length_c                    9.974059
_cell_angle_alpha                 88.94375
_cell_angle_beta                  89.919559
_cell_angle_gamma                 90.860633
_cell_volume                      2804.35172994

loop_
_atom_site_label
_atom_site_type_symbol
_atom_type_description
_atom_site_fract_x
_atom_site_fract_y
_atom_site_fract_z
_atom_type_partial_charge
C1    C     C_R   0.501947 0.260877 0.501043 0.838965
C2    C     C_R   0.972576 0.726047 0.272477 0.041756
C3    C     C_R   0.972732 0.841216 0.482439 -0.115678
C4    C     C_R   0.405330 0.501241 0.500465 0.861842
C5    C     C_R   0.946112 0.780862 0.379602 0.056006
C6    C     C_R   0.944317 0.675143 0.166586 -0.271345
C7    C     C_R   0.891725 0.664512 0.172101 0.403458
C8    C     C_R   0.866156 0.700206 0.290994 -0.101564
C9    C     C_R   0.893135 0.769146 0.389060 -0.120950
C10   C     C_R   0.868056 0.818117 0.502530 -0.181568
C11   C     C_R   0.818545 0.772085 0.528952 0.752596
C12   C     C_R   0.292768 0.706705 0.474016 0.454169
C13   C     C_R   0.815884 0.664323 0.320728 0.626045
C14   C     C_R   0.737021 0.523633 0.514792 0.434447
C15   C     C_R   0.687800 0.473942 0.526200 -0.211940
C16   C     C_R   0.502497 0.739204 0.499258 0.858849
C17   C     C_R   0.654268 0.677075 0.463714 -0.207925
C18   C     C_R   0.702553 0.727344 0.445649 0.362260
C19   C     C_R   0.744488 0.649975 0.469583 0.011862
C20   C     C_R   0.026177 0.719188 0.278297 0.078715
C21   C     C_R   0.050888 0.752089 0.399023 0.094075
C22   C     C_R   0.024072 0.811676 0.502138 0.106728
C23   C     C_R   0.253122 0.616597 0.480571 0.173804
C24   C     C_R   0.055713 0.672072 0.172662 -0.188774
C25   C     C_R   0.097812 0.795432 0.647201 -0.117351
C26   C     C_R   0.946744 0.927812 0.562167 0.271666
C27   C     C_R   0.893907 0.909574 0.582957 0.330852
C28   C     C_R   0.594830 0.502804 0.500030 0.902353
C29   C     C_R   0.047855 0.829542 0.626868 -0.118591
C30   C     C_R   0.579736 0.131551 0.656226 -0.252955
C31   C     C_R   0.614799 0.066001 0.734345 0.491181
C32   C     C_R   0.614603 0.934991 0.733886 -0.124796
C33   C     C_R   0.579450 0.869593 0.657078 -0.252765
C34   C     C_R   0.102253 0.721740 0.418529 -0.053265
C35   C     C_R   0.543023 0.934352 0.579446 0.109560
C36   C     C_R   0.542853 0.066290 0.580207 0.040700
C37   C     C_R   0.506041 0.128564 0.502165 -0.063074
C38   C     C_R   0.472397 0.064403 0.419864 -0.161297
C39   C     C_R   0.473141 0.936268 0.417349 -0.149638
C40   C     C_R   0.180282 0.634532 0.337107 0.588952
C41   C     C_R   0.507113 0.871802 0.498263 -0.063537
C42   C     C_R   0.410830 0.434565 0.125048 0.434218
C43   C     C_R   0.381132 0.335777 0.075125 -0.194705
C44   C     C_R   0.390586 0.292660 0.946192 -0.211030
C45   C     C_R   0.129953 0.667777 0.314333 -0.033311
C46   C     C_R   0.429407 0.348768 0.869804 -0.099848
C47   C     C_R   0.463597 0.433144 0.929964 0.152202
C48   C     C_R   0.459514 0.450409 0.070864 -0.064400
C49   C     C_R   0.538238 0.556309 0.065933 0.456983
C50   C     C_R   0.536436 0.559102 0.924025 -0.126332
C51   C     C_R   0.175553 0.704549 0.562860 0.590942
C52   C     C_R   0.263826 0.488531 0.500505 -0.096568
C53   C     C_R   0.313705 0.449112 0.510409 -0.194556
C54   C     C_R   0.342443 0.666399 0.486949 -0.167815
C55   C     C_R   0.106770 0.647470 0.190498 -0.095270
C56   C     C_R   0.125462 0.741874 0.543587 -0.031573
C57   C     C_R   0.352889 0.538167 0.501287 -0.035914
C58   C     C_R   0.646664 0.550337 0.498033 -0.129924
H1    H     H_    0.114453 0.809830 0.744993 0.200010
H2    H     H_    0.821609 0.953507 0.890442 0.415053
H3    H     H_    0.745736 0.859433 0.201464 0.377104
H4    H     H_    0.027293 0.865050 0.711532 0.191328
H5    H     H_    0.444685 0.113798 0.359468 0.167738
H6    H     H_    0.582092 0.233026 0.654753 0.199734
H7    H     H_    0.682188 0.340029 0.864709 0.421018
H8    H     H_    0.343299 0.909908 0.307295 0.376901
H9    H     H_    0.642038 0.883239 0.792440 0.210246
H10   H     H_    0.649713 0.764715 0.054059 0.411995
H11   H     H_    0.434866 0.719109 0.144763 0.357273
H12   H     H_    0.581875 0.768320 0.658595 0.171216
H13   H     H_    0.345522 0.310420 0.122698 0.197271
H14   H     H_    0.365071 0.225016 0.901248 0.193704
H15   H     H_    0.432605 0.322650 0.766932 0.194929
H16   H     H_    0.127686 0.609176 0.107582 0.202441
H17   H     H_    0.798230 0.292606 0.719857 0.432567
H18   H     H_    0.906862 0.703709 0.876113 0.368145
H19   H     H_    0.962478 0.637501 0.079975 0.181773
H20   H     H_    0.040540 0.652680 0.074916 0.153458
H21   H     H_    0.321751 0.349851 0.521972 0.162662
H22   H     H_    0.445862 0.887038 0.355724 0.187150
H23   H     H_    0.565484 0.606524 0.865145 0.209596
H24   H     H_    0.681527 0.376046 0.554388 0.227425
H25   H     H_    0.373379 0.734262 0.481244 0.168135
H26   H     H_    0.233371 0.419382 0.504894 0.174059
H27   H     H_    0.005677 0.169256 0.771270 0.400290
H28   H     H_    0.622094 0.736673 0.448191 0.198617
N1    N     N_R   0.201846 0.653003 0.459889 -0.350138
N2    N     N_R   0.794378 0.696972 0.439187 -0.341611
N3    N     N_R   0.499540 0.498800 0.142780 -0.179371
N4    N     N_R   0.499520 0.498720 0.857170 -0.142055
O1    O     O_R   0.500000 0.316780 0.614690 -0.645546
O2    O     O_R   0.571250 0.499990 0.614680 -0.622397
O3    O     O_R   0.571240 0.499970 0.385350 -0.521758
O4    O     O_2   0.207520 0.583958 0.237655 -0.480289
O5    O     O_2   0.027246 0.084890 0.520203 -0.276344
O6    O     O_2   0.945304 0.181144 0.550307 -0.183814
O7    O     O_3   0.989882 0.084930 0.760700 -0.520727
O8    O     O_2   0.888753 0.111636 0.756372 -0.180308
O9    O     O_2   0.812161 0.045423 0.641959 -0.165304
O10   O     O_3   0.846352 0.906001 0.837485 -0.495296
O11   O     O_2   0.660670 0.930299 0.326956 -0.247358
O12   O     O_2   0.788860 0.592157 0.236633 -0.437973
O13   O     O_2   0.719132 0.966385 0.511627 -0.170405
O14   O     O_3   0.756550 0.906327 0.281685 -0.501668
O15   O     O_2   0.647519 0.115792 0.979786 -0.234265
O16   O     O_2   0.710992 0.103803 0.802036 -0.197572
O17   O     O_3   0.654922 0.303256 0.809158 -0.564861
O18   O     O_2   0.242335 0.885842 0.337191 -0.267509
O19   O     O_2   0.263008 0.925826 0.571487 -0.214328
O20   O     O_3   0.335217 0.944014 0.396452 -0.558381
O21   O     O_2   0.576644 0.724707 0.238703 -0.293493
O22   O     O_2   0.629326 0.543210 0.182419 -0.253686
O23   O     O_2   0.197754 0.718739 0.683468 -0.499928
O24   O     O_3   0.620421 0.724109 0.009612 -0.579001
O25   O     O_2   0.363355 0.620340 0.997214 -0.260839
O26   O     O_2   0.327641 0.550341 0.211052 -0.250649
O27   O     O_3   0.409604 0.689761 0.212171 -0.562400
O28   O     O_2   0.807717 0.367190 0.428648 -0.174990
O29   O     O_2   0.830227 0.499826 0.618466 -0.263099
O30   O     O_3   0.768852 0.309801 0.661283 -0.457404
O31   O     O_2   0.846100 0.470309 0.050981 -0.143351
O32   O     O_2   0.814995 0.680663 0.994166 -0.203347
O33   O     O_3   0.900370 0.612755 0.893052 -0.500065
O34   O     O_2   0.795198 0.794825 0.645688 -0.423712
O35   O     O_R   0.500000 0.316750 0.385360 -0.609934
O36   O     O_R   0.428760 0.500030 0.614650 -0.615088
O37   O     O_R   0.428750 0.500010 0.385320 -0.571278
O38   O     O_R   0.500000 0.683250 0.614640 -0.622526
O39   O     O_R   0.500000 0.683220 0.385310 -0.551662
S1    S     S_3+6 0.978076 0.074125 0.595572 0.088609
S2    S     S_3+6 0.860296 0.999683 0.704454 0.151081
S3    S     S_3+6 0.708770 0.886711 0.391693 0.095737
S4    S     S_3+6 0.658671 0.146791 0.835024 0.082490
S5    S     S_3+6 0.281637 0.868654 0.444329 0.075895
S6    S     S_3+6 0.591731 0.636869 0.130854 0.058878
S7    S     S_3+6 0.376200 0.575443 0.136737 0.053071
S8    S     S_3+6 0.788320 0.425064 0.554640 0.125308
S9    S     S_3+6 0.861283 0.605636 0.026351 0.144117
Zn1   Zn    Zn3+2 0.500000 0.500020 0.653130 0.966963
Zn2   Zn    Zn3+2 0.500000 0.499980 0.346870 1.054813

loop_
_geom_bond_atom_site_label_1
_geom_bond_atom_site_label_2
_ccdc_geom_bond_type
C10   C27   A    
C34   C56   A    
C8    C13   A    
C22   C29   A    
C30   H6    S    
C27   S2    S    
C18   S3    S    
C11   O34   S    
C25   C56   A    
C31   S4    S    
N4    Zn1   S    
O10   S2    S    
C7    C8    A    
C39   C41   A    
C24   C55   A    
O18   S5    D    
O33   S9    S    
C26   C27   A    
C51   O23   S    
C40   N1    A    
O6    S1    D    
C36   C37   A    
C53   H21   S    
O38   Zn1   S    
C1    O35   A    
O7    S1    S    
C18   C19   A    
C30   C31   A    
O25   S7    D    
C42   S7    S    
C51   C56   A    
C52   H26   S    
C29   H4    S    
C55   H16   S    
C50   N4    A    
O16   S4    D    
C20   C24   A    
C8    C9    A    
C4    C57   S    
O5    S1    D    
O24   S6    S    
C40   O4    S    
O28   S8    D    
C9    C10   A    
C26   S1    S    
C1    C37   S    
C17   C58   A    
C49   S6    S    
C1    O1    A    
C23   N1    S    
C21   C22   A    
C2    C6    A    
C54   H25   S    
C44   C46   A    
C15   H24   S    
C3    C26   A    
O35   Zn2   S    
C25   C29   A    
C40   C45   A    
O36   Zn1   S    
C2    C20   A    
C17   H28   S    
O29   S8    D    
H3    O14   S    
O32   S9    D    
C19   N2    S    
C51   N1    A    
C53   C57   A    
C6    H19   S    
C21   C34   A    
C3    C5    A    
O9    S2    D    
C28   O3    A    
C35   C36   A    
O31   S9    D    
O8    S2    D    
C43   C44   A    
C5    C9    A    
C37   C38   A    
C47   C48   A    
C12   C23   A    
C14   S8    S    
C11   N2    A    
N3    Zn2   S    
C17   C18   A    
C28   O2    A    
C34   C45   A    
C42   C48   A    
H8    O20   S    
C16   O39   A    
C16   O38   A    
C33   H12   S    
C32   H9    S    
O1    Zn1   S    
C24   H20   S    
C28   C58   S    
C48   N3    A    
C15   C58   A    
O20   S5    S    
C2    C5    A    
C42   C43   A    
O22   S6    D    
C52   C53   A    
O15   S4    D    
C38   H5    S    
O13   S3    D    
C46   C47   A    
C43   H13   S    
C4    O37   A    
O19   S5    D    
H18   O33   S    
C14   C19   A    
C31   C32   A    
H17   O30   S    
C49   N3    A    
H2    O10   S    
C7    S9    S    
C6    C7    A    
O26   S7    D    
C4    O36   A    
C30   C36   A    
C32   C33   A    
O17   S4    S    
O3    Zn2   S    
C39   H22   S    
O27   S7    S    
O21   S6    D    
C23   C52   A    
C38   C39   A    
O39   Zn2   S    
C13   N2    A    
H11   O27   S    
C33   C35   A    
C44   H14   S    
C35   C41   A    
C47   N4    A    
H27   O7    S    
C10   C11   A    
O11   S3    D    
C20   C21   A    
C45   C55   A    
C49   C50   A    
O14   S3    S    
C14   C15   A    
O37   Zn2   S    
C3    C22   A    
C12   S5    S    
O30   S8    S    
C25   H1    S    
C13   O12   S    
O2    Zn1   S    
C16   C41   S    
H7    O17   S    
C46   H15   S    
C12   C54   A    
C50   H23   S    
H10   O24   S    
C54   C57   A    
