data_str_m9_o16_o19_f0_sra.sym.79
_audit_creation_date              2012-12-11T15:09:45-0500
_audit_creation_method            fapswitch 2.2
_symmetry_space_group_name_H-M    P1
_symmetry_Int_Tables_number       1
_space_group_crystal_system       triclinic
_cell_length_a                    20.880142
_cell_length_b                    7.129713
_cell_length_c                    14.022573
_cell_angle_alpha                 89.832129
_cell_angle_beta                  98.084293
_cell_angle_gamma                 90.126839
_cell_volume                      2066.77463374

loop_
_atom_site_label
_atom_site_type_symbol
_atom_type_description
_atom_site_fract_x
_atom_site_fract_y
_atom_site_fract_z
_atom_type_partial_charge
O1    O     O_R   0.447130 0.507140 0.597350 -0.537080
O2    O     O_R   0.552870 0.007140 0.402650 -0.537188
O3    O     O_R   0.578910 0.181280 0.586990 -0.537721
O4    O     O_R   0.421090 0.681280 0.413010 -0.538274
C1    C     C_R   0.604701 0.344537 0.606821 0.725180
C2    C     C_R   0.395299 0.844474 0.393197 0.724575
O5    O     O_R   0.449230 0.177860 0.608640 -0.538762
O6    O     O_R   0.550770 0.677860 0.391360 -0.538613
O7    O     O_R   0.422260 0.000770 0.424450 -0.541719
O8    O     O_R   0.577740 0.500770 0.575550 -0.542053
C3    C     C_R   0.432738 0.345986 0.634455 0.688924
C4    C     C_R   0.567189 0.846651 0.365472 0.688540
O9    O     O_3   0.491310 0.336980 0.439550 -0.377151
O10   O     O_3   0.508690 0.836980 0.560450 -0.376768
V1    V     V_3+5 0.501610 0.064760 0.511210 1.401998
V2    V     V_3+5 0.498390 0.564760 0.488790 1.400720
C5    C     C_R   0.620129 0.875417 0.121928 -0.168191
C6    C     C_R   0.379657 0.366604 0.877923 -0.167832
H1    H     H_    0.528782 0.885789 0.174921 0.099349
H2    H     H_    0.470994 0.381474 0.825060 0.099442
H3    H     H_    0.596791 0.892497 0.048588 0.129277
H4    H     H_    0.403004 0.382500 0.951282 0.129509
C7    C     C_R   0.608181 0.856194 0.289772 -0.022494
C8    C     C_R   0.391666 0.353265 0.710049 -0.022392
C9    C     C_R   0.922492 0.857154 0.310441 -0.002380
C10   C     C_R   0.077692 0.376171 0.689768 -0.003426
C11   C     C_R   0.883934 0.863912 0.383806 -0.147996
C12   C     C_R   0.116058 0.373557 0.616200 -0.154084
C13   C     C_R   0.816893 0.865298 0.362781 -0.181257
C14   C     C_R   0.182976 0.361083 0.636923 -0.183841
C15   C     C_R   0.785469 0.856002 0.266589 0.081905
C16   C     C_R   0.214357 0.349004 0.733100 0.082877
C17   C     C_R   0.824451 0.852523 0.191290 0.039039
C18   C     C_R   0.175374 0.346880 0.808449 0.038543
C19   C     C_R   0.716678 0.853919 0.242969 0.064532
C20   C     C_R   0.283152 0.345442 0.756747 0.064397
C21   C     C_R   0.687932 0.856137 0.144425 0.091175
C22   C     C_R   0.311866 0.346274 0.855320 0.091351
C23   C     C_R   0.727399 0.841130 0.070710 -0.022476
C24   C     C_R   0.272336 0.330327 0.928972 -0.022547
C25   C     C_R   0.794592 0.842041 0.095028 -0.231202
C26   C     C_R   0.205157 0.332354 0.904634 -0.232372
C27   C     C_R   0.675171 0.848342 0.314409 -0.204919
C28   C     C_R   0.324705 0.343212 0.685338 -0.205130
C29   C     C_R   0.580756 0.874435 0.193979 -0.174761
C30   C     C_R   0.419039 0.369161 0.805917 -0.174882
C31   C     C_R   0.892957 0.856690 0.213483 -0.112924
C32   C     C_R   0.107026 0.361359 0.786481 -0.111267
H5    H     H_    0.693000 0.834899 0.390009 0.090062
H6    H     H_    0.306951 0.331672 0.609668 0.090076
H7    H     H_    0.791330 0.874178 0.424106 0.107934
H8    H     H_    0.208520 0.365668 0.575454 0.109472
H9    H     H_    0.906055 0.865806 0.458531 0.122662
H10   H     H_    0.093955 0.385967 0.541719 0.127084
H11   H     H_    0.823617 0.830220 0.037134 0.126596
H12   H     H_    0.176102 0.321576 0.962583 0.126873
C33   C     C_1   0.166512 0.858334 0.168496 -0.181534
C34   C     C_1   0.833663 0.358086 0.831052 -0.181718
C35   C     C_1   0.218722 0.857245 0.220159 0.002261
C36   C     C_1   0.781459 0.357115 0.779379 0.001136
C37   C     C_1   0.280182 0.855738 0.280906 -0.006882
C38   C     C_1   0.719925 0.355886 0.718820 -0.007646
C39   C     C_1   0.332586 0.851698 0.332070 -0.220467
C40   C     C_1   0.667456 0.351893 0.667829 -0.220544
O11   O     O_R   0.922300 0.202240 0.924350 -0.535509
O12   O     O_R   0.077700 0.702240 0.075650 -0.535763
O13   O     O_R   0.050780 0.535130 0.891350 -0.543726
O14   O     O_R   0.949220 0.035130 0.108650 -0.538426
C41   C     C_R   0.066581 0.368280 0.864211 0.698578
C42   C     C_R   0.933470 0.867294 0.135840 0.697526
O15   O     O_R   0.921100 0.531560 0.912990 -0.536000
O16   O     O_R   0.078900 0.031560 0.087010 -0.536596
O17   O     O_R   0.947120 0.708470 0.097370 -0.542754
O18   O     O_R   0.052880 0.208470 0.902630 -0.538279
C43   C     C_R   0.895949 0.363665 0.893280 0.730045
C44   C     C_R   0.104129 0.863749 0.106500 0.729432
O19   O     O_3   0.008710 0.375800 0.060400 -0.377319
O20   O     O_3   0.991290 0.875800 0.939600 -0.376416
V3    V     V_3+5 0.998380 0.648080 0.988790 1.412710
V4    V     V_3+5 0.001620 0.148080 0.011210 1.422473
C45   C     C_R   0.700301 0.814643 0.967582 0.094553
C46   C     C_R   0.722004 0.926567 0.895808 -0.123961
C47   C     C_R   0.696940 0.900175 0.799026 -0.122911
C48   C     C_R   0.648954 0.766237 0.773183 -0.082306
C49   C     C_R   0.628129 0.651058 0.843474 -0.109486
C50   C     C_R   0.654651 0.672191 0.940023 -0.143990
H13   H     H_    0.758190 0.034180 0.914777 0.114605
H14   H     H_    0.714681 0.982925 0.743707 0.121423
H15   H     H_    0.628782 0.750126 0.698387 0.132124
H16   H     H_    0.591923 0.544213 0.823022 0.099822
H17   H     H_    0.638979 0.579193 0.993450 0.117102
C51   C     C_R   0.299411 0.306170 0.032292 0.095159
C52   C     C_R   0.278224 0.420970 0.102961 -0.124354
C53   C     C_R   0.303892 0.398487 0.199816 -0.123405
C54   C     C_R   0.351956 0.265602 0.226755 -0.081662
C55   C     C_R   0.372248 0.147595 0.157605 -0.109431
C56   C     C_R   0.345095 0.164756 0.061075 -0.144460
H18   H     H_    0.242116 0.528190 0.083074 0.113989
H19   H     H_    0.286631 0.483686 0.254307 0.120697
H20   H     H_    0.372624 0.252548 0.301541 0.132801
H21   H     H_    0.408564 0.041726 0.178943 0.099308
H22   H     H_    0.360482 0.070007 0.008524 0.116776
C57   C     C_R   0.993410 0.842481 0.337981 0.070926
C58   C     C_R   0.027817 0.985276 0.391995 -0.143339
C59   C     C_R   0.093940 0.964483 0.424102 -0.116853
C60   C     C_R   0.125892 0.800543 0.403576 -0.084929
C61   C     C_R   0.091960 0.657819 0.350007 -0.138687
C62   C     C_R   0.025958 0.678517 0.317171 -0.119505
H23   H     H_    0.003366 0.111772 0.409630 0.112989
H24   H     H_    0.120365 0.074718 0.465510 0.110442
H25   H     H_    0.176957 0.784134 0.429114 0.110271
H26   H     H_    0.116741 0.530743 0.334343 0.110805
H27   H     H_    0.999958 0.565225 0.277444 0.121705
C63   C     C_R   0.007094 0.398853 0.662805 0.067288
C64   C     C_R   0.969867 0.251915 0.617125 -0.149869
C65   C     C_R   0.903833 0.277565 0.585985 -0.119957
C66   C     C_R   0.874819 0.450231 0.599433 -0.082896
C67   C     C_R   0.911635 0.597031 0.644840 -0.133680
C68   C     C_R   0.977624 0.571786 0.676350 -0.104848
H28   H     H_    0.992059 0.118388 0.605165 0.111569
H29   H     H_    0.875223 0.164083 0.550880 0.106583
H30   H     H_    0.823800 0.470241 0.574759 0.110844
H31   H     H_    0.889140 0.730789 0.654990 0.106326
H32   H     H_    0.005926 0.687632 0.709784 0.117456

loop_
_geom_bond_atom_site_label_1
_geom_bond_atom_site_label_2
_ccdc_geom_bond_type
O14   V4    S    
O15   C43   A    
C59   H24   S    
C52   C53   A    
C7    C29   A    
C11   C13   A    
C61   H26   S    
C54   C55   A    
O1    C3    A    
C32   C41   S    
O16   C44   A    
O2    C4    A    
C2    O7    A    
O15   V3    S    
C63   C64   A    
C23   C25   A    
C49   C50   A    
O5    C3    A    
O12   V3    S    
C4    C7    S    
C16   C20   A    
C33   C44   S    
C19   C21   A    
C5    C29   A    
C50   H17   S    
C58   H23   S    
O20   V4    S    
C33   C35   T    
C54   H20   S    
C60   C61   A    
C34   C36   T    
C64   C65   A    
C3    C8    S    
C7    C27   A    
C65   C66   A    
C36   C38   S    
C37   C39   T    
C67   C68   A    
C25   H11   S    
C38   C40   T    
C26   H12   S    
C18   C26   A    
C34   C43   S    
C61   C62   A    
C15   C17   A    
C57   C62   A    
C19   C27   A    
C9    C31   A    
C56   H22   S    
C10   C32   A    
C24   C26   A    
C47   H14   S    
O6    V2    S    
O11   V4    S    
O18   V4    S    
C55   H21   S    
C13   C15   A    
C6    C30   A    
C58   C59   A    
C51   C56   A    
C45   C46   A    
C60   H25   S    
O19   V3    S    
C35   C37   S    
C65   H29   S    
O13   V3    S    
C48   C49   A    
C23   C45   S    
O4    C2    A    
C12   H10   S    
O20   V3    S    
C27   H5    S    
O5    V1    S    
C68   H32   S    
C5    H3    S    
C1    C40   S    
O13   C41   A    
C16   C18   A    
C2    C39   S    
O4    V2    S    
C66   H30   S    
C10   C63   S    
C31   C42   S    
C47   C48   A    
O6    C4    A    
O12   C44   A    
C55   C56   A    
C42   O17   A    
C11   H9    S    
O17   V3    S    
C41   O18   A    
O1    V2    S    
C5    C21   A    
C24   C51   S    
O2    V1    S    
O14   C42   A    
C64   H28   S    
C17   C31   A    
C15   C19   A    
C20   C28   A    
C18   C32   A    
C48   H15   S    
O3    V1    S    
C13   H7    S    
O19   V4    S    
C28   H6    S    
C14   H8    S    
C6    H4    S    
C9    C57   S    
C45   C50   A    
O3    C1    A    
C49   H16   S    
H1    C29   S    
C9    C11   A    
C62   H27   S    
C59   C60   A    
C10   C12   A    
O11   C43   A    
C8    C30   A    
C20   C22   A    
C6    C22   A    
C17   C25   A    
C1    O8    A    
C21   C23   A    
O8    V2    S    
C66   C67   A    
C14   C16   A    
C63   C68   A    
C22   C24   A    
C53   H19   S    
C8    C28   A    
C12   C14   A    
C51   C52   A    
C67   H31   S    
O7    V1    S    
C53   C54   A    
O16   V4    S    
C46   C47   A    
O9    V2    S    
C57   C58   A    
O10   V1    S    
C52   H18   S    
H2    C30   S    
C46   H13   S    
