data_str_m12_o9_o12_f0_bcu.sym.38
_audit_creation_date              2012-12-11T17:41:36-0500
_audit_creation_method            fapswitch 2.2
_symmetry_space_group_name_H-M    P1
_symmetry_Int_Tables_number       1
_space_group_crystal_system       triclinic
_cell_length_a                    15.686621
_cell_length_b                    15.103118
_cell_length_c                    14.971374
_cell_angle_alpha                 109.734215
_cell_angle_beta                  121.857154
_cell_angle_gamma                 58.430097
_cell_volume                      2557.57349827

loop_
_atom_site_label
_atom_site_type_symbol
_atom_type_description
_atom_site_fract_x
_atom_site_fract_y
_atom_site_fract_z
_atom_type_partial_charge
C1    C     C_R   0.805037 0.934184 0.772312 -0.150737
C2    C     C_R   0.097513 0.332290 0.977808 -0.194002
C3    C     C_R   0.733990 0.862836 0.021312 -0.172206
C4    C     C_R   0.210654 0.298632 0.010108 -0.157934
C5    C     C_R   0.717323 0.966727 0.038535 0.114552
C6    C     C_R   0.281113 0.191820 0.007071 0.119244
C7    C     C_R   0.809601 0.988946 0.087449 -0.174600
C8    C     C_R   0.236918 0.119267 0.969335 -0.193678
C9    C     C_R   0.917366 0.907987 0.119309 -0.189303
C10   C     C_R   0.124905 0.152914 0.940259 -0.197563
C11   C     C_R   0.934043 0.803849 0.102318 0.010483
C12   C     C_R   0.248990 0.003762 0.208100 -0.120349
C13   C     C_R   0.053746 0.259590 0.943796 -0.000765
C14   C     C_R   0.596724 0.074291 0.121863 -0.250548
C15   C     C_R   0.408282 0.151564 0.939519 -0.234336
C16   C     C_R   0.193308 0.267864 0.431497 -0.147991
C17   C     C_R   0.752562 0.710489 0.504296 -0.138105
C18   C     C_R   0.493225 0.108338 0.117793 0.055847
C19   C     C_R   0.509861 0.084629 0.934461 0.061408
C20   C     C_R   0.396295 0.155692 0.026606 0.015225
C21   C     C_R   0.607510 0.050200 0.029711 0.024597
C22   C     C_2   0.015600 0.341664 0.450748 -0.221606
C23   C     C_R   0.131749 0.268604 0.471991 0.147231
C24   C     C_2   0.845322 0.603295 0.381545 -0.215721
C25   C     C_2   0.957123 0.416835 0.385459 -0.099937
C26   C     C_2   0.863403 0.511244 0.396873 -0.100634
C27   C     C_2   0.988025 0.940952 0.836903 -0.196409
C28   C     C_2   0.166632 0.872601 0.100320 -0.207637
C29   C     C_R   0.356097 0.849098 0.787758 -0.112770
C30   C     C_R   0.631680 0.271339 0.281558 -0.108038
C31   C     C_R   0.422498 0.762514 0.743334 -0.128765
C32   C     C_R   0.573657 0.337440 0.341926 -0.144269
C33   C     C_R   0.381246 0.691889 0.666863 0.124713
C34   C     C_R   0.784360 0.701310 0.429769 0.154460
C35   C     C_R   0.630692 0.343994 0.452406 0.133718
C36   C     C_R   0.272566 0.709305 0.637044 -0.157132
C37   C     C_R   0.746094 0.283214 0.501765 -0.183456
C38   C     C_R   0.206614 0.795749 0.682099 -0.097727
C39   C     C_R   0.803278 0.214748 0.441080 -0.117289
C40   C     C_R   0.596964 0.227447 0.549693 -0.145383
C41   C     C_R   0.408941 0.784054 0.513786 -0.170717
C42   C     C_R   0.248247 0.865679 0.757214 -0.098608
C43   C     C_R   0.746210 0.209296 0.330991 -0.094644
C44   C     C_R   0.457470 0.502057 0.608423 -0.254192
C45   C     C_R   0.507439 0.322165 0.532278 -0.008257
C46   C     C_R   0.567296 0.523187 0.524880 -0.226214
C47   C     C_R   0.516074 0.417434 0.555325 0.076897
C48   C     C_R   0.506895 0.608450 0.574784 0.066670
C49   C     C_R   0.573232 0.427346 0.514933 0.018150
C50   C     C_R   0.450364 0.600294 0.617489 0.016560
C51   C     C_2   0.047032 0.878535 0.914377 -0.117769
C52   C     C_2   0.143399 0.890171 0.006603 -0.100186
C53   C     C_R   0.410296 0.050326 0.733685 -0.121997
C54   C     C_R   0.588893 0.015921 0.283385 -0.114560
C55   C     C_R   0.411413 0.307224 0.467472 0.174661
C56   C     C_R   0.501919 0.704110 0.572222 0.013669
C57   C     C_R   0.593079 0.714955 0.595245 0.147848
C58   C     C_R   0.595726 0.979094 0.806231 -0.143404
C59   C     C_R   0.405319 0.091023 0.210745 -0.173658
C60   C     C_R   0.197020 0.182226 0.528498 -0.148960
C61   C     C_R   0.755565 0.801257 0.415629 -0.147935
C62   C     C_R   0.805112 0.025113 0.682560 -0.124228
C63   C     C_R   0.248477 0.912399 0.298857 -0.149436
C64   C     C_R   0.869496 0.968914 0.769641 0.178291
C65   C     C_R   0.221305 0.926161 0.198384 0.146713
C66   C     C_2   0.047558 0.717881 0.139623 0.930012
C67   C     C_R   0.505834 0.041480 0.829281 0.049335
C68   C     C_2   0.934378 0.293912 0.910909 0.965173
C69   C     C_3   0.297599 0.392523 0.413428 -0.477622
C70   C     C_3   0.244448 0.370099 0.293460 -0.262810
C71   C     C_3   0.128283 0.458101 0.245038 -0.843788
C72   C     C_3   0.712144 0.657714 0.673099 -0.473971
C73   C     C_3   0.724478 0.646891 0.777759 -0.271057
C74   C     C_3   0.846446 0.583725 0.848658 -0.819136
C75   C     C_R   0.494620 0.072725 0.199140 0.076246
C76   C     C_R   0.841332 0.782312 0.053060 -0.185104
H1    H     H_    0.833891 0.875559 0.820113 0.095391
H2    H     H_    0.289778 0.036563 0.963728 0.120174
H3    H     H_    0.987382 0.927171 0.159527 0.147853
H4    H     H_    0.094030 0.095391 0.914611 0.142951
H5    H     H_    0.672362 0.047029 0.193074 0.136664
H6    H     H_    0.333880 0.186849 0.869941 0.132450
H7    H     H_    0.822660 0.506907 0.434414 0.126718
H8    H     H_    0.988614 0.418218 0.336953 0.126108
H9    H     H_    0.887275 0.606076 0.344133 0.133846
H10   H     H_    0.983067 0.342115 0.499596 0.134092
H11   H     H_    0.196921 0.932624 0.791713 0.097618
H12   H     H_    0.238655 0.034634 0.145928 0.104508
H13   H     H_    0.790937 0.157930 0.284041 0.106687
H14   H     H_    0.158572 0.308763 0.365515 0.115212
H15   H     H_    0.762037 0.647667 0.531802 0.091445
H16   H     H_    0.388473 0.903213 0.846033 0.111953
H17   H     H_    0.587973 0.269552 0.196399 0.128399
H18   H     H_    0.505988 0.750785 0.769136 0.099363
H19   H     H_    0.485301 0.386477 0.302802 0.110128
H20   H     H_    0.238279 0.656721 0.577926 0.110508
H21   H     H_    0.791725 0.290210 0.586917 0.120990
H22   H     H_    0.122981 0.808750 0.658458 0.112238
H23   H     H_    0.131449 0.829208 0.104023 0.159528
H24   H     H_    0.892180 0.167743 0.479299 0.110088
H25   H     H_    0.414227 0.491738 0.638830 0.137971
H26   H     H_    0.606258 0.532379 0.488475 0.129348
H27   H     H_    0.683943 0.210967 0.592848 0.124000
H28   H     H_    0.323310 0.803285 0.489747 0.128850
H29   H     H_    0.324478 0.091987 0.720428 0.096015
H30   H     H_    0.674289 0.998792 0.310125 0.090427
H31   H     H_    0.682200 0.958726 0.857375 0.127949
H32   H     H_    0.320617 0.147170 0.173901 0.117178
H33   H     H_    0.168487 0.150334 0.556564 0.093591
H34   H     H_    0.023551 0.981849 0.829836 0.135263
H35   H     H_    0.768310 0.822500 0.362999 0.103752
H36   H     H_    0.835639 0.049013 0.648965 0.099260
H37   H     H_    0.238190 0.857904 0.319490 0.156298
H38   H     H_    0.178755 0.932482 0.001073 0.123836
H39   H     H_    0.012619 0.835820 0.920771 0.130186
H40   H     H_    0.209677 0.672138 0.243153 0.320661
H41   H     H_    0.807728 0.253733 0.845394 0.328144
H42   H     H_    0.075221 0.467191 0.278266 0.233227
H43   H     H_    0.133712 0.532793 0.261276 0.277036
H44   H     H_    0.087923 0.440772 0.158810 0.267876
H45   H     H_    0.852245 0.703701 0.044694 0.153309
H46   H     H_    0.296620 0.364317 0.260735 0.201846
H47   H     H_    0.238460 0.295082 0.271660 0.192314
H48   H     H_    0.244393 0.409443 0.449698 0.189506
H49   H     H_    0.303694 0.466554 0.428492 0.200044
H50   H     H_    0.881283 0.507078 0.807183 0.256108
H51   H     H_    0.895816 0.626901 0.872270 0.259391
H52   H     H_    0.853402 0.568857 0.920289 0.273214
H53   H     H_    0.692860 0.725395 0.818153 0.194571
H54   H     H_    0.677027 0.605406 0.764125 0.220748
H55   H     H_    0.749019 0.578618 0.636312 0.186221
H56   H     H_    0.044308 0.415106 0.978862 0.173712
H57   H     H_    0.760188 0.700529 0.691362 0.196226
H58   H     H_    0.663962 0.844793 0.988296 0.121622
H59   H     H_    0.242773 0.355670 0.035181 0.139790
H60   H     H_    0.798235 0.069031 0.105039 0.124141
N1    N     N_R   0.705410 0.966550 0.689210 -0.045855
N2    N     N_R   0.556610 0.796750 0.548620 -0.059498
N3    N     N_R   0.556610 0.951620 0.703500 -0.042891
N4    N     N_R   0.443390 0.048380 0.296500 -0.041432
N5    N     N_R   0.294590 0.131500 0.522480 -0.039142
N6    N     N_R   0.705410 0.868500 0.477520 -0.042511
N7    N     N_R   0.705410 0.023370 0.632390 -0.045397
N8    N     N_R   0.294590 0.976630 0.367610 -0.044116
N9    N     N_R   0.294590 0.033450 0.310790 -0.046667
N10   N     N_R   0.294590 0.188320 0.465660 -0.044400
N11   N     N_R   0.705410 0.811680 0.534340 -0.048703
N12   N     N_R   0.556610 0.157790 0.497330 -0.051376
N13   N     N_R   0.443390 0.842210 0.502670 -0.049622
N14   N     N_R   0.443390 0.997080 0.657540 -0.037857
N15   N     N_R   0.556610 0.002920 0.342460 -0.038791
N16   N     N_R   0.443390 0.203250 0.451380 -0.056831
Ni1   Ni    Ni4+2 0.629830 0.882720 0.617850 0.204807
Ni2   Ni    Ni4+2 0.370170 0.117280 0.382150 0.207039
Ni3   Ni    Ni4+2 0.629830 0.013030 0.487540 0.210982
Ni4   Ni    Ni4+2 0.370170 0.986970 0.512460 0.215457
O1    O     O_2   0.063505 0.629464 0.097008 -0.676697
O2    O     O_R   0.136450 0.737228 0.224638 -0.846024
O3    O     O_2   0.874300 0.385837 0.923835 -0.667817
O4    O     O_R   0.890116 0.220872 0.865142 -0.825753

loop_
_geom_bond_atom_site_label_1
_geom_bond_atom_site_label_2
_ccdc_geom_bond_type
C58   N3    A    
C63   C65   A    
C16   H14   S    
C18   C75   S    
C29   C42   A    
C1    H1    S    
C73   C74   S    
C14   C18   A    
C17   H15   S    
C62   N7    A    
C38   H22   S    
C37   H21   S    
C39   H24   S    
C55   N16   A    
C47   C49   A    
C15   C19   A    
C46   H26   S    
C46   C49   A    
C26   H7    S    
C71   H44   S    
C76   H45   S    
C14   C21   A    
C35   C37   A    
N13   Ni4   S    
C24   C26   D    
C38   C42   A    
C30   H17   S    
C11   C76   A    
C41   N13   A    
N3    Ni1   S    
C61   N6    A    
C33   C36   A    
C56   C57   A    
C16   N10   A    
C58   H31   S    
C9    H3    S    
C2    C13   A    
C36   H20   S    
C62   C64   A    
C60   H33   S    
C70   H47   S    
C74   H52   S    
C27   H34   S    
C22   C25   D    
C35   C49   S    
C25   H8    S    
C2    H56   S    
C63   N8    A    
C31   C33   A    
C19   C67   S    
C70   C71   S    
N12   Ni3   S    
N15   Ni3   S    
N6    Ni3   S    
C68   O3    D    
C24   H9    S    
C11   C66   S    
C62   H36   S    
C48   C50   A    
N1    N7    A    
C69   H49   S    
N14   Ni4   S    
H41   O4    S    
C8    H2    S    
C23   C60   A    
C40   C45   A    
N11   Ni1   S    
C27   C51   D    
C15   H6    S    
C46   C48   A    
C45   C47   S    
N2    N13   A    
C15   C20   A    
C73   H53   S    
C54   H30   S    
C51   C52   S    
C32   C35   A    
C4    C6    A    
C5    C7    A    
C10   H4    S    
N8    N9    A    
C39   C43   A    
C69   H48   S    
C25   C26   S    
C34   C61   A    
C24   C34   S    
C12   N9    A    
N8    Ni4   S    
C2    C4    A    
C41   C56   A    
H40   O2    S    
C53   H29   S    
C60   N5    A    
C70   H46   S    
N7    Ni3   S    
C74   H51   S    
N10   Ni2   S    
C12   H12   S    
N1    Ni1   S    
C43   H13   S    
C3    C76   A    
C9    C11   A    
N4    N15   A    
C55   C69   S    
N5    N10   A    
C4    H59   S    
N9    Ni2   S    
N2    Ni1   S    
C8    C10   A    
N16   Ni2   S    
C16   C23   A    
C53   N14   A    
C30   C43   A    
C17   C34   A    
C61   H35   S    
C1    C64   A    
C59   C75   A    
C66   O2    S    
C1    N1    A    
C28   H23   S    
C72   H55   S    
C44   C50   A    
C48   C56   S    
C73   H54   S    
C40   N12   A    
C71   H42   S    
C17   N11   A    
N6    N11   A    
N12   N16   A    
C72   C73   S    
C3    C5    A    
C10   C13   A    
C6    C8    A    
C44   H25   S    
C44   C47   A    
N5    Ni4   S    
C54   N15   A    
C52   H38   S    
C31   H18   S    
C6    C20   S    
C12   C65   A    
N3    N14   A    
C59   H32   S    
C41   H28   S    
C71   H43   S    
C3    H58   S    
C36   C38   A    
C28   C65   S    
C33   C50   S    
C7    H60   S    
C29   C31   A    
C40   H27   S    
C30   C32   A    
C28   C52   D    
C72   H57   S    
C74   H50   S    
C59   N4    A    
C66   O1    D    
C57   N2    A    
C18   C20   A    
C22   H10   S    
C57   C72   S    
C69   C70   S    
C53   C67   A    
C51   H39   S    
C27   C64   S    
C54   C75   A    
C63   H37   S    
C7    C9    A    
C58   C67   A    
C32   H19   S    
C5    C21   S    
C45   C55   A    
C37   C39   A    
C22   C23   S    
C42   H11   S    
C14   H5    S    
C68   O4    S    
C29   H16   S    
N4    Ni2   S    
C19   C21   A    
C13   C68   S    
