data_str_m3_o1_o10_f0_pcu.sym.184
_audit_creation_date              2012-12-10T18:42:31-0500
_audit_creation_method            fapswitch 2.2
_symmetry_space_group_name_H-M    P1
_symmetry_Int_Tables_number       1
_space_group_crystal_system       triclinic
_cell_length_a                    8.608357
_cell_length_b                    10.714707
_cell_length_c                    9.811262
_cell_angle_alpha                 91.254261
_cell_angle_beta                  98.365663
_cell_angle_gamma                 89.008385
_cell_volume                      895.017086134

loop_
_atom_site_label
_atom_site_type_symbol
_atom_type_description
_atom_site_fract_x
_atom_site_fract_y
_atom_site_fract_z
_atom_type_partial_charge
C1    C     C_R   0.503764 0.259662 0.498834 0.833394
C2    C     C_R   0.492679 0.739733 0.500619 0.885924
C3    C     C_R   0.202505 0.485034 0.465083 0.927662
C4    C     C_R   0.797555 0.483269 0.534971 0.918272
C5    C     C_2   0.042856 0.443409 0.447630 -0.132641
C6    C     C_2   0.961848 0.452665 0.557064 -0.160433
C7    C     C_R   0.587725 0.055137 0.409500 0.159275
C8    C     C_R   0.397555 0.942437 0.583733 0.173755
C9    C     C_R   0.582590 0.927545 0.416392 -0.248676
C10   C     C_R   0.408007 0.070830 0.581603 -0.252286
C11   C     C_R   0.489894 0.871828 0.502159 -0.101714
C12   C     C_R   0.501901 0.126830 0.495990 -0.090015
C13   C     C_R   0.573633 0.592056 0.083537 -0.069127
C14   C     C_R   0.430023 0.406282 0.917096 -0.073392
C15   C     C_R   0.573371 0.592090 0.939440 -0.093964
C16   C     C_R   0.428316 0.407263 0.060802 -0.090676
H1    H     H_    0.651211 0.870889 0.353168 0.156760
H2    H     H_    0.338001 0.127662 0.643372 0.151354
H3    H     H_    0.632852 0.665419 0.147413 0.127775
H4    H     H_    0.375431 0.330545 0.854275 0.117930
H5    H     H_    0.633212 0.664929 0.894018 0.131247
H6    H     H_    0.368413 0.334683 0.106167 0.132190
N1    N     N_R   0.499960 0.499970 0.857200 -0.077823
N2    N     N_R   0.500040 0.500030 0.142800 -0.074663
O1    O     O_R   0.499990 0.316750 0.614620 -0.631482
O2    O     O_R   0.500010 0.683250 0.385380 -0.620878
O3    O     O_R   0.499990 0.316780 0.385290 -0.634457
O4    O     O_R   0.500010 0.683220 0.614710 -0.615979
O5    O     O_R   0.271750 0.499990 0.587840 -0.638555
O6    O     O_R   0.728250 0.500010 0.412160 -0.637065
O7    O     O_R   0.271750 0.500010 0.358510 -0.616944
O8    O     O_R   0.728250 0.499990 0.641490 -0.606858
Zn1   Zn    Zn3+2 0.500000 0.499980 0.653120 0.919674
Zn2   Zn    Zn3+2 0.500000 0.500020 0.346880 0.921453
C17   C     C_3   0.980565 0.386858 0.305589 -0.403784
C18   C     C_3   0.068477 0.263778 0.280744 -0.362183
C19   C     C_3   0.027491 0.215165 0.132794 -0.912081
H7    H     H_    0.899110 0.204161 0.105646 0.272407
H8    H     H_    0.068810 0.280483 0.060131 0.256519
H9    H     H_    0.085793 0.123017 0.121517 0.251474
H10   H     H_    0.197380 0.275756 0.301371 0.245795
H11   H     H_    0.037617 0.192296 0.352363 0.207675
H12   H     H_    0.855467 0.363677 0.291340 0.232337
H13   H     H_    0.995618 0.455118 0.224985 0.223718
C20   C     C_3   0.032035 0.435992 0.708996 -0.357632
C21   C     C_3   0.054632 0.562313 0.788727 -0.276119
C22   C     C_3   0.033634 0.550693 0.939669 -0.912496
H14   H     H_    0.913564 0.518422 0.948129 0.268313
H15   H     H_    0.120883 0.483804 0.991646 0.264253
H16   H     H_    0.051098 0.643004 0.992869 0.247060
H17   H     H_    0.173703 0.598662 0.784841 0.242993
H18   H     H_    0.969135 0.633748 0.742054 0.213918
H19   H     H_    0.950880 0.376707 0.757121 0.200331
H20   H     H_    0.140809 0.378387 0.721295 0.194212
C23   C     C_3   0.680983 0.107731 0.305530 -0.397016
C24   C     C_3   0.584245 0.102829 0.161874 -0.833138
H21   H     H_    0.579159 0.005273 0.120897 0.246345
H22   H     H_    0.462438 0.136806 0.165690 0.259889
H23   H     H_    0.637414 0.161853 0.090172 0.238445
H24   H     H_    0.718991 0.203414 0.333869 0.214367
H25   H     H_    0.791465 0.052712 0.303892 0.190784
C25   C     C_3   0.280709 0.886597 0.666164 -0.412511
C26   C     C_3   0.341874 0.890938 0.820213 -0.843297
H26   H     H_    0.258301 0.843361 0.877282 0.242491
H27   H     H_    0.457883 0.843075 0.841044 0.264605
H28   H     H_    0.353979 0.989185 0.858345 0.247918
H29   H     H_    0.167989 0.940025 0.647283 0.188050
H30   H     H_    0.251172 0.789187 0.633138 0.207323

loop_
_geom_bond_atom_site_label_1
_geom_bond_atom_site_label_2
_ccdc_geom_bond_type
C14   N1    A    
O4    Zn1   S    
C3    O7    A    
C23   C24   S    
C26   H27   S    
C19   H7    S    
C6    C20   S    
C25   H30   S    
C19   H9    S    
C17   H12   S    
C18   H11   S    
C17   C18   S    
C24   H23   S    
C7    C23   S    
O8    Zn1   S    
C15   N1    A    
C26   H28   S    
C20   H19   S    
C16   N2    A    
C4    O8    A    
C23   H24   S    
C1    O1    A    
C17   H13   S    
C9    C11   A    
C3    O5    A    
C18   H10   S    
C25   C26   S    
C1    C12   S    
C10   C12   A    
C25   H29   S    
C10   H2    S    
C8    C11   A    
C2    C11   S    
C5    C17   S    
C9    H1    S    
C18   C19   S    
C24   H22   S    
C20   H20   S    
C22   H16   S    
C7    C9    A    
C13   C15   A    
O3    Zn2   S    
C5    C6    D    
C19   H8    S    
C14   C16   A    
C7    C12   A    
O7    Zn2   S    
C4    C6    S    
C2    O4    A    
O6    Zn2   S    
C26   H26   S    
C21   H18   S    
C15   H5    S    
C24   H21   S    
C14   H4    S    
C22   H15   S    
C23   H25   S    
O1    Zn1   S    
C1    O3    A    
C13   H3    S    
C21   C22   S    
C16   H6    S    
O5    Zn1   S    
N1    Zn1   S    
C20   C21   S    
C21   H17   S    
O2    Zn2   S    
C8    C10   A    
C4    O6    A    
C22   H14   S    
C13   N2    A    
C8    C25   S    
C2    O2    A    
C3    C5    S    
N2    Zn2   S    
