data_str_m9_o11_o16_f0_sra.sym.151
_audit_creation_date              2012-12-11T14:17:31-0500
_audit_creation_method            fapswitch 2.2
_symmetry_space_group_name_H-M    P1
_symmetry_Int_Tables_number       1
_space_group_crystal_system       triclinic
_cell_length_a                    6.945511
_cell_length_b                    13.649378
_cell_length_c                    20.404619
_cell_angle_alpha                 102.052446
_cell_angle_beta                  90.048876
_cell_angle_gamma                 91.014463
_cell_volume                      1891.43961357

loop_
_atom_site_label
_atom_site_type_symbol
_atom_type_description
_atom_site_fract_x
_atom_site_fract_y
_atom_site_fract_z
_atom_type_partial_charge
O1    O     O_R   0.506860 0.599390 0.449240 -0.538383
O2    O     O_R   0.180220 0.594600 0.586780 -0.546589
O3    O     O_R   0.004500 0.400610 0.550760 -0.541105
C1    C     C_R   0.349712 0.615634 0.613598 0.751554
O4    O     O_R   0.177490 0.611290 0.451970 -0.541892
O5    O     O_R   0.001750 0.417420 0.414990 -0.537221
C2    C     C_R   0.347398 0.638071 0.435344 0.707254
O6    O     O_R   0.509610 0.582580 0.585010 -0.546356
O7    O     O_3   0.337420 0.436370 0.488020 -0.363872
V1    V     V_3+5 0.064680 0.511800 0.502220 1.440061
O8    O     O_R   0.671710 0.405400 0.413220 -0.519660
C3    C     C_R   0.838810 0.387613 0.385345 0.690727
O9    O     O_R   0.674440 0.388710 0.548030 -0.543257
C4    C     C_R   0.841817 0.362230 0.564935 0.691866
V2    V     V_3+5 0.564010 0.488200 0.497780 1.469385
O10   O     O_3   0.841140 0.563630 0.511980 -0.378687
C5    C     C_R   0.762526 0.116407 0.615430 -0.158070
H1    H     H_    0.759030 0.165749 0.522393 0.121711
H2    H     H_    0.712678 0.996255 0.700476 0.123736
H3    H     H_    0.718833 0.040643 0.591731 0.115674
C6    C     C_R   0.842819 0.285203 0.604996 -0.036554
C7    C     C_R   0.922211 0.314200 0.927885 -0.163016
C8    C     C_R   0.943897 0.389041 0.891479 -0.118437
C9    C     C_R   0.917994 0.367404 0.822184 -0.159293
C10   C     C_R   0.866668 0.269390 0.787357 0.079192
C11   C     C_R   0.837379 0.193928 0.825502 0.069024
C12   C     C_R   0.844629 0.243472 0.716069 0.072111
C13   C     C_R   0.789029 0.143692 0.685090 0.142720
C14   C     C_R   0.757151 0.072033 0.723784 -0.203385
C15   C     C_R   0.781097 0.096662 0.792769 -0.215758
C16   C     C_R   0.873677 0.313092 0.674239 -0.217869
C17   C     C_R   0.786858 0.187093 0.575791 -0.165417
C18   C     C_R   0.868782 0.216803 0.895737 -0.082364
H4    H     H_    0.913535 0.390304 0.693871 0.094902
H5    H     H_    0.949218 0.332034 0.981420 0.110931
H6    H     H_    0.939780 0.429145 0.797526 0.107281
H7    H     H_    0.984538 0.464294 0.917045 0.119940
H8    H     H_    0.753695 0.038815 0.820583 0.130648
C19   C     C_2   0.994574 0.281286 0.287463 -0.159221
C20   C     C_2   0.839987 0.335231 0.313626 -0.186467
H9    H     H_    0.118909 0.278978 0.319385 0.192854
C21   C     C_2   0.010538 0.222879 0.217225 -0.052716
C22   C     C_2   0.860333 0.173014 0.183134 -0.281797
H10   H     H_    0.153001 0.216000 0.195045 0.163919
H11   H     H_    0.720732 0.173893 0.207053 0.160988
C23   C     C_2   0.200446 0.793808 0.779350 0.337457
C24   C     C_2   0.354642 0.810279 0.821355 -0.392245
H12   H     H_    0.480647 0.764494 0.809000 0.114286
C25   C     C_2   0.204213 0.713576 0.716526 -0.166032
C26   C     C_2   0.362427 0.686623 0.679312 -0.375681
H13   H     H_    0.068081 0.678822 0.697669 0.148976
H14   H     H_    0.502003 0.719784 0.695477 0.132288
C27   C     C_R   0.408625 0.888301 0.388713 -0.116174
H15   H     H_    0.394072 0.837194 0.481115 0.102466
H16   H     H_    0.424490 0.965121 0.415495 0.146557
C28   C     C_R   0.360703 0.715461 0.395632 -0.036140
C29   C     C_R   0.318971 0.686475 0.072610 -0.168300
C30   C     C_R   0.303794 0.611257 0.108839 -0.112566
C31   C     C_R   0.321475 0.633915 0.178402 -0.139999
C32   C     C_R   0.355340 0.733791 0.213987 0.078689
C33   C     C_R   0.372617 0.810264 0.176357 0.045776
C34   C     C_R   0.370365 0.760127 0.285423 0.061086
C35   C     C_R   0.404685 0.862339 0.317937 0.066887
C36   C     C_R   0.428943 0.936458 0.279221 -0.026747
C37   C     C_R   0.408837 0.909827 0.209671 -0.242705
C38   C     C_R   0.350875 0.687956 0.325902 -0.191913
C39   C     C_R   0.388207 0.815472 0.426937 -0.182851
C40   C     C_R   0.353785 0.785575 0.105549 -0.062409
H17   H     H_    0.328594 0.609333 0.305172 0.110338
H18   H     H_    0.303730 0.667366 0.018550 0.102295
H19   H     H_    0.307388 0.571103 0.202417 0.117809
H20   H     H_    0.277379 0.534553 0.082814 0.120810
H21   H     H_    0.426371 0.968243 0.181334 0.138928
O11   O     O_R   0.203230 0.917310 0.915020 -0.522926
O12   O     O_R   0.535500 0.888690 0.048040 -0.543009
O13   O     O_R   0.711080 0.082610 0.085000 -0.541681
C41   C     C_R   0.365806 0.862262 0.064956 0.685219
O14   O     O_R   0.532630 0.905370 0.913230 -0.544810
O15   O     O_R   0.708190 0.099410 0.949230 -0.541278
C42   C     C_R   0.363026 0.883882 0.886421 0.747861
O16   O     O_R   0.206120 0.900510 0.050790 -0.538569
O17   O     O_3   0.375360 0.063570 0.011990 -0.374794
V3    V     V_3+5 0.648170 0.988200 0.997780 1.442696
O18   O     O_R   0.038240 0.111390 0.951940 -0.542728
C43   C     C_R   0.870726 0.138251 0.935248 0.687291
O19   O     O_R   0.041120 0.094710 0.086750 -0.543463
C44   C     C_R   0.873147 0.113319 0.114129 0.739641
V4    V     V_3+5 0.148810 0.011930 0.002180 1.451987
O20   O     O_3   0.871750 0.936430 0.988010 -0.365167
C45   C     C_2   0.678123 0.355750 0.270668 0.771404
O21   O     O_2   0.512062 0.354651 0.290424 -0.556775
O22   O     O_R   0.716549 0.379187 0.208366 -0.663509
H22   H     H_    0.595204 0.392393 0.184176 0.284006
N1    N     N_2   0.032412 0.853484 0.795315 -0.479770
H23   H     H_    0.058775 0.929637 0.802808 0.255772
C46   C     C_3   0.854224 0.820628 0.760142 -0.577191
H24   H     H_    0.736410 0.870154 0.782269 0.194109
H25   H     H_    0.815392 0.743457 0.765570 0.193078
H26   H     H_    0.867141 0.823969 0.706381 0.187134
C47   C     C_2   0.480872 0.042594 0.308951 0.733126
O23   O     O_2   0.400564 0.110168 0.289233 -0.564410
O24   O     O_R   0.627701 0.065367 0.356959 -0.672122
H27   H     H_    0.651765 0.140182 0.372210 0.288900

loop_
_geom_bond_atom_site_label_1
_geom_bond_atom_site_label_2
_ccdc_geom_bond_type
C1    O6    A    
C30   H20   S    
C45   O21   D    
C19   H9    S    
C7    H5    S    
C6    C16   A    
C23   C25   S    
C9    H6    S    
C24   C42   S    
C4    C6    S    
C13   C14   A    
O5    C3    A    
O19   V4    S    
C38   H17   S    
V2    O10   S    
C46   H26   S    
C5    H3    S    
C37   H21   S    
C15   H8    S    
C32   C34   A    
C18   C43   S    
O22   H22   S    
O8    V2    S    
O14   V3    S    
C25   H13   S    
C46   H25   S    
C26   H14   S    
C8    C9    A    
O1    V2    S    
C29   H18   S    
C14   C15   A    
O7    V1    S    
O17   V4    S    
C31   C32   A    
O11   C42   A    
O9    C4    A    
O24   H27   S    
C21   H10   S    
C2    C28   S    
C20   C45   S    
O13   V3    S    
C19   C21   S    
C27   H16   S    
V3    O20   S    
C6    C17   A    
C34   C38   A    
C12   C16   A    
C9    C10   A    
C19   C20   D    
O4    C2    A    
O19   C44   A    
H15   C39   S    
C30   C31   A    
C8    H7    S    
O17   V3    S    
C1    C26   S    
C32   C33   A    
C3    C20   S    
O2    C1    A    
C34   C35   A    
C22   H11   S    
C11   C18   A    
C45   O22   S    
C24   H12   S    
C23   N1    S    
C41   O16   A    
C46   H24   S    
C47   O24   S    
C16   H4    S    
O18   C43   A    
N1    C46   S    
O12   C41   A    
O13   C44   A    
O3    C4    A    
C11   C15   A    
O6    V2    S    
O9    V2    S    
H1    C17   S    
C21   C22   D    
C29   C40   A    
O2    V1    S    
O15   C43   A    
C40   C41   S    
C7    C18   A    
C23   C24   D    
O1    C2    A    
C5    C13   A    
O18   V4    S    
O5    V1    S    
O8    C3    A    
C10   C12   A    
C28   C39   A    
C22   C44   S    
C36   C37   A    
C10   C11   A    
O4    V1    S    
O3    V1    S    
V1    O10   S    
O15   V3    S    
C27   C35   A    
C33   C40   A    
O12   V3    S    
C29   C30   A    
C28   C38   A    
C47   O23   D    
O14   C42   A    
O7    V2    S    
N1    H23   S    
C27   C39   A    
O16   V4    S    
C35   C36   A    
C33   C37   A    
C36   C47   S    
V4    O20   S    
C25   C26   D    
C12   C13   A    
C5    C17   A    
C7    C8    A    
O11   V4    S    
C31   H19   S    
H2    C14   S    
