data_str_m9_o4_o16_f0_sra.sym.104
_audit_creation_date              2012-12-11T17:00:14-0500
_audit_creation_method            fapswitch 2.2
_symmetry_space_group_name_H-M    P1
_symmetry_Int_Tables_number       1
_space_group_crystal_system       triclinic
_cell_length_a                    6.954455
_cell_length_b                    13.675078
_cell_length_c                    20.32765
_cell_angle_alpha                 103.612949
_cell_angle_beta                  90.62734
_cell_angle_gamma                 90.303324
_cell_volume                      1878.73226317

loop_
_atom_site_label
_atom_site_type_symbol
_atom_type_description
_atom_site_fract_x
_atom_site_fract_y
_atom_site_fract_z
_atom_type_partial_charge
O1    O     O_R   0.506770 0.599700 0.449550 -0.539778
O2    O     O_R   0.179980 0.595740 0.587960 -0.543283
O3    O     O_R   0.004580 0.400300 0.550450 -0.539627
C1    C     C_R   0.349150 0.617124 0.615176 0.696405
O4    O     O_R   0.177380 0.611700 0.452380 -0.545187
O5    O     O_R   0.001970 0.416370 0.413900 -0.543163
C2    C     C_R   0.345458 0.637272 0.435669 0.693861
O6    O     O_R   0.509390 0.583630 0.586100 -0.538224
O7    O     O_3   0.337530 0.435890 0.487530 -0.372296
V1    V     V_3+5 0.064660 0.511890 0.502310 1.417453
O8    O     O_R   0.671950 0.404260 0.412040 -0.542413
C3    C     C_R   0.839823 0.383770 0.384447 0.692625
O9    O     O_R   0.674540 0.388300 0.547620 -0.541572
C4    C     C_R   0.843388 0.362623 0.564541 0.698344
V2    V     V_3+5 0.564030 0.488110 0.497690 1.419642
O10   O     O_3   0.841030 0.564110 0.512470 -0.371136
C5    C     C_R   0.834788 0.110330 0.605701 -0.154798
H1    H     H_    0.828971 0.162425 0.514209 0.100461
H2    H     H_    0.828325 0.983352 0.683369 0.124696
H3    H     H_    0.824521 0.032115 0.578450 0.111379
C6    C     C_R   0.850906 0.285039 0.602820 -0.027974
C7    C     C_R   0.877804 0.313610 0.928516 -0.041236
C8    C     C_R   0.885945 0.388471 0.892975 -0.112290
C9    C     C_R   0.877896 0.364648 0.822823 -0.158911
C10   C     C_R   0.862247 0.263762 0.784952 0.071560
C11   C     C_R   0.855357 0.184923 0.820756 0.016064
C12   C     C_R   0.855558 0.239304 0.712438 0.077930
C13   C     C_R   0.842688 0.137031 0.676760 0.131434
C14   C     C_R   0.837204 0.061338 0.711665 -0.242323
C15   C     C_R   0.843407 0.083071 0.781995 -0.079305
C16   C     C_R   0.860099 0.312811 0.673571 -0.216064
C17   C     C_R   0.837937 0.184035 0.568983 -0.173599
C18   C     C_R   0.863101 0.211793 0.893485 -0.141846
H4    H     H_    0.867508 0.392299 0.696137 0.091506
H5    H     H_    0.886048 0.427926 0.799990 0.115906
H6    H     H_    0.900342 0.466657 0.919896 0.142261
C19   C     C_R   0.710389 0.183708 0.226187 0.066725
C20   C     C_R   0.866695 0.185708 0.183644 -0.091975
C21   C     C_R   0.021225 0.250339 0.210212 -0.146509
H7    H     H_    0.143638 0.255628 0.179010 0.140626
C22   C     C_R   0.013209 0.313880 0.275688 -0.176415
H8    H     H_    0.130380 0.366113 0.293136 0.126460
C23   C     C_R   0.850188 0.314699 0.316486 -0.106711
C24   C     C_R   0.702549 0.246000 0.290992 0.099824
C25   C     C_3   0.493459 0.264661 0.283787 -0.399480
C26   C     C_3   0.502092 0.196400 0.213230 -0.403280
H9    H     H_    0.464242 0.344499 0.283772 0.168909
H10   H     H_    0.405428 0.232942 0.319225 0.172358
H11   H     H_    0.477799 0.236370 0.172182 0.182949
H12   H     H_    0.418903 0.125302 0.208036 0.163015
C27   C     C_R   0.434060 0.655116 0.739106 0.091488
C28   C     C_R   0.355001 0.685110 0.683467 -0.092203
C29   C     C_R   0.252892 0.776565 0.697161 -0.183628
H13   H     H_    0.179230 0.800546 0.656498 0.117592
C30   C     C_R   0.253972 0.840638 0.762882 -0.143211
H14   H     H_    0.187331 0.913525 0.770458 0.129777
C31   C     C_R   0.352214 0.813578 0.816931 -0.099142
C32   C     C_R   0.433292 0.717560 0.803654 0.066152
C33   C     C_3   0.620859 0.678819 0.822516 -0.209749
C34   C     C_3   0.622286 0.609782 0.751176 -0.468162
H15   H     H_    0.738020 0.736002 0.832529 0.169848
H16   H     H_    0.607623 0.528174 0.749499 0.167788
H17   H     H_    0.738298 0.628943 0.719017 0.180016
C35   C     C_R   0.453286 0.882290 0.394455 -0.153950
H18   H     H_    0.447060 0.829742 0.485561 0.102586
H19   H     H_    0.578896 0.988703 0.313941 0.120176
H20   H     H_    0.511253 0.955067 0.420452 0.111544
C36   C     C_R   0.354383 0.715388 0.398520 -0.028119
C37   C     C_R   0.258612 0.701958 0.077013 -0.134921
C38   C     C_R   0.195857 0.633799 0.113055 -0.109583
C39   C     C_R   0.223385 0.653518 0.182719 -0.156579
C40   C     C_R   0.324131 0.740486 0.218072 0.045068
C41   C     C_R   0.399704 0.808372 0.180620 0.043840
C42   C     C_R   0.351901 0.762085 0.289846 0.071858
C43   C     C_R   0.429616 0.856728 0.323864 0.117587
C44   C     C_R   0.504545 0.920725 0.287091 -0.233533
C45   C     C_R   0.515382 0.890412 0.216863 0.073601
C46   C     C_R   0.314745 0.691488 0.328924 -0.211097
C47   C     C_R   0.417726 0.811312 0.431555 -0.172927
C48   C     C_R   0.355742 0.790463 0.109431 -0.093582
H21   H     H_    0.269349 0.615322 0.306220 0.093440
H22   H     H_    0.223731 0.687530 0.023452 0.125091
H23   H     H_    0.159374 0.600473 0.207862 0.120907
H24   H     H_    0.117493 0.566950 0.087107 0.148591
O11   O     O_R   0.203450 0.916320 0.913910 -0.528602
O12   O     O_R   0.535520 0.888300 0.047620 -0.542704
O13   O     O_R   0.710860 0.083650 0.086100 -0.549618
C49   C     C_R   0.368428 0.868414 0.069780 0.675163
O14   O     O_R   0.532860 0.904250 0.912040 -0.526976
O15   O     O_R   0.708190 0.099710 0.949550 -0.534850
C50   C     C_R   0.363569 0.882698 0.884842 0.715069
O16   O     O_R   0.206120 0.900260 0.050460 -0.549703
O17   O     O_3   0.375280 0.064080 0.012470 -0.376619
V3    V     V_3+5 0.648180 0.988110 0.997690 1.455339
O18   O     O_R   0.038220 0.111740 0.952370 -0.540237
C51   C     C_R   0.869614 0.136024 0.934174 0.730858
O19   O     O_R   0.040880 0.095790 0.087940 -0.548430
C52   C     C_R   0.872892 0.118967 0.114663 0.695740
V4    V     V_3+5 0.148800 0.011950 0.002300 1.441136
O20   O     O_3   0.871820 0.935920 0.987530 -0.360563
C53   C     C_1   0.596524 0.625107 0.876630 0.313495
N1    N     N_1   0.576190 0.583330 0.919425 -0.373544
C54   C     C_3   0.680473 0.934754 0.186509 -0.368474
C55   C     C_3   0.825276 0.854871 0.153603 -0.648915
H25   H     H_    0.886562 0.817796 0.192147 0.216030
H26   H     H_    0.759184 0.796411 0.112251 0.232471
H27   H     H_    0.943994 0.891748 0.132581 0.213963
H28   H     H_    0.622770 0.978336 0.152782 0.198175
H29   H     H_    0.763235 0.989830 0.225627 0.164106
C56   C     C_1   0.887101 0.343245 0.001710 0.279353
N2    N     N_1   0.894509 0.366804 0.060231 -0.379627
C57   C     C_1   0.840500 0.995778 0.810202 0.259415
N3    N     N_1   0.839901 0.924466 0.831453 -0.341013

loop_
_geom_bond_atom_site_label_1
_geom_bond_atom_site_label_2
_ccdc_geom_bond_type
C30   H14   S    
O17   V3    S    
H18   C47   S    
C22   H8    S    
O18   C51   A    
C20   C52   S    
C55   H26   S    
O19   C52   A    
O11   C50   A    
C21   C22   A    
C29   H13   S    
C28   C29   A    
C6    C16   A    
C26   H11   S    
C53   N1    T    
C1    C28   S    
C34   H17   S    
C4    C6    S    
C13   C14   A    
C19   C20   A    
C3    C23   S    
O5    C3    A    
C20   C21   A    
O12   C49   A    
V2    O10   S    
O13   V3    S    
C5    H3    S    
C34   H16   S    
O14   V3    S    
C56   N2    T    
C55   H25   S    
C37   H22   S    
O12   V3    S    
C2    C36   S    
O8    V2    S    
C35   C43   A    
C49   O16   A    
C7    C56   S    
C8    C9    A    
C38   C39   A    
O1    V2    S    
O14   C50   A    
C38   H24   S    
O7    V1    S    
O17   V4    S    
C1    O6    A    
O13   C52   A    
C36   C47   A    
C25   H9    S    
C33   C34   S    
O9    C4    A    
C22   C23   A    
C57   N3    T    
O19   V4    S    
O15   V3    S    
C39   H23   S    
C29   C30   A    
C36   C46   A    
C6    C17   A    
C33   H15   S    
C9    H5    S    
C42   C43   A    
C12   C16   A    
C27   C28   A    
C33   C53   S    
C35   H20   S    
C9    C10   A    
C40   C42   A    
C21   H7    S    
O4    C2    A    
C10   C11   A    
C25   C26   S    
C15   C57   S    
O2    C1    A    
C43   C44   A    
C14   C15   A    
O11   V4    S    
C11   C18   A    
V4    O20   S    
V3    O20   S    
H19   C44   S    
C16   H4    S    
C27   C32   A    
C44   C45   A    
C54   H28   S    
O3    C4    A    
C11   C15   A    
O6    V2    S    
O9    V2    S    
C23   C24   A    
C35   C47   A    
C45   C54   S    
H1    C17   S    
O2    V1    S    
C18   C51   S    
C54   C55   S    
C24   C25   S    
C25   H10   S    
C7    C18   A    
C31   C50   S    
O1    C2    A    
C5    C13   A    
C40   C41   A    
O5    V1    S    
O8    C3    A    
O15   C51   A    
C10   C12   A    
C26   H12   S    
C54   H29   S    
C19   C24   A    
C30   C31   A    
C32   C33   S    
O4    V1    S    
C48   C49   S    
O3    V1    S    
V1    O10   S    
C46   H21   S    
C31   C32   A    
C41   C48   A    
O18   V4    S    
O7    V2    S    
C37   C38   A    
C39   C40   A    
C8    H6    S    
C42   C46   A    
C12   C13   A    
C5    C17   A    
C41   C45   A    
C7    C8    A    
C37   C48   A    
C27   C34   S    
C19   C26   S    
C55   H27   S    
O16   V4    S    
H2    C14   S    
