data_str_m9_o11_o16_f0_sra.sym.219
_audit_creation_date              2012-12-11T14:17:40-0500
_audit_creation_method            fapswitch 2.2
_symmetry_space_group_name_H-M    P1
_symmetry_Int_Tables_number       1
_space_group_crystal_system       triclinic
_cell_length_a                    6.959952
_cell_length_b                    13.629414
_cell_length_c                    20.477859
_cell_angle_alpha                 102.420911
_cell_angle_beta                  90.990927
_cell_angle_gamma                 90.638428
_cell_volume                      1896.5604525

loop_
_atom_site_label
_atom_site_type_symbol
_atom_type_description
_atom_site_fract_x
_atom_site_fract_y
_atom_site_fract_z
_atom_type_partial_charge
O1    O     O_R   0.506860 0.599390 0.449240 -0.542233
O2    O     O_R   0.180220 0.594600 0.586780 -0.542477
O3    O     O_R   0.004500 0.400610 0.550760 -0.536922
C1    C     C_R   0.351529 0.614751 0.613649 0.670150
O4    O     O_R   0.177490 0.611290 0.451970 -0.542889
O5    O     O_R   0.001750 0.417420 0.414990 -0.541476
C2    C     C_R   0.346093 0.637590 0.435123 0.762174
O6    O     O_R   0.509610 0.582580 0.585010 -0.544998
O7    O     O_3   0.337420 0.436370 0.488020 -0.373094
V1    V     V_3+5 0.064680 0.511800 0.502220 1.454232
O8    O     O_R   0.671710 0.405400 0.413220 -0.542310
C3    C     C_R   0.838271 0.386114 0.385959 0.724125
O9    O     O_R   0.674440 0.388710 0.548030 -0.548860
C4    C     C_R   0.843723 0.363305 0.565554 0.724495
V2    V     V_3+5 0.564010 0.488200 0.497780 1.446876
O10   O     O_3   0.841140 0.563630 0.511980 -0.374215
C5    C     C_R   0.992844 0.124841 0.611893 0.368870
H1    H     H_    0.982952 0.181805 0.522483 0.154258
H2    H     H_    0.014415 0.995222 0.693656 0.139693
C6    C     C_R   0.858782 0.285501 0.604605 -0.206615
C7    C     C_R   0.842499 0.314090 0.925992 0.281793
C8    C     C_R   0.852121 0.389605 0.889656 0.441591
C9    C     C_R   0.875471 0.364512 0.820594 -0.258398
C10   C     C_R   0.876969 0.263912 0.784944 0.017590
C11   C     C_R   0.888367 0.186364 0.821625 -0.079677
C12   C     C_R   0.883974 0.239869 0.713626 0.051009
C13   C     C_R   0.953644 0.144795 0.681226 -0.095182
C14   C     C_R   0.974015 0.070332 0.717945 -0.247754
C15   C     C_R   0.928710 0.087166 0.785713 0.444912
C16   C     C_R   0.817822 0.306260 0.673567 0.289416
C17   C     C_R   0.946878 0.195989 0.574962 -0.195756
C18   C     C_R   0.862763 0.211847 0.892555 -0.249330
H3    H     H_    0.904441 0.425522 0.795942 0.186650
C19   C     C_2   0.998373 0.297738 0.282369 -0.084044
C20   C     C_2   0.837238 0.324202 0.317144 -0.243453
H4    H     H_    0.137043 0.324875 0.304560 0.131587
H5    H     H_    0.697264 0.304602 0.293597 0.181791
C21   C     C_2   0.997573 0.239214 0.211797 -0.153449
C22   C     C_2   0.865749 0.167512 0.185454 0.205909
H6    H     H_    0.115640 0.254088 0.181111 0.102796
C23   C     C_2   0.324517 0.841578 0.763542 0.392350
C24   C     C_2   0.341581 0.812173 0.822239 -0.282104
H7    H     H_    0.325960 0.733550 0.824103 0.120072
C25   C     C_2   0.287343 0.767202 0.698859 -0.262957
C26   C     C_2   0.374338 0.677728 0.682243 0.169672
H8    H     H_    0.198769 0.791662 0.661273 0.107393
C27   C     C_R   0.392919 0.891206 0.392382 -0.161359
H9    H     H_    0.405544 0.968836 0.419061 0.186581
C28   C     C_R   0.356738 0.716827 0.397130 -0.152722
C29   C     C_R   0.374112 0.689444 0.075348 -0.242197
C30   C     C_R   0.404120 0.615049 0.110665 -0.155015
C31   C     C_R   0.416413 0.638155 0.180788 0.377379
C32   C     C_R   0.378732 0.737987 0.216750 -0.001111
C33   C     C_R   0.360293 0.815928 0.180016 -0.057354
C34   C     C_R   0.367469 0.763643 0.288125 0.025130
C35   C     C_R   0.377167 0.866037 0.321956 -0.008572
C36   C     C_R   0.368444 0.942424 0.285886 0.282594
C37   C     C_R   0.343236 0.917396 0.215470 0.206017
C38   C     C_R   0.340679 0.691047 0.327380 -0.194889
C39   C     C_R   0.392495 0.816627 0.429776 0.367365
C40   C     C_R   0.360790 0.789587 0.108561 -0.054597
H10   H     H_    0.300640 0.614262 0.305254 0.173011
H11   H     H_    0.371530 0.669261 0.021186 0.125085
H12   H     H_    0.427062 0.539171 0.082805 0.137951
O11   O     O_R   0.203230 0.917310 0.915020 -0.523738
O12   O     O_R   0.535500 0.888690 0.048040 -0.551480
O13   O     O_R   0.711080 0.082610 0.085000 -0.537412
C41   C     C_R   0.367417 0.864297 0.066533 0.796650
O14   O     O_R   0.532630 0.905370 0.913230 -0.560516
O15   O     O_R   0.708190 0.099410 0.949230 -0.549337
C42   C     C_R   0.361415 0.884541 0.886761 0.768605
O16   O     O_R   0.206120 0.900510 0.050790 -0.529134
O17   O     O_3   0.375360 0.063570 0.011990 -0.366800
V3    V     V_3+5 0.648170 0.988200 0.997780 1.437493
O18   O     O_R   0.038240 0.111390 0.951940 -0.522460
C43   C     C_R   0.869799 0.134589 0.932683 0.800552
O19   O     O_R   0.041120 0.094710 0.086750 -0.538788
C44   C     C_R   0.874219 0.112748 0.114367 0.636667
V4    V     V_3+5 0.148810 0.011930 0.002180 1.514365
O20   O     O_3   0.871750 0.936430 0.988010 -0.385017
O21   O     O_3   0.726769 0.140987 0.226189 -0.648510
H13   H     H_    0.656399 0.080475 0.201350 0.306626
O22   O     O_3   0.330048 0.943094 0.764175 -0.647072
H14   H     H_    0.332097 0.950958 0.717207 0.271769
O23   O     O_3   0.506331 0.651170 0.726360 -0.661453
H15   H     H_    0.553396 0.583075 0.706906 0.292964
O24   O     O_3   0.410154 0.841966 0.498790 -0.559259
C45   C     C_3   0.604702 0.866357 0.516445 0.116431
H16   H     H_    0.649381 0.936437 0.500798 0.141710
H17   H     H_    0.700630 0.803929 0.493289 0.129401
C46   C     C_3   0.630550 0.883645 0.591951 -0.694804
H18   H     H_    0.587352 0.815047 0.609304 0.214621
H19   H     H_    0.783767 0.901107 0.606020 0.196058
H20   H     H_    0.541756 0.947602 0.616800 0.208940
O25   O     O_3   0.379042 0.041266 0.320965 -0.646381
H21   H     H_    0.424706 0.084489 0.291144 0.317686
O26   O     O_3   0.482287 0.566289 0.213797 -0.661760
H22   H     H_    0.503312 0.502228 0.181239 0.287017
O27   O     O_3   0.299670 0.991236 0.181069 -0.654594
H23   H     H_    0.220125 0.042496 0.209690 0.296936
O28   O     O_3   0.079514 0.038352 0.578462 -0.637102
H24   H     H_    0.173338 0.016834 0.609240 0.291086
O29   O     O_3   0.705744 0.386781 0.702172 -0.666937
H25   H     H_    0.637578 0.413248 0.667139 0.282880
O30   O     O_3   0.821880 0.344779 0.994485 -0.626716
H26   H     H_    0.806494 0.286385 0.015432 0.267683
O31   O     O_3   0.863295 0.489126 0.923605 -0.533459
C47   C     C_3   0.697549 0.540204 0.909159 0.101930
H27   H     H_    0.569301 0.512162 0.931768 0.134300
H28   H     H_    0.671065 0.531427 0.854395 0.134046
C48   C     C_3   0.724427 0.651961 0.938943 -0.656979
H29   H     H_    0.851546 0.681639 0.916929 0.209888
H30   H     H_    0.595341 0.693195 0.927875 0.154534
H31   H     H_    0.746314 0.664778 0.994000 0.228812
O32   O     O_3   0.945306 0.007097 0.816955 -0.543084
C49   C     C_3   0.793141 0.937762 0.794515 0.099084
H32   H     H_    0.763674 0.923742 0.739637 0.108596
H33   H     H_    0.660964 0.967782 0.820078 0.166882
C50   C     C_3   0.839983 0.836682 0.810668 -0.634170
H34   H     H_    0.882785 0.845538 0.863874 0.234429
H35   H     H_    0.713689 0.785754 0.800538 0.212275
H36   H     H_    0.956014 0.800377 0.778478 0.201535

loop_
_geom_bond_atom_site_label_1
_geom_bond_atom_site_label_2
_ccdc_geom_bond_type
O12   C41   A    
O24   C45   S    
O28   H24   S    
O11   V4    S    
C34   C38   A    
O17   V3    S    
C32   C34   A    
O2    C1    A    
O25   H21   S    
C1    O6    A    
O26   H22   S    
C6    C16   A    
O19   C44   A    
C47   H27   S    
C12   C13   A    
C28   C39   A    
O22   H14   S    
C14   C15   A    
C20   H5    S    
C10   C12   A    
O16   V4    S    
O5    C3    A    
C21   C22   D    
V2    O10   S    
C23   O22   S    
C31   O26   S    
C35   C36   A    
C19   C20   D    
C23   C24   D    
O14   C42   A    
C5    O28   S    
O1    C2    A    
C27   C39   A    
O8    V2    S    
O27   H23   S    
C49   H33   S    
C9    H3    S    
C16   O29   S    
O15   V3    S    
O31   C47   S    
O1    V2    S    
O7    V1    S    
C11   C18   A    
O19   V4    S    
C15   O32   S    
V3    O20   S    
C7    C8    A    
C29   H11   S    
O13   C44   A    
C39   O24   S    
C25   H8    S    
O21   H13   S    
C1    C26   S    
C50   H35   S    
C11   C15   A    
C7    C18   A    
C30   H12   S    
C30   C31   A    
C5    C13   A    
C22   C44   S    
C4    C6    S    
C10   C11   A    
C22   O21   S    
C46   H18   S    
O4    C2    A    
C32   C33   A    
C26   O23   S    
O18   C43   A    
O5    V1    S    
C46   H19   S    
C27   H9    S    
C45   C46   S    
C41   O16   A    
C34   C35   A    
C29   C30   A    
O17   V4    S    
O14   V3    S    
C48   H30   S    
O13   V3    S    
C31   C32   A    
C3    C20   S    
H2    C14   S    
C2    C28   S    
O23   H15   S    
O3    C4    A    
C45   H17   S    
C12   C16   A    
O6    V2    S    
O9    V2    S    
O15   C43   A    
C5    C17   A    
C23   C25   S    
C24   H7    S    
O2    V1    S    
C13   C14   A    
C25   C26   D    
C33   C37   A    
C50   H36   S    
C38   H10   S    
C48   H29   S    
C19   C21   S    
C37   O27   S    
C18   C43   S    
C50   H34   S    
C49   C50   S    
C33   C40   A    
O30   H26   S    
C28   C38   A    
C47   C48   S    
O7    V2    S    
O4    V1    S    
O3    V1    S    
V1    O10   S    
C46   H20   S    
C21   H6    S    
C40   C41   S    
C36   C37   A    
C24   C42   S    
C47   H28   S    
C49   H32   S    
C48   H31   S    
C19   H4    S    
C9    C10   A    
V4    O20   S    
O11   C42   A    
C45   H16   S    
C36   O25   S    
O29   H25   S    
C29   C40   A    
C8    C9    A    
H1    C17   S    
O32   C49   S    
O9    C4    A    
O18   V4    S    
C7    O30   S    
C8    O31   S    
O8    C3    A    
C27   C35   A    
C6    C17   A    
O12   V3    S    
