data_str_m9_o7_o18_f0_sra.sym.73
_audit_creation_date              2012-12-11T17:36:22-0500
_audit_creation_method            fapswitch 2.2
_symmetry_space_group_name_H-M    P1
_symmetry_Int_Tables_number       1
_space_group_crystal_system       triclinic
_cell_length_a                    25.881712
_cell_length_b                    6.902459
_cell_length_c                    21.689781
_cell_angle_alpha                 90.000055
_cell_angle_beta                  96.054656
_cell_angle_gamma                 90.000077
_cell_volume                      3853.2093811

loop_
_atom_site_label
_atom_site_type_symbol
_atom_type_description
_atom_site_fract_x
_atom_site_fract_y
_atom_site_fract_z
_atom_type_partial_charge
O1    O     O_R   0.208650 0.594520 0.175450 -0.538915
O2    O     O_R   0.791350 0.405480 0.824550 -0.536359
O3    O     O_R   0.291350 0.094520 0.324550 -0.536360
O4    O     O_R   0.708650 0.905480 0.675450 -0.538916
O5    O     O_R   0.192980 0.260780 0.300160 -0.539900
O6    O     O_R   0.807020 0.739220 0.699840 -0.530357
O7    O     O_R   0.307020 0.760780 0.199840 -0.530356
O8    O     O_R   0.692980 0.239220 0.800160 -0.539901
C1    C     C_R   0.178666 0.433505 0.318478 0.702038
C2    C     C_R   0.822214 0.566708 0.683263 0.675850
C3    C     C_R   0.322214 0.933292 0.183263 0.675855
C4    C     C_R   0.678666 0.066495 0.818478 0.702041
O9    O     O_R   0.202550 0.264660 0.174420 -0.538988
O10   O     O_R   0.797450 0.735340 0.825580 -0.533056
O11   O     O_R   0.297450 0.764660 0.325580 -0.533057
O12   O     O_R   0.702550 0.235340 0.674420 -0.538987
O13   O     O_R   0.300990 0.096480 0.197920 -0.531238
O14   O     O_R   0.699010 0.903520 0.802080 -0.531153
O15   O     O_R   0.199010 0.596480 0.302080 -0.531153
O16   O     O_R   0.800990 0.403520 0.697920 -0.531240
C5    C     C_R   0.191053 0.433358 0.151136 0.688925
C6    C     C_R   0.808946 0.566638 0.848850 0.710150
C7    C     C_R   0.308946 0.933362 0.348850 0.710150
C8    C     C_R   0.691053 0.066642 0.651136 0.688924
O17   O     O_3   0.282290 0.427760 0.257860 -0.356456
O18   O     O_3   0.717710 0.572240 0.742140 -0.371933
O19   O     O_3   0.217710 0.927760 0.242140 -0.371933
O20   O     O_3   0.782290 0.072240 0.757860 -0.356457
V1    V     V_3+5 0.244010 0.152080 0.248540 1.436952
V2    V     V_3+5 0.755990 0.847920 0.751460 1.459432
V3    V     V_3+5 0.255990 0.652080 0.251460 1.459432
V4    V     V_3+5 0.744010 0.347920 0.748540 1.436951
C9    C     C_R   0.657358 0.060899 0.591940 -0.043188
C10   C     C_R   0.342635 0.939117 0.408023 -0.050397
C11   C     C_R   0.842635 0.560885 0.908023 -0.050398
C12   C     C_R   0.157358 0.439099 0.091940 -0.043190
C13   C     C_R   0.646450 0.121247 0.481583 -0.160189
C14   C     C_R   0.353558 0.878531 0.518353 -0.163674
C15   C     C_R   0.853559 0.621483 0.018352 -0.163675
C16   C     C_R   0.146449 0.378738 0.981584 -0.160190
C17   C     C_R   0.678122 0.112767 0.537482 -0.167157
C18   C     C_R   0.321887 0.886922 0.462457 -0.156866
C19   C     C_R   0.821887 0.613088 0.962457 -0.156865
C20   C     C_R   0.178121 0.387222 0.037483 -0.167155
C21   C     C_R   0.604073 0.017962 0.590199 -0.216998
C22   C     C_R   0.395899 0.982391 0.409759 -0.213796
C23   C     C_R   0.895899 0.517606 0.909759 -0.213796
C24   C     C_R   0.104073 0.482041 0.090199 -0.216999
C25   C     C_R   0.570517 0.028701 0.533712 0.088279
C26   C     C_R   0.429461 0.971590 0.466235 0.090190
C27   C     C_R   0.929461 0.528411 0.966235 0.090191
C28   C     C_R   0.070517 0.471298 0.033712 0.088279
C29   C     C_R   0.593104 0.081148 0.479230 0.136701
C30   C     C_R   0.406886 0.918938 0.520711 0.138895
C31   C     C_R   0.906887 0.581072 0.020710 0.138895
C32   C     C_R   0.093104 0.418842 0.979230 0.136701
C33   C     C_R   0.515546 0.991928 0.529345 0.058202
C34   C     C_R   0.484429 0.008435 0.470601 0.055522
C35   C     C_R   0.984429 0.491562 0.970601 0.055522
C36   C     C_R   0.015546 0.508074 0.029345 0.058203
C37   C     C_R   0.509349 0.060578 0.418218 -0.181498
C38   C     C_R   0.490628 0.939740 0.581724 -0.187864
C39   C     C_R   0.990629 0.560270 0.081723 -0.187864
C40   C     C_R   0.009349 0.439412 0.918218 -0.181497
C41   C     C_R   0.562416 0.095608 0.422613 -0.197339
C42   C     C_R   0.437572 0.904544 0.577326 -0.199862
C43   C     C_R   0.937573 0.595470 0.077325 -0.199862
C44   C     C_R   0.062415 0.404378 0.922614 -0.197338
H1    H     H_    0.579648 0.135761 0.380986 0.127869
H2    H     H_    0.420349 0.864279 0.618948 0.123224
H3    H     H_    0.920350 0.635742 0.118947 0.123225
H4    H     H_    0.079646 0.364218 0.880987 0.127871
H5    H     H_    0.409819 0.019259 0.366171 0.091797
H6    H     H_    0.590130 0.981398 0.633793 0.089821
H7    H     H_    0.090130 0.518612 0.133792 0.089821
H8    H     H_    0.909818 0.480731 0.866171 0.091800
H9    H     H_    0.281034 0.851293 0.461550 0.136593
H10   H     H_    0.718988 0.148109 0.538371 0.107448
H11   H     H_    0.218987 0.351876 0.038372 0.107449
H12   H     H_    0.781035 0.648721 0.961549 0.136596
H13   H     H_    0.663659 0.161985 0.440018 0.114930
H14   H     H_    0.336364 0.837591 0.559910 0.118186
H15   H     H_    0.836365 0.662430 0.059909 0.118187
H16   H     H_    0.163657 0.337994 0.940019 0.114931
H17   H     H_    0.488888 0.076279 0.372660 0.130452
H18   H     H_    0.511087 0.924032 0.627279 0.121451
H19   H     H_    0.011088 0.575982 0.127278 0.121451
H20   H     H_    0.988887 0.423706 0.872661 0.130458
C45   C     C_R   0.409319 0.825085 0.056663 -0.138148
C46   C     C_R   0.565167 0.206450 0.909300 -0.130678
C47   C     C_R   0.065168 0.293546 0.409301 -0.130677
C48   C     C_R   0.909313 0.674895 0.556656 -0.138147
H21   H     H_    0.412258 0.715095 0.021574 0.122989
H22   H     H_    0.541672 0.333705 0.915144 0.120964
H23   H     H_    0.041674 0.166289 0.415147 0.120965
H24   H     H_    0.912248 0.784871 0.521561 0.122989
C49   C     C_R   0.371463 0.806006 0.098127 -0.185844
C50   C     C_R   0.604617 0.215096 0.869493 -0.200051
C51   C     C_R   0.104617 0.284901 0.369495 -0.200049
C52   C     C_R   0.871457 0.693977 0.598120 -0.185852
H25   H     H_    0.345342 0.683041 0.093300 0.141516
H26   H     H_    0.610255 0.349217 0.845366 0.144516
H27   H     H_    0.110256 0.150779 0.345368 0.144522
H28   H     H_    0.845332 0.816928 0.593287 0.141502
C53   C     C_R   0.366227 0.946905 0.144026 -0.147623
C54   C     C_R   0.635902 0.052390 0.860281 -0.139596
C55   C     C_R   0.135901 0.447609 0.360280 -0.139601
C56   C     C_R   0.866226 0.553096 0.644026 -0.147614
C57   C     C_R   0.401721 0.105664 0.148975 0.342776
C58   C     C_R   0.625893 0.878332 0.892487 0.326768
C59   C     C_R   0.125892 0.621668 0.392485 0.326769
C60   C     C_R   0.901726 0.394354 0.648982 0.342783
C61   C     C_R   0.438441 0.124998 0.106087 -0.131717
C62   C     C_R   0.587043 0.873029 0.932913 -0.150479
C63   C     C_R   0.087042 0.626971 0.432912 -0.150477
C64   C     C_R   0.938447 0.375019 0.606094 -0.131709
H29   H     H_    0.464743 0.247662 0.109838 0.136158
H30   H     H_    0.580457 0.739635 0.957303 0.131835
H31   H     H_    0.080455 0.760366 0.457301 0.131834
H32   H     H_    0.964753 0.252369 0.609852 0.136160
C65   C     C_R   0.442589 0.985867 0.059950 0.044334
C66   C     C_R   0.556200 0.035111 0.941197 0.053474
C67   C     C_R   0.056201 0.464886 0.441198 0.053472
C68   C     C_R   0.942589 0.514130 0.559950 0.044331
C69   C     C_1   0.481983 0.006441 0.017284 -0.036696
C70   C     C_1   0.515457 0.022395 0.982348 -0.038100
C71   C     C_1   0.015457 0.477600 0.482348 -0.038099
C72   C     C_1   0.981983 0.493554 0.517285 -0.036695
O21   O     O_3   0.402764 0.242677 0.195405 -0.641900
H33   H     H_    0.389630 0.182903 0.232201 0.280328
O22   O     O_3   0.654017 0.711866 0.886701 -0.646077
H34   H     H_    0.645858 0.669255 0.843140 0.285518
O23   O     O_3   0.154014 0.788139 0.386698 -0.646077
H35   H     H_    0.145856 0.830741 0.343136 0.285517
O24   O     O_3   0.902774 0.257361 0.695419 -0.641902
H36   H     H_    0.889633 0.317137 0.732209 0.280323

loop_
_geom_bond_atom_site_label_1
_geom_bond_atom_site_label_2
_ccdc_geom_bond_type
O17   V3    S    
C51   H27   S    
O1    C5    A    
O19   V1    S    
C9    C21   A    
C16   H16   S    
C2    C56   S    
C10   C18   A    
O1    V3    S    
O15   V3    S    
C25   C33   A    
O24   H36   S    
C5    C12   S    
C42   H2    S    
O7    C3    A    
C6    C11   S    
C38   H18   S    
C35   C40   A    
C26   C30   A    
C36   C39   A    
C40   C44   A    
O9    V1    S    
C23   H8    S    
C14   C18   A    
C48   C68   A    
C54   C58   A    
O4    C8    A    
C25   C29   A    
C44   H4    S    
C48   H24   S    
O13   V1    S    
C31   C43   A    
O2    V4    S    
O3    V1    S    
C28   C36   A    
C65   C69   S    
C28   C32   A    
O3    C7    A    
C1    O15   A    
C52   H28   S    
C15   C31   A    
C2    O16   A    
C16   C32   A    
O2    C6    A    
C10   C22   A    
C11   C19   A    
C58   C62   A    
C16   C20   A    
C43   H3    S    
C57   C61   A    
C68   C72   S    
C13   C29   A    
C34   C37   A    
O11   C7    A    
C11   C23   A    
C35   C36   A    
O12   C8    A    
C47   C67   A    
C14   H14   S    
C45   H21   S    
C46   C66   A    
C24   H7    S    
C13   H13   S    
O10   V2    S    
C46   H22   S    
O5    V1    S    
O17   V1    S    
C39   C43   A    
C52   C56   A    
O7    V3    S    
C38   C42   A    
O19   V3    S    
C26   C34   A    
O20   V4    S    
C63   C67   A    
C17   H10   S    
O18   V4    S    
C59   O23   S    
C15   C19   A    
C33   C38   A    
C19   H12   S    
C32   C44   A    
C47   H23   S    
C56   C60   A    
C45   C49   A    
C21   H6    S    
O8    V4    S    
C66   C70   S    
O5    C1    A    
C37   C41   A    
C67   C71   S    
C14   C30   A    
C21   C25   A    
O8    C4    A    
C7    C10   S    
O9    C5    A    
C58   O22   S    
C3    C53   S    
C62   H30   S    
C37   H17   S    
C61   H29   S    
O6    V2    S    
O18   V2    S    
C63   H31   S    
C57   O21   S    
O23   H35   S    
C12   C20   A    
C27   C35   A    
C60   O24   S    
O22   H34   S    
C60   C64   A    
C29   C41   A    
C48   C52   A    
O21   H33   S    
O16   V4    S    
C53   C57   A    
C3    O13   A    
C64   C68   A    
C39   H19   S    
C55   C59   A    
C20   H11   S    
O6    C2    A    
C23   C27   A    
O11   V3    S    
C30   C42   A    
O12   V4    S    
C51   C55   A    
C22   C26   A    
C8    C9    S    
C50   C54   A    
C9    C17   A    
O10   C6    A    
O20   V2    S    
C49   C53   A    
C50   H26   S    
C4    C54   S    
C33   C34   A    
C69   C70   T    
C45   C65   A    
C41   H1    S    
C46   C50   A    
C12   C24   A    
C27   C31   A    
C13   C17   A    
O4    V2    S    
O14   V2    S    
C15   H15   S    
C62   C66   A    
C64   H32   S    
C24   C28   A    
C61   C65   A    
C18   H9    S    
C4    O14   A    
C1    C55   S    
C59   C63   A    
C47   C51   A    
C40   H20   S    
C22   H5    S    
C49   H25   S    
C71   C72   T    
