data_str_m2_o10_o13_f0_pcu.sym.152
_audit_creation_date              2012-12-10T16:42:57-0500
_audit_creation_method            fapswitch 2.2
_symmetry_space_group_name_H-M    P1
_symmetry_Int_Tables_number       1
_space_group_crystal_system       triclinic
_cell_length_a                    7.542258
_cell_length_b                    8.728735
_cell_length_c                    12.974484
_cell_angle_alpha                 86.324287
_cell_angle_beta                  77.19353
_cell_angle_gamma                 102.084253
_cell_volume                      808.97336506

loop_
_atom_site_label
_atom_site_type_symbol
_atom_type_description
_atom_site_fract_x
_atom_site_fract_y
_atom_site_fract_z
_atom_type_partial_charge
C1    C     C_R   0.453690 0.200444 0.506141 0.785319
C2    C     C_R   0.546479 0.799624 0.494106 0.929782
C3    C     C_R   0.461957 0.489536 0.702252 0.886876
C4    C     C_R   0.537753 0.508215 0.297750 0.848202
C5    C     C_R   0.563687 0.515930 0.181919 -0.169702
C6    C     C_R   0.436272 0.475892 0.818149 -0.147283
C7    C     C_R   0.264092 0.379182 0.000425 -0.193605
C8    C     C_R   0.736957 0.607373 0.999316 -0.167059
C9    C     C_R   0.269239 0.391493 0.891840 0.373060
C10   C     C_R   0.729150 0.602036 0.107908 0.402037
C11   C     C_R   0.590198 0.546788 0.855700 -0.162176
C12   C     C_R   0.412774 0.437462 0.144514 -0.258754
C13   C     C_R   0.582924 0.534134 0.963611 0.103874
C14   C     C_R   0.419707 0.449066 0.036372 0.092699
C15   C     C_2   0.431953 0.033583 0.526221 -0.264207
C16   C     C_2   0.569157 0.967034 0.475979 -0.216560
Cu1   Cu    Cu3+1 0.686350 0.517570 0.488220 1.048582
Cu2   Cu    Cu3+1 0.313650 0.482430 0.511780 1.047014
H1    H     H_    0.286960 0.369681 0.200127 0.203577
H2    H     H_    0.716989 0.613793 0.800508 0.188128
H3    H     H_    0.138163 0.315834 0.057601 0.199873
H4    H     H_    0.862277 0.671660 0.941980 0.201506
N1    N     N_2   0.033570 0.455950 0.529530 -0.234052
N2    N     N_2   0.966430 0.544050 0.470470 -0.234203
O1    O     O_R   0.621060 0.286250 0.492350 -0.617754
O2    O     O_R   0.378940 0.713750 0.507650 -0.606978
O3    O     O_R   0.306310 0.256580 0.512240 -0.616336
O4    O     O_R   0.693690 0.743420 0.487760 -0.588197
O5    O     O_R   0.631800 0.512400 0.642670 -0.583651
O6    O     O_R   0.368200 0.487600 0.357330 -0.579687
O7    O     O_R   0.317060 0.482730 0.662570 -0.512711
O8    O     O_R   0.682940 0.517270 0.337430 -0.524397
S1    S     S_3+6 0.927278 0.708651 0.145046 0.030821
O9    O     O_2   0.058538 0.815857 0.051446 -0.305058
O10   O     O_2   0.868139 0.806438 0.231590 -0.240681
O11   O     O_3   0.037639 0.579151 0.189078 -0.519662
H5    H     H_    0.171570 0.633050 0.167564 0.392685
S2    S     S_3+6 0.064677 0.298354 0.854309 0.048452
O12   O     O_2   0.980354 0.423079 0.812229 -0.235959
O13   O     O_2   0.112284 0.194812 0.769072 -0.309623
O14   O     O_3   0.905775 0.188019 0.958846 -0.495768
H6    H     H_    0.953940 0.093024 0.971434 0.379680
C17   C     C_2   0.923436 0.302825 0.568672 0.796975
H7    H     H_    0.946795 0.204342 0.525087 0.014334
O15   O     O_2   0.810382 0.278724 0.654556 -0.500185
C18   C     C_2   0.073717 0.699408 0.436396 0.851534
H8    H     H_    0.049448 0.793214 0.484695 -0.018895
O16   O     O_2   0.187685 0.730467 0.350827 -0.547833
C19   C     C_2   0.272839 0.951845 0.616364 0.442221
H9    H     H_    0.138998 0.983722 0.626364 0.104499
O17   O     O_2   0.292596 0.855676 0.683070 -0.512130
C20   C     C_2   0.727973 0.053950 0.387087 0.404545
H10   H     H_    0.708950 0.146650 0.333533 0.098688
O18   O     O_2   0.881995 0.024270 0.374067 -0.511856

loop_
_geom_bond_atom_site_label_1
_geom_bond_atom_site_label_2
_ccdc_geom_bond_type
C8    H4    S    
C17   H7    S    
C1    O1    A    
C8    C13   A    
Cu2   O6    S    
C2    C16   S    
Cu1   O5    S    
O14   H6    S    
Cu2   O2    S    
N1    N2    D    
C3    C6    S    
Cu1   O1    S    
C6    C9    A    
S1    O9    D    
N2    C18   S    
C5    C10   A    
C2    O2    A    
C13   C14   A    
C3    O7    A    
C17   O15   D    
C1    O3    A    
C4    O8    A    
S2    O14   S    
C1    C15   S    
C12   H1    S    
C8    C10   A    
O11   H5    S    
S2    O13   D    
C12   C14   A    
Cu1   Cu2   S    
C10   S1    S    
C15   C19   S    
S2    O12   D    
C18   O16   D    
C11   H2    S    
Cu1   N2    S    
C15   C16   D    
Cu2   N1    S    
C11   C13   A    
S1    O11   S    
N1    C17   S    
C20   H10   S    
C5    C12   A    
C7    C9    A    
C19   H9    S    
C6    C11   A    
C3    O5    A    
Cu1   O8    S    
C18   H8    S    
C9    S2    S    
C2    O4    A    
Cu2   O7    S    
S1    O10   D    
C7    H3    S    
Cu1   O4    S    
C7    C14   A    
C4    O6    A    
Cu2   O3    S    
C16   C20   S    
C20   O18   D    
C4    C5    S    
C19   O17   D    
