data_str_m9_o16_o16_f0_sra.sym.72
_audit_creation_date              2012-12-11T15:06:43-0500
_audit_creation_method            fapswitch 2.2
_symmetry_space_group_name_H-M    P1
_symmetry_Int_Tables_number       1
_space_group_crystal_system       triclinic
_cell_length_a                    7.223529
_cell_length_b                    15.292089
_cell_length_c                    22.387542
_cell_angle_alpha                 90.000018
_cell_angle_beta                  89.999928
_cell_angle_gamma                 89.999927
_cell_volume                      2472.99165714

loop_
_atom_site_label
_atom_site_type_symbol
_atom_type_description
_atom_site_fract_x
_atom_site_fract_y
_atom_site_fract_z
_atom_type_partial_charge
O1    O     O_R   0.390810 0.844810 0.447340 -0.535639
O2    O     O_R   0.109190 0.155190 0.947340 -0.535637
O3    O     O_R   0.890810 0.655190 0.552660 -0.535639
O4    O     O_R   0.609190 0.344810 0.052660 -0.535640
O5    O     O_R   0.720550 0.655820 0.440420 -0.514161
O6    O     O_R   0.779450 0.344180 0.940420 -0.514161
O7    O     O_R   0.220550 0.844180 0.559580 -0.514162
O8    O     O_R   0.279450 0.155820 0.059580 -0.514160
C1    C     C_R   0.552862 0.625008 0.427772 0.712538
C2    C     C_R   0.947138 0.374992 0.927772 0.712538
C3    C     C_R   0.052862 0.874992 0.572228 0.712536
C4    C     C_R   0.447138 0.125008 0.072228 0.712553
O9    O     O_R   0.720530 0.844130 0.440420 -0.542039
O10   O     O_R   0.779470 0.155870 0.940420 -0.542038
O11   O     O_R   0.220530 0.655870 0.559580 -0.542039
O12   O     O_R   0.279470 0.344130 0.059580 -0.542039
O13   O     O_R   0.890830 0.844810 0.552660 -0.546726
O14   O     O_R   0.609170 0.155190 0.052660 -0.546728
O15   O     O_R   0.390830 0.655190 0.447340 -0.546726
O16   O     O_R   0.109170 0.344810 0.947340 -0.546727
C5    C     C_R   0.552555 0.870992 0.424813 0.682074
C6    C     C_R   0.947445 0.129008 0.924813 0.682073
C7    C     C_R   0.052555 0.629008 0.575187 0.682074
C8    C     C_R   0.447445 0.370992 0.075187 0.682073
O17   O     O_3   0.557310 0.749980 0.536820 -0.373851
O18   O     O_3   0.942690 0.250020 0.036820 -0.373852
O19   O     O_3   0.057310 0.750020 0.463180 -0.373851
O20   O     O_3   0.442690 0.249980 0.963180 -0.373851
V1    V     V_3+5 0.832160 0.749980 0.493170 1.479739
V2    V     V_3+5 0.667840 0.250020 0.993170 1.479741
V3    V     V_3+5 0.332160 0.750020 0.506830 1.479738
V4    V     V_3+5 0.167840 0.249980 0.006830 1.479742
C9    C     C_R   0.811813 0.592464 0.861239 -0.193279
C10   C     C_R   0.688189 0.407537 0.361238 -0.193278
C11   C     C_R   0.311803 0.907539 0.138763 -0.193291
C12   C     C_R   0.188182 0.092465 0.638760 -0.193275
H1    H     H_    0.807619 0.717156 0.780356 0.135141
H2    H     H_    0.692386 0.282844 0.280356 0.135141
H3    H     H_    0.307608 0.782846 0.219645 0.135142
H4    H     H_    0.192379 0.217157 0.719643 0.135140
H5    H     H_    0.731476 0.649543 0.873667 0.107715
H6    H     H_    0.768527 0.350457 0.373667 0.107714
H7    H     H_    0.231462 0.850461 0.126334 0.107716
H8    H     H_    0.268516 0.149545 0.626332 0.107714
C13   C     C_R   0.946725 0.452169 0.887452 -0.100452
C14   C     C_R   0.553276 0.547830 0.387452 -0.100454
C15   C     C_R   0.446723 0.047830 0.112548 -0.100447
C16   C     C_R   0.053274 0.952169 0.612548 -0.100453
C17   C     C_R   0.105731 0.476465 0.601740 -0.146122
C18   C     C_R   0.394266 0.523534 0.101740 -0.146122
C19   C     C_R   0.605736 0.023534 0.398259 -0.146121
C20   C     C_R   0.894270 0.976465 0.898260 -0.146120
C21   C     C_R   0.117552 0.406691 0.641153 -0.135170
C22   C     C_R   0.382445 0.593309 0.141153 -0.135170
C23   C     C_R   0.617558 0.093309 0.358847 -0.135170
C24   C     C_R   0.882451 0.906690 0.858847 -0.135170
C25   C     C_R   0.080032 0.418536 0.701452 -0.128556
C26   C     C_R   0.419966 0.581464 0.201452 -0.128556
C27   C     C_R   0.580036 0.081463 0.298548 -0.128556
C28   C     C_R   0.919972 0.918535 0.798548 -0.128556
C29   C     C_R   0.031708 0.501269 0.724447 0.058716
C30   C     C_R   0.468292 0.498730 0.224447 0.058715
C31   C     C_R   0.531708 0.998731 0.275552 0.058715
C32   C     C_R   0.968294 0.001269 0.775553 0.058716
C33   C     C_R   0.008924 0.572877 0.683583 0.015237
C34   C     C_R   0.491077 0.427123 0.183583 0.015236
C35   C     C_R   0.508922 0.927124 0.316417 0.015237
C36   C     C_R   0.991077 0.072876 0.816417 0.015236
C37   C     C_R   0.990349 0.512401 0.786649 0.025231
C38   C     C_R   0.509652 0.487600 0.286649 0.025231
C39   C     C_R   0.490346 0.987600 0.213351 0.025233
C40   C     C_R   0.009652 0.012400 0.713351 0.025231
C41   C     C_R   0.889946 0.587113 0.804182 0.042434
C42   C     C_R   0.610056 0.412887 0.304181 0.042434
C43   C     C_R   0.389939 0.912888 0.195819 0.042438
C44   C     C_R   0.110053 0.087113 0.695818 0.042433
C45   C     C_R   0.872895 0.657326 0.765221 -0.138941
C46   C     C_R   0.627109 0.342674 0.265221 -0.138941
C47   C     C_R   0.372887 0.842675 0.234780 -0.138943
C48   C     C_R   0.127104 0.157327 0.734779 -0.138939
C49   C     C_R   0.943650 0.653514 0.707464 0.157718
C50   C     C_R   0.556354 0.346486 0.207464 0.157718
C51   C     C_R   0.443644 0.846486 0.292536 0.157718
C52   C     C_R   0.056350 0.153514 0.792535 0.157719
C53   C     C_R   0.042803 0.452337 0.832252 -0.141759
C54   C     C_R   0.457197 0.547663 0.332253 -0.141760
C55   C     C_R   0.542803 0.047662 0.167747 -0.141765
C56   C     C_R   0.957198 0.952336 0.667748 -0.141759
C57   C     C_R   0.829938 0.523223 0.901649 0.218223
C58   C     C_R   0.670063 0.476776 0.401649 0.218224
C59   C     C_R   0.329930 0.976778 0.098352 0.218220
C60   C     C_R   0.170056 0.023225 0.598350 0.218223
C61   C     C_R   0.050439 0.559437 0.621314 -0.071263
C62   C     C_R   0.449561 0.440563 0.121314 -0.071263
C63   C     C_R   0.550439 0.940563 0.378686 -0.071264
C64   C     C_R   0.949562 0.059437 0.878686 -0.071261
H9    H     H_    0.138378 0.465375 0.555076 0.112313
H10   H     H_    0.361618 0.534624 0.055077 0.112312
H11   H     H_    0.638385 0.034624 0.444923 0.112314
H12   H     H_    0.861623 0.965375 0.944924 0.112308
H13   H     H_    0.080858 0.361102 0.729346 0.142841
H14   H     H_    0.419139 0.638898 0.229346 0.142841
H15   H     H_    0.580863 0.138898 0.270653 0.142841
H16   H     H_    0.919146 0.861101 0.770654 0.142841
H17   H     H_    0.155065 0.342482 0.624734 0.113449
H18   H     H_    0.344930 0.657517 0.124734 0.113450
H19   H     H_    0.655074 0.157517 0.375265 0.113450
H20   H     H_    0.844939 0.842482 0.875266 0.113449
N1    N     N_3   0.736236 0.526223 0.958336 -0.648552
H21   H     H_    0.836902 0.534211 0.991448 0.209817
H22   H     H_    0.649167 0.580740 0.960770 0.216036
N2    N     N_3   0.763762 0.473776 0.458336 -0.648549
H23   H     H_    0.663093 0.465790 0.491448 0.209815
H24   H     H_    0.850825 0.419257 0.460771 0.216035
N3    N     N_3   0.236226 0.973780 0.041666 -0.648560
H25   H     H_    0.336886 0.965764 0.008555 0.209820
H26   H     H_    0.149114 0.919279 0.039239 0.216041
N4    N     N_3   0.263751 0.026226 0.541662 -0.648556
H27   H     H_    0.163081 0.034206 0.508550 0.209819
H28   H     H_    0.350803 0.080748 0.539226 0.216036
C65   C     C_1   0.218761 0.407456 0.828016 0.338591
N5    N     N_1   0.360803 0.372719 0.824634 -0.337533
C66   C     C_1   0.281239 0.592544 0.328016 0.338593
N6    N     N_1   0.139197 0.627279 0.324635 -0.337533
C67   C     C_1   0.718762 0.092542 0.171984 0.338588
N7    N     N_1   0.860804 0.127278 0.175364 -0.337533
C68   C     C_1   0.781240 0.907455 0.671985 0.338593
N8    N     N_1   0.639198 0.872719 0.675366 -0.337534
N9    N     N_3   0.946553 0.733714 0.675379 -0.693086
H29   H     H_    0.079488 0.745009 0.658777 0.217404
H30   H     H_    0.845971 0.731884 0.642149 0.261914
N10   N     N_3   0.553453 0.266286 0.175379 -0.693085
H31   H     H_    0.420518 0.254990 0.158776 0.217401
H32   H     H_    0.654034 0.268117 0.142149 0.261915
N11   N     N_3   0.446546 0.766286 0.324621 -0.693085
H33   H     H_    0.579481 0.754991 0.341223 0.217402
H34   H     H_    0.345965 0.768117 0.357851 0.261915
N12   N     N_3   0.053446 0.233715 0.824621 -0.693086
H35   H     H_    0.920511 0.245009 0.841223 0.217404
H36   H     H_    0.154027 0.231884 0.857851 0.261913

loop_
_geom_bond_atom_site_label_1
_geom_bond_atom_site_label_2
_ccdc_geom_bond_type
O17   V3    S    
C39   C43   A    
C26   C30   A    
O1    C5    A    
C23   C27   A    
O19   V1    S    
O13   V1    S    
O3    C7    A    
C10   H6    S    
C21   H17   S    
C58   N2    S    
C40   C44   A    
O15   V3    S    
N2    H24   S    
C14   C54   A    
C66   N6    T    
C11   C59   A    
O7    C3    A    
C11   C43   A    
O5    C1    A    
C36   C64   A    
C32   C36   A    
O9    V1    S    
C56   C68   S    
C9    C57   A    
N1    H22   S    
O16   V4    S    
O4    C8    A    
C25   H13   S    
N3    H25   S    
C57   N1    S    
O1    V3    S    
C30   C38   A    
O2    V4    S    
C25   C29   A    
O3    V1    S    
C60   N4    S    
N4    H27   S    
C24   H20   S    
C12   C44   A    
C49   N9    S    
C1    O15   A    
C2    O16   A    
N10   H31   S    
N3    H26   S    
C19   C63   A    
O2    C6    A    
C16   C56   A    
C53   C65   S    
C26   H14   S    
C11   H7    S    
C51   N11   S    
C48   C52   A    
C34   C62   A    
C12   C60   A    
O11   C7    A    
C52   N12   S    
C1    C14   S    
O12   C8    A    
C35   C63   A    
C3    C16   S    
C15   C59   A    
O10   V2    S    
C4    C15   S    
N2    H23   S    
C40   C56   A    
O5    V1    S    
C19   H11   S    
C31   C35   A    
C18   H10   S    
O7    V3    S    
C22   H18   S    
O8    V4    S    
N11   H33   S    
C30   C34   A    
O18   V4    S    
C18   C62   A    
H2    C46   S    
H1    C45   S    
C20   H12   S    
C7    C61   S    
C23   H19   S    
C36   C52   A    
C13   C53   A    
C10   C58   A    
C38   C42   A    
C8    C62   S    
C34   C50   A    
C46   C50   A    
C33   C49   A    
C45   C49   A    
O8    C4    A    
C2    C13   S    
H4    C48   S    
O9    C5    A    
C18   C22   A    
C35   C51   A    
C37   C41   A    
C65   N5    T    
N12   H36   S    
C10   C42   A    
C39   C55   A    
C9    C41   A    
O6    V2    S    
C31   C39   A    
C16   C60   A    
C67   N7    T    
C12   H8    S    
C50   N10   S    
C68   N8    T    
C38   C54   A    
C55   C67   S    
C37   C53   A    
N9    H29   S    
C22   C26   A    
C29   C37   A    
N11   H34   S    
C3    O13   A    
C21   C25   A    
C13   C57   A    
C6    C64   S    
C44   C48   A    
O6    C2    A    
O11   V3    S    
C14   C58   A    
O12   V4    S    
C5    C63   S    
C27   C31   A    
C28   C32   A    
C27   H15   S    
O10   C6    A    
O20   V2    S    
C9    H5    S    
N1    H21   S    
C47   C51   A    
C17   C21   A    
C33   C61   A    
C59   N3    S    
C20   C64   A    
C19   C23   A    
C32   C40   A    
N4    H28   S    
N12   H35   S    
O14   V2    S    
C17   H9    S    
C29   C33   A    
C24   C28   A    
N10   H32   S    
C42   C46   A    
C4    O14   A    
C54   C66   S    
C41   C45   A    
C17   C61   A    
C28   H16   S    
C43   C47   A    
O4    V2    S    
C20   C24   A    
H3    C47   S    
N9    H30   S    
C15   C55   A    
