data_str_m2_o14_o17_f0_pcu.sym.25
_audit_creation_date              2012-10-26T20:40:14-0400
_audit_creation_method            fapswitch 2.2
_symmetry_space_group_name_H-M    P1
_symmetry_Int_Tables_number       1
_space_group_crystal_system       triclinic
_cell_length_a                    15.036925
_cell_length_b                    10.781286
_cell_length_c                    9.617424
_cell_angle_alpha                 89.912855
_cell_angle_beta                  90.692252
_cell_angle_gamma                 92.621713
_cell_volume                      1557.40530363

loop_
_atom_site_label
_atom_site_type_symbol
_atom_type_description
_atom_site_fract_x
_atom_site_fract_y
_atom_site_fract_z
_atom_type_partial_charge
C1    C     C_R   0.497126 0.262611 0.500059 0.571235
C2    C     C_R   0.184915 0.444489 0.609237 -0.149247
C3    C     C_R   0.232076 0.500653 0.499337 -0.016207
C4    C     C_R   0.328854 0.499642 0.499458 0.529513
C5    C     C_R   0.186943 0.560439 0.392129 -0.139381
C6    C     C_R   0.359781 0.118241 0.651390 -0.161522
C7    C     C_R   0.296216 0.048371 0.726318 -0.079301
C8    C     C_R   0.295658 0.918892 0.727289 0.280902
C9    C     C_R   0.358973 0.860320 0.645932 -0.096371
C10   C     C_R   0.426693 0.929322 0.575700 -0.021358
C11   C     C_R   0.427076 0.060058 0.577338 -0.031545
C12   C     C_R   0.907854 0.563344 0.394126 0.011979
C13   C     C_R   0.492567 0.128205 0.499874 0.014289
C14   C     C_R   0.554894 0.067379 0.419804 0.235569
C15   C     C_R   0.552871 0.938720 0.417961 -0.136999
C16   C     C_R   0.498217 0.737048 0.499682 0.525413
C17   C     C_R   0.492015 0.870341 0.498678 -0.034668
C18   C     C_R   0.617777 0.666021 0.145390 -0.090575
C19   C     C_R   0.675624 0.746724 0.074178 -0.174027
C20   C     C_R   0.676060 0.745991 0.930889 -0.163862
C21   C     C_R   0.618487 0.664787 0.857924 -0.082660
C22   C     C_R   0.558122 0.581156 0.926121 0.152909
C23   C     C_R   0.952238 0.397058 0.726266 -0.139712
C24   C     C_R   0.557929 0.581426 0.075551 0.159501
C25   C     C_R   0.444703 0.422740 0.072909 -0.002104
C26   C     C_R   0.444561 0.422986 0.925147 -0.006137
C27   C     C_R   0.671148 0.501201 0.500892 0.534111
C28   C     C_R   0.815175 0.559971 0.393158 -0.151105
C29   C     C_R   0.768014 0.504742 0.503439 -0.019019
C30   C     C_R   0.813434 0.453207 0.616159 -0.145908
C31   C     C_R   0.906198 0.453051 0.617063 0.003252
C32   C     C_R   0.953620 0.508032 0.505353 0.059752
C33   C     C_3   0.251786 0.734272 0.841557 0.015730
C34   C     C_R   0.044876 0.394050 0.724003 -0.135375
C35   C     C_3   0.189106 0.684810 0.954258 -0.256947
C36   C     C_3   0.214742 0.556162 0.003061 -0.490608
C37   C     C_3   0.700621 0.131256 0.393784 0.008981
C38   C     C_3   0.764857 0.206895 0.301297 -0.246259
C39   C     C_3   0.860761 0.201336 0.353890 -0.481525
C40   C     C_R   0.092460 0.448149 0.613233 0.015100
C41   C     C_R   0.046829 0.506707 0.504145 0.063729
C42   C     C_R   0.094278 0.563482 0.393474 0.013659
C43   C     C_R   0.048183 0.622345 0.286430 -0.138492
C44   C     C_R   0.955485 0.620950 0.285748 -0.136999
Cu1   Cu    Cu3+1 0.499990 0.499990 0.640660 0.899012
Cu2   Cu    Cu3+1 0.500010 0.500010 0.359340 0.943080
H1    H     H_    0.779788 0.601284 0.307251 0.112598
H2    H     H_    0.624320 0.671739 0.748361 0.184472
H3    H     H_    0.776499 0.410261 0.701089 0.127633
H4    H     H_    0.398926 0.359925 0.869411 0.108986
H5    H     H_    0.916548 0.354465 0.812531 0.109858
H6    H     H_    0.079285 0.349380 0.808686 0.107329
H7    H     H_    0.220344 0.397198 0.690965 0.102338
H8    H     H_    0.224079 0.605742 0.308965 0.124255
H9    H     H_    0.083582 0.668967 0.202898 0.107782
H10   H     H_    0.921065 0.665176 0.200742 0.110274
H11   H     H_    0.321321 0.733832 0.883444 0.143615
H12   H     H_    0.354362 0.217816 0.651035 0.129561
H13   H     H_    0.243615 0.671055 0.750704 0.152455
H14   H     H_    0.192461 0.749632 0.044057 0.167956
H15   H     H_    0.119728 0.679061 0.912702 0.177123
H16   H     H_    0.218537 0.491992 0.913663 0.142245
H17   H     H_    0.164080 0.516696 0.075481 0.147528
H18   H     H_    0.280288 0.562523 0.057565 0.158003
H19   H     H_    0.723103 0.034321 0.399367 0.115908
H20   H     H_    0.702546 0.172720 0.500020 0.128869
H21   H     H_    0.760539 0.170068 0.193395 0.171760
H22   H     H_    0.745543 0.305072 0.298836 0.193099
H23   H     H_    0.246197 0.095674 0.783404 0.123357
H24   H     H_    0.866100 0.231046 0.464162 0.162661
H25   H     H_    0.904758 0.264049 0.290547 0.156998
H26   H     H_    0.883682 0.105190 0.345197 0.146092
H27   H     H_    0.353909 0.761026 0.634263 0.126572
H28   H     H_    0.600277 0.891902 0.354909 0.112678
H29   H     H_    0.399208 0.359475 0.127142 0.120437
H30   H     H_    0.623212 0.674047 0.255023 0.172408
H31   H     H_    0.720597 0.810178 0.130962 0.112280
H32   H     H_    0.721384 0.808868 0.875522 0.119149
N1    N     N_R   0.500860 0.501210 0.147910 -0.243213
N2    N     N_R   0.500890 0.501290 0.852040 -0.246441
O1    O     O_R   0.499990 0.319640 0.618810 -0.512899
O2    O     O_3   0.613995 0.134400 0.335897 -0.545274
O3    O     O_R   0.500000 0.319660 0.381240 -0.449287
O4    O     O_R   0.370250 0.499960 0.618800 -0.527161
O5    O     O_R   0.370260 0.499980 0.381230 -0.505293
O6    O     O_R   0.500000 0.680340 0.618760 -0.528311
O7    O     O_R   0.500010 0.680360 0.381190 -0.517443
O8    O     O_R   0.629740 0.500020 0.618770 -0.519527
O9    O     O_R   0.629750 0.500040 0.381200 -0.516653
O10   O     O_3   0.228879 0.855524 0.802535 -0.574578

loop_
_geom_bond_atom_site_label_1
_geom_bond_atom_site_label_2
_ccdc_geom_bond_type
C5    C42   A    
C28   H1    S    
C27   C29   S    
C41   C42   A    
C6    H12   S    
C35   C36   S    
C7    C8    A    
Cu2   O9    S    
Cu1   Cu2   S    
C29   C30   A    
C12   C28   A    
C34   C40   A    
C21   C22   A    
C28   C29   A    
C26   H4    S    
C38   C39   S    
C10   C17   A    
C1    O1    A    
C18   C19   A    
C19   H31   S    
Cu2   N1    S    
C19   C20   A    
C8    C9    A    
C37   H19   S    
C16   O7    A    
C18   H30   S    
C32   C41   A    
C27   O9    A    
C18   C24   A    
C36   H17   S    
C9    C10   A    
C21   H2    S    
C33   H13   S    
C13   C14   A    
C12   C32   A    
C16   O6    A    
C9    H27   S    
C36   H16   S    
C5    H8    S    
Cu1   O8    S    
C6    C11   A    
C16   C17   S    
C4    O5    A    
C25   C26   A    
C26   N2    A    
C35   H14   S    
C25   H29   S    
C23   C31   A    
C43   C44   A    
C37   C38   S    
C44   H10   S    
C24   N1    A    
C23   H5    S    
C31   C32   A    
C4    O4    A    
C39   H26   S    
C23   C34   A    
C37   H20   S    
C35   H15   S    
C38   H21   S    
C43   H9    S    
C40   C41   A    
C30   H3    S    
C38   H22   S    
C22   C24   A    
C37   O2    S    
Cu1   O4    S    
C8    O10   S    
C42   C43   A    
C14   O2    S    
C3    C4    S    
Cu2   O7    S    
C15   C17   A    
C33   H11   S    
C25   N1    A    
Cu1   O1    S    
C3    C5    A    
C2    H7    S    
C7    H23   S    
C6    C7    A    
C1    O3    A    
C34   H6    S    
C20   H32   S    
Cu2   O5    S    
C2    C3    A    
C22   N2    A    
C12   C44   A    
C33   O10   S    
C11   C13   A    
C30   C31   A    
C33   C35   S    
C39   H24   S    
Cu1   O6    S    
Cu1   N2    S    
C27   O8    A    
C10   C11   A    
Cu2   O3    S    
C2    C40   A    
C15   H28   S    
C1    C13   S    
C20   C21   A    
C39   H25   S    
C14   C15   A    
C36   H18   S    
