data_str_m3_o10_o15_f0_pcu.sym.70
_audit_creation_date              2013-03-05T15:40:34-0500
_audit_creation_method            fapswitch 2.2
_symmetry_space_group_name_H-M    P1
_symmetry_Int_Tables_number       1
_space_group_crystal_system       triclinic
_cell_length_a                    7.694764
_cell_length_b                    8.566964
_cell_length_c                    10.917801
_cell_angle_alpha                 91.261264
_cell_angle_beta                  86.581701
_cell_angle_gamma                 93.721501
_cell_volume                      716.795492636

loop_
_atom_site_label
_atom_site_type_symbol
_atom_site_description
_atom_site_fract_x
_atom_site_fract_y
_atom_site_fract_z
_atom_type_partial_charge
O1    O     O_R   0.389250 0.738570 0.508280 -0.596677
O2    O     O_R   0.610750 0.261430 0.491720 -0.596671
O3    O     O_R   0.678390 0.711630 0.486650 -0.627919
O4    O     O_R   0.321610 0.288370 0.513350 -0.627892
C1    C     C_R   0.546045 0.795022 0.496751 0.983851
C2    C     C_R   0.453955 0.204978 0.503246 0.983867
O5    O     O_R   0.355430 0.513480 0.694040 -0.639388
O6    O     O_R   0.644570 0.486520 0.305960 -0.639395
O7    O     O_R   0.644570 0.486540 0.672410 -0.594196
O8    O     O_R   0.355430 0.513460 0.327590 -0.594277
C3    C     C_R   0.503861 0.504725 0.739939 0.917278
C4    C     C_R   0.496142 0.495301 0.260065 0.917280
Zn1   Zn    Zn3+2 0.306940 0.517990 0.514440 0.992390
Zn2   Zn    Zn3+2 0.693060 0.482010 0.485560 0.992397
H1    H     H_    0.062776 0.353992 0.882943 0.208561
H2    H     H_    0.937248 0.646166 0.117120 0.208539
C5    C     C_R   0.211284 0.618863 0.891351 -0.133159
C6    C     C_R   0.788737 0.381272 0.108670 -0.132981
C7    C     C_R   0.041914 0.586269 0.944577 -0.213214
C8    C     C_R   0.958114 0.413894 0.055468 -0.213239
C9    C     C_R   0.030355 0.568982 0.072890 -0.145970
C10   C     C_R   0.969670 0.431186 0.927157 -0.145971
C11   C     C_R   0.190021 0.590911 0.132632 0.375758
C12   C     C_R   0.810014 0.409268 0.867403 0.375685
C13   C     C_R   0.345647 0.540466 0.069856 -0.001040
C14   C     C_R   0.654371 0.459660 0.930165 -0.001011
C15   C     C_R   0.356067 0.553985 0.942508 0.044835
C16   C     C_R   0.643946 0.446128 0.057510 0.044794
C17   C     C_R   0.492331 0.490724 0.127730 -0.190253
C18   C     C_R   0.507679 0.509356 0.872282 -0.190259
H3    H     H_    0.227580 0.696225 0.813738 0.169370
H4    H     H_    0.772403 0.303790 0.186241 0.169326
H5    H     H_    0.958760 0.673695 0.913044 0.164410
H6    H     H_    0.041277 0.326473 0.087004 0.164390
C19   C     C_2   0.570517 0.958352 0.494955 -0.328983
C20   C     C_2   0.429482 0.041647 0.505038 -0.328958
H7    H     H_    0.703663 0.009529 0.485449 0.194440
H8    H     H_    0.296337 0.990470 0.514542 0.194457
N1    N     N_2   0.950330 0.457950 0.466250 -0.142567
N2    N     N_2   0.049670 0.542050 0.533750 -0.142572
H9    H     H_    0.014835 0.384823 0.405602 0.188838
H10   H     H_    0.985171 0.615188 0.594384 0.188848
Cl1   Cl    Cl    0.208687 0.760706 0.228557 -0.626377
Cl2   Cl    Cl    0.791365 0.239497 0.771480 -0.626346

loop_
_geom_bond_atom_site_label_1
_geom_bond_atom_site_label_2
_geom_bond_distance
_ccdc_geom_bond_type
O1    Zn1   1.954936 S    
O7    Zn2   2.051807 S    
H2    C9    1.090816 S    
C4    C17   1.446468 S    
C13   C15   1.394826 A    
C14   C16   1.394804 A    
C19   C20   1.334868 D    
O6    C4    1.281493 A    
C8    H6    1.090313 S    
C20   H8    1.087956 S    
C6    C16   1.424856 A    
N1    H9    1.029651 S    
C15   C18   1.425955 A    
O5    C3    1.281506 A    
O7    C3    1.289096 A    
O2    C2    1.270513 A    
O3    Zn2   1.977418 S    
O8    C4    1.289059 A    
O1    C1    1.270512 A    
C1    C19   1.400107 S    
N2    H10   1.029595 S    
C16   C17   1.425861 A    
C19   H7    1.087956 S    
C12   Cl2   1.776648 S    
C2    C20   1.400110 S    
C14   C18   1.419158 A    
C6    C8    1.408443 A    
C11   C13   1.430666 A    
C9    C11   1.424915 A    
C13   C17   1.419201 A    
O2    Zn2   1.954936 S    
C10   C12   1.424907 A    
C6    H4    1.083919 S    
C8    C10   1.408849 A    
C5    C15   1.424876 A    
O3    C1    1.279531 A    
O5    Zn1   2.019418 S    
C7    C10   1.419842 A    
C11   Cl1   1.776830 S    
C8    C9    1.419875 A    
O4    C2    1.279531 A    
C7    H5    1.090281 S    
N1    N2    1.272322 D    
Zn1   N2    2.001790 S    
O6    Zn2   2.019418 S    
C5    C7    1.408453 A    
Zn2   N1    2.001790 S    
H1    C10   1.090798 S    
C5    H3    1.083626 S    
O4    Zn1   1.977418 S    
C3    C18   1.446571 S    
C12   C14   1.430544 A    
C7    C9    1.408874 A    
O8    Zn1   2.051807 S    
