data_str_m9_o16_o27_f0_sra.sym.87
_audit_creation_date              2012-12-11T15:16:47-0500
_audit_creation_method            fapswitch 2.2
_symmetry_space_group_name_H-M    P1
_symmetry_Int_Tables_number       1
_space_group_crystal_system       triclinic
_cell_length_a                    25.189044
_cell_length_b                    7.224735
_cell_length_c                    21.873093
_cell_angle_alpha                 89.999265
_cell_angle_beta                  110.404134
_cell_angle_gamma                 89.999984
_cell_volume                      3730.80391292

loop_
_atom_site_label
_atom_site_type_symbol
_atom_type_description
_atom_site_fract_x
_atom_site_fract_y
_atom_site_fract_z
_atom_type_partial_charge
O1    O     O_R   0.554350 0.505270 0.581390 -0.520317
O2    O     O_R   0.445650 0.005270 0.418610 -0.520319
O3    O     O_R   0.553380 0.177580 0.454800 -0.534535
O4    O     O_R   0.446620 0.677580 0.545200 -0.534535
C1    C     C_R   0.566907 0.345795 0.439337 0.724617
C2    C     C_R   0.433093 0.845794 0.560663 0.724615
O5    O     O_R   0.560970 0.175640 0.583140 -0.533318
O6    O     O_R   0.439030 0.675640 0.416860 -0.533317
O7    O     O_R   0.453290 0.004120 0.547860 -0.528860
O8    O     O_R   0.546710 0.504120 0.452140 -0.528862
C3    C     C_R   0.575830 0.343673 0.608164 0.801171
C4    C     C_R   0.424170 0.843675 0.391836 0.801168
O9    O     O_3   0.464660 0.338800 0.488280 -0.381997
O10   O     O_3   0.535340 0.838800 0.511720 -0.381998
V1    V     V_3+5 0.506560 0.064420 0.502170 1.529494
V2    V     V_3+5 0.493440 0.564420 0.497830 1.529491
C5    C     C_R   0.148825 0.975225 0.290525 0.292215
C6    C     C_R   0.851174 0.475240 0.709475 0.292214
H1    H     H_    0.063565 0.006312 0.222822 0.112139
H2    H     H_    0.936433 0.506329 0.777177 0.112140
H3    H     H_    0.236614 0.946224 0.403962 0.162503
H4    H     H_    0.763385 0.446243 0.596038 0.162503
C7    C     C_R   0.121009 0.941173 0.172938 -0.074853
C8    C     C_R   0.878991 0.441180 0.827062 -0.074854
C9    C     C_R   0.397147 0.819410 0.270041 0.397387
C10   C     C_R   0.602854 0.319394 0.729959 0.397383
C11   C     C_R   0.355116 0.798494 0.207605 0.235012
C12   C     C_R   0.644884 0.298474 0.792395 0.235008
C13   C     C_R   0.298017 0.824277 0.199213 -0.248679
C14   C     C_R   0.701983 0.324263 0.800786 -0.248680
C15   C     C_R   0.279983 0.867828 0.251576 0.050346
C16   C     C_R   0.720017 0.367823 0.748424 0.050347
C17   C     C_R   0.321786 0.872108 0.315555 0.010332
C18   C     C_R   0.678214 0.372105 0.684445 0.010332
C19   C     C_R   0.221387 0.901715 0.242406 0.060129
C20   C     C_R   0.778613 0.401716 0.757594 0.060129
C21   C     C_R   0.205913 0.935677 0.298098 0.101925
C22   C     C_R   0.794087 0.435686 0.701903 0.101922
C23   C     C_R   0.247501 0.927761 0.360633 -0.183813
C24   C     C_R   0.752498 0.427773 0.639367 -0.183811
C25   C     C_R   0.304050 0.896546 0.369137 -0.178807
C26   C     C_R   0.695950 0.396552 0.630863 -0.178808
C27   C     C_R   0.177644 0.905730 0.179838 -0.222210
C28   C     C_R   0.822356 0.405730 0.820163 -0.222209
C29   C     C_R   0.107117 0.975925 0.228209 -0.235703
C30   C     C_R   0.892881 0.475939 0.771791 -0.235700
C31   C     C_R   0.380414 0.848837 0.324938 -0.253608
C32   C     C_R   0.619587 0.348830 0.675062 -0.253609
H5    H     H_    0.186049 0.885522 0.135278 0.104667
H6    H     H_    0.813951 0.385515 0.864722 0.104668
H7    H     H_    0.268290 0.802456 0.150688 0.148884
H8    H     H_    0.731711 0.302439 0.849313 0.148883
H9    H     H_    0.333900 0.890722 0.418548 0.080694
H10   H     H_    0.666100 0.390730 0.581452 0.080694
C33   C     C_R   0.122353 0.762867 0.884451 -0.160330
C34   C     C_R   0.877647 0.262865 0.115551 -0.160331
H11   H     H_    0.108958 0.635362 0.900708 0.124920
H12   H     H_    0.891042 0.135361 0.099294 0.124919
C35   C     C_R   0.157637 0.751235 0.847291 -0.139546
C36   C     C_R   0.842363 0.251233 0.152710 -0.139546
H13   H     H_    0.170157 0.615603 0.836147 0.134469
H14   H     H_    0.829843 0.115601 0.163856 0.134470
C37   C     C_R   0.176052 0.912062 0.824443 0.020846
C38   C     C_R   0.823948 0.412060 0.175558 0.020846
C39   C     C_R   0.158582 0.085093 0.840366 -0.134449
C40   C     C_R   0.841418 0.585091 0.159633 -0.134450
H15   H     H_    0.171961 0.212168 0.823818 0.139707
H16   H     H_    0.828040 0.712165 0.176181 0.139706
C41   C     C_R   0.123383 0.096848 0.877726 -0.162186
C42   C     C_R   0.876617 0.596846 0.122274 -0.162185
H17   H     H_    0.110632 0.232492 0.888552 0.121374
H18   H     H_    0.889368 0.732490 0.111447 0.121375
C43   C     C_R   0.104505 0.935814 0.900086 -0.046895
C44   C     C_R   0.895496 0.435812 0.099914 -0.046895
N1    N     N_R   0.227909 0.054562 0.758815 -0.280494
N2    N     N_R   0.772092 0.554561 0.241185 -0.280495
N3    N     N_R   0.260647 0.044043 0.722445 -0.284050
N4    N     N_R   0.739354 0.544043 0.277554 -0.284050
C45   C     C_R   0.279949 0.878204 0.709452 0.539471
C46   C     C_R   0.720051 0.378205 0.290549 0.539472
N5    N     N_R   0.264970 0.722933 0.734621 -0.275385
N6    N     N_R   0.735030 0.222934 0.265380 -0.275385
N7    N     N_R   0.232109 0.733438 0.770980 -0.283425
N8    N     N_R   0.767891 0.233437 0.229022 -0.283424
C47   C     C_R   0.212875 0.899596 0.783966 0.512357
C48   C     C_R   0.787126 0.399595 0.216035 0.512356
C49   C     C_R   0.340898 0.701174 0.658953 -0.127473
C50   C     C_R   0.659102 0.201177 0.341049 -0.127451
H19   H     H_    0.331794 0.573212 0.679134 0.157296
H20   H     H_    0.668206 0.073215 0.320868 0.157300
C51   C     C_R   0.377393 0.696406 0.623058 -0.155144
C52   C     C_R   0.622606 0.196408 0.376943 -0.155118
H21   H     H_    0.394824 0.564401 0.616791 0.198921
H22   H     H_    0.605176 0.064404 0.383210 0.198926
C53   C     C_R   0.391916 0.858564 0.596582 -0.098802
C54   C     C_R   0.608084 0.358566 0.403417 -0.098813
C55   C     C_R   0.366194 0.028167 0.605532 0.324813
C56   C     C_R   0.633806 0.528168 0.394467 0.324808
C57   C     C_R   0.329729 0.030165 0.641491 -0.139275
C58   C     C_R   0.670271 0.530167 0.358508 -0.139287
H23   H     H_    0.311527 0.161309 0.648052 0.153171
H24   H     H_    0.688473 0.661310 0.351946 0.153175
C59   C     C_R   0.317142 0.868778 0.669313 -0.050447
C60   C     C_R   0.682858 0.368780 0.330687 -0.050459
O11   O     O_R   0.953220 0.285790 0.047790 -0.538191
O12   O     O_R   0.046780 0.785790 0.952210 -0.538191
O13   O     O_R   0.939020 0.617570 0.916840 -0.533266
O14   O     O_R   0.060980 0.117570 0.083160 -0.533265
C61   C     C_R   0.923930 0.448622 0.892247 0.702149
C62   C     C_R   0.076070 0.948619 0.107753 0.702150
O15   O     O_R   0.946600 0.615450 0.045180 -0.541286
O16   O     O_R   0.053400 0.115450 0.954820 -0.541287
O17   O     O_R   0.054370 0.786770 0.081410 -0.531594
O18   O     O_R   0.945630 0.286770 0.918590 -0.531593
C63   C     C_R   0.934288 0.446760 0.061661 0.675491
C64   C     C_R   0.065712 0.946761 0.938339 0.675491
O19   O     O_3   0.035300 0.454160 0.011680 -0.373424
O20   O     O_3   0.964700 0.954160 0.988320 -0.373424
V3    V     V_3+5 0.993450 0.728620 0.997830 1.409832
V4    V     V_3+5 0.006550 0.228620 0.002170 1.409831
N9    N     N_2   0.375989 0.201138 0.580346 -0.522662
H25   H     H_    0.417440 0.242148 0.592558 0.331278
C65   C     C_3   0.339921 0.242683 0.514291 -0.552689
H26   H     H_    0.344040 0.391494 0.504091 0.198092
H27   H     H_    0.294844 0.214093 0.507429 0.195443
H28   H     H_    0.352886 0.159685 0.479320 0.194321
N10   N     N_2   0.624010 0.701139 0.419651 -0.522658
H29   H     H_    0.582559 0.742148 0.407440 0.331280
C66   C     C_3   0.660079 0.742683 0.485706 -0.552694
H30   H     H_    0.655960 0.891494 0.495904 0.198091
H31   H     H_    0.705155 0.714089 0.492568 0.195444
H32   H     H_    0.647113 0.659688 0.520678 0.194323
N11   N     N_2   0.132936 0.015859 0.345504 -0.533107
H33   H     H_    0.093024 0.969004 0.340896 0.260807
C67   C     C_3   0.141076 0.207497 0.365897 -0.551405
H34   H     H_    0.112759 0.298315 0.327151 0.199573
H35   H     H_    0.185789 0.250148 0.376592 0.204304
H36   H     H_    0.130832 0.225416 0.410970 0.206189
N12   N     N_2   0.867063 0.515875 0.654495 -0.533108
H37   H     H_    0.906974 0.469016 0.659103 0.260807
C68   C     C_3   0.858923 0.707514 0.634102 -0.551405
H38   H     H_    0.887246 0.798328 0.672844 0.199572
H39   H     H_    0.814212 0.750175 0.623414 0.204304
H40   H     H_    0.869162 0.725429 0.589024 0.206190
S1    S     S_3+6 0.470485 0.810198 0.279780 -0.040406
O21   O     O_2   0.503192 0.943872 0.331769 -0.368580
O22   O     O_2   0.491768 0.617223 0.299697 -0.354428
O23   O     O_3   0.482107 0.866554 0.210920 -0.508073
H41   H     H_    0.523455 0.851475 0.221629 0.370893
S2    S     S_3+6 0.529516 0.310179 0.720219 -0.040410
O24   O     O_2   0.496810 0.443862 0.668232 -0.368619
O25   O     O_2   0.508232 0.117208 0.700301 -0.354391
O26   O     O_3   0.517893 0.366523 0.789080 -0.508077
H42   H     H_    0.476535 0.351657 0.778347 0.370899
N13   N     N_2   0.368504 0.738392 0.152646 -0.499947
H43   H     H_    0.403544 0.654719 0.162015 0.319008
C69   C     C_3   0.361328 0.875554 0.102147 -0.429033
H44   H     H_    0.372249 0.813763 0.061571 0.196437
H45   H     H_    0.389404 0.996252 0.121821 0.234138
H46   H     H_    0.316665 0.923333 0.082236 0.175865
N14   N     N_2   0.631497 0.238363 0.847354 -0.499943
H47   H     H_    0.596457 0.154688 0.837985 0.319025
C70   C     C_3   0.638673 0.375518 0.897854 -0.429023
H48   H     H_    0.627752 0.313720 0.938429 0.196439
H49   H     H_    0.610596 0.496217 0.878180 0.234132
H50   H     H_    0.683335 0.423299 0.917764 0.175862

loop_
_geom_bond_atom_site_label_1
_geom_bond_atom_site_label_2
_ccdc_geom_bond_type
C50   C60   A    
C67   H36   S    
C57   C59   A    
C37   C39   A    
C69   H44   S    
C7    C29   A    
C49   C51   A    
O12   V3    S    
C11   C13   A    
O14   V4    S    
C40   H16   S    
C70   H48   S    
O1    C3    A    
C52   C54   A    
O2    C4    A    
C1    C54   S    
C2    O7    A    
N14   H47   S    
C67   H34   S    
C23   C25   A    
C39   C41   A    
O5    C3    A    
C43   C64   S    
C46   C60   S    
C16   C20   A    
O15   V3    S    
C70   H49   S    
C5    C29   A    
C33   C35   A    
C68   H39   S    
N4    C46   A    
C65   H27   S    
N13   C69   S    
C58   C60   A    
C7    C27   A    
C36   H14   S    
C38   C48   S    
C41   H17   S    
O20   V3    S    
C55   N9    S    
S1    O22   D    
O17   V3    S    
N1    C47   A    
C50   C52   A    
O14   C62   A    
C18   C26   A    
C39   H15   S    
S2    O26   S    
C54   C56   A    
C42   C44   A    
C15   C17   A    
O11   V4    S    
C41   C43   A    
C19   C27   A    
C9    C31   A    
C10   C32   A    
C66   H32   S    
O5    V1    S    
C69   H45   S    
C22   C24   A    
C37   C47   S    
C13   C15   A    
O13   C61   A    
C45   C59   S    
C3    C32   S    
C4    C31   S    
C6    C30   A    
O13   V3    S    
C10   C12   A    
N14   C70   S    
C12   N14   S    
S1    O21   D    
N3    C45   A    
C11   N13   S    
C35   H13   S    
C34   C44   A    
C65   H26   S    
C70   H50   S    
O23   H41   S    
C46   N6    A    
C55   C57   A    
C68   H40   S    
C45   N5    A    
C27   H5    S    
C65   H28   S    
C42   H18   S    
H1    C29   S    
C34   C36   A    
O12   C64   A    
C38   C40   A    
O4    V2    S    
N10   C66   S    
C51   H21   S    
H3    C23   S    
C10   S2    S    
O6    C4    A    
H4    C24   S    
C52   H22   S    
O1    V2    S    
C5    C21   A    
O2    V1    S    
N1    N3    A    
C62   O17   A    
C25   H9    S    
N9    H25   S    
C61   O18   A    
C49   C59   A    
O4    C2    A    
C56   N10   S    
N7    C47   A    
C58   H24   S    
C50   H20   S    
C69   H46   S    
N6    N8    A    
C33   H11   S    
C5    N11   S    
N11   H33   S    
C8    C28   A    
C15   C19   A    
O19   V4    S    
C18   C32   A    
N10   H29   S    
N2    C48   A    
O16   C64   A    
S1    O23   S    
O3    V1    S    
O16   V4    S    
C66   H30   S    
C13   H7    S    
C28   H6    S    
C67   H35   S    
C7    C62   S    
C14   H8    S    
C19   C21   A    
O10   V1    S    
C35   C37   A    
O11   C63   A    
C8    C61   S    
N2    N4    A    
O3    C1    A    
N5    N7    A    
C9    S1    S    
N12   H37   S    
C53   C55   A    
C12   C14   A    
C9    C11   A    
C56   C58   A    
C36   C38   A    
C8    C30   A    
C20   C22   A    
C6    C22   A    
C17   C25   A    
C1    O8    A    
C21   C23   A    
O8    V2    S    
C68   H38   S    
C26   H10   S    
C14   C16   A    
N12   C68   S    
C40   C42   A    
C17   C31   A    
C44   C63   S    
C24   C26   A    
C34   H12   S    
S2    O25   D    
O7    V1    S    
C6    N12   S    
H2    C30   S    
N9    C65   S    
C20   C28   A    
C51   C53   A    
C33   C43   A    
O6    V2    S    
C2    C53   S    
O9    V2    S    
N13   H43   S    
N11   C67   S    
C49   H19   S    
S2    O24   D    
N8    C48   A    
O15   C63   A    
O26   H42   S    
C57   H23   S    
O18   V4    S    
C16   C18   A    
C66   H31   S    
