data_str_m9_o5_o16_f0_sra.sym.32
_audit_creation_date              2012-12-11T17:14:04-0500
_audit_creation_method            fapswitch 2.2
_symmetry_space_group_name_H-M    P1
_symmetry_Int_Tables_number       1
_space_group_crystal_system       triclinic
_cell_length_a                    18.243083
_cell_length_b                    7.090565
_cell_length_c                    13.009587
_cell_angle_alpha                 90.000905
_cell_angle_beta                  71.717677
_cell_angle_gamma                 90.000223
_cell_volume                      1597.89323426

loop_
_atom_site_label
_atom_site_type_symbol
_atom_type_description
_atom_site_fract_x
_atom_site_fract_y
_atom_site_fract_z
_atom_type_partial_charge
O1    O     O_R   0.453880 0.506200 0.150010 -0.530754
O2    O     O_R   0.546120 0.006200 0.849990 -0.530758
O3    O     O_R   0.604080 0.177770 0.007280 -0.540227
O4    O     O_R   0.395920 0.677770 0.992720 -0.540204
C1    C     C_R   0.636006 0.344537 0.001739 0.748623
C2    C     C_R   0.363995 0.844536 0.998259 0.748648
O5    O     O_R   0.458010 0.176640 0.159130 -0.541033
O6    O     O_R   0.541990 0.676640 0.840870 -0.541031
O7    O     O_R   0.399010 0.004010 0.002930 -0.539177
O8    O     O_R   0.600990 0.504010 0.997070 -0.539163
C3    C     C_R   0.443582 0.345138 0.201949 0.705288
C4    C     C_R   0.556422 0.845133 0.798052 0.705301
O9    O     O_3   0.480810 0.338440 0.948570 -0.383324
O10   O     O_3   0.519190 0.838440 0.051430 -0.383315
V1    V     V_3+5 0.503560 0.064490 0.009540 1.455942
V2    V     V_3+5 0.496440 0.564490 0.990460 1.455982
C5    C     C_R   0.581757 0.890446 0.501657 -0.155463
C6    C     C_R   0.418242 0.390591 0.498337 -0.155501
H1    H     H_    0.485255 0.908163 0.647292 0.108336
H2    H     H_    0.514740 0.408318 0.352697 0.108286
H3    H     H_    0.544822 0.910343 0.451693 0.143046
H4    H     H_    0.455173 0.410568 0.548293 0.142998
C7    C     C_R   0.591760 0.853576 0.680850 -0.042248
C8    C     C_R   0.408244 0.353599 0.319152 -0.042254
C9    C     C_R   0.953827 0.891202 0.386010 0.201694
C10   C     C_R   0.046179 0.391191 0.613989 0.201705
C11   C     C_R   0.920772 0.915947 0.496709 -0.103235
C12   C     C_R   0.079232 0.415913 0.503286 -0.103228
C13   C     C_R   0.840854 0.914985 0.544935 0.260254
C14   C     C_R   0.159152 0.414941 0.455060 0.260258
C15   C     C_R   0.791199 0.873261 0.481722 0.005003
C16   C     C_R   0.208807 0.373251 0.518280 0.004989
C17   C     C_R   0.825326 0.857162 0.367400 -0.064630
C18   C     C_R   0.174680 0.357169 0.632604 -0.064647
C19   C     C_R   0.709119 0.859931 0.525648 0.061282
C20   C     C_R   0.290887 0.359947 0.474356 0.061303
C21   C     C_R   0.662576 0.869831 0.455967 0.062245
C22   C     C_R   0.337427 0.369911 0.544034 0.062193
C23   C     C_R   0.697074 0.857251 0.342828 0.269649
C24   C     C_R   0.302931 0.357320 0.657178 0.269661
C25   C     C_R   0.777728 0.844130 0.300844 -0.193706
C26   C     C_R   0.222277 0.344178 0.699162 -0.193653
C27   C     C_R   0.671308 0.829479 0.636590 -0.129123
C28   C     C_R   0.328701 0.329464 0.363418 -0.129120
C29   C     C_R   0.547111 0.888741 0.613517 -0.184955
C30   C     C_R   0.452887 0.388854 0.386477 -0.184886
C31   C     C_R   0.906821 0.863721 0.320302 -0.125724
C32   C     C_R   0.093186 0.363714 0.679701 -0.125731
H5    H     H_    0.702363 0.780809 0.689592 0.163049
H6    H     H_    0.297651 0.280741 0.310422 0.163045
H7    H     H_    0.957856 0.948817 0.545026 0.197540
H8    H     H_    0.042147 0.448774 0.454964 0.197543
H9    H     H_    0.803934 0.827359 0.214658 0.118655
H10   H     H_    0.196070 0.327441 0.785349 0.118637
C33   C     C_1   0.216295 0.858755 0.000449 -0.133788
C34   C     C_1   0.783706 0.358755 0.999547 -0.133785
C35   C     C_1   0.283561 0.852643 0.999262 -0.151293
C36   C     C_1   0.716440 0.352645 0.000733 -0.151295
O11   O     O_R   0.899030 0.205490 0.002790 -0.537526
O12   O     O_R   0.100970 0.705490 0.997210 -0.537528
O13   O     O_R   0.042000 0.536370 0.840840 -0.534378
O14   O     O_R   0.958000 0.036370 0.159160 -0.534382
C37   C     C_R   0.057296 0.368484 0.797917 0.758554
C38   C     C_R   0.942710 0.868486 0.202085 0.758557
O15   O     O_R   0.895930 0.535070 0.992690 -0.538326
O16   O     O_R   0.104070 0.035070 0.007310 -0.538325
O17   O     O_R   0.953870 0.707520 0.150040 -0.540580
O18   O     O_R   0.046130 0.207520 0.849960 -0.540578
C39   C     C_R   0.864112 0.366728 0.998677 0.759516
C40   C     C_R   0.135889 0.866729 0.001321 0.759519
O19   O     O_3   0.019200 0.374340 0.051340 -0.371708
O20   O     O_3   0.980800 0.874340 0.948660 -0.371708
V3    V     V_3+5 0.996440 0.648350 0.990470 1.516472
V4    V     V_3+5 0.003560 0.148350 0.009530 1.516475
N1    N     N_2   0.649570 0.848311 0.273518 -0.540935
H11   H     H_    0.606239 0.748652 0.295465 0.247005
C41   C     C_3   0.683715 0.870844 0.157665 -0.500029
H12   H     H_    0.637288 0.885479 0.120167 0.224083
H13   H     H_    0.718668 0.744803 0.122181 0.182984
H14   H     H_    0.719740 0.000345 0.139131 0.195785
N2    N     N_2   0.350436 0.348423 0.726491 -0.540932
H15   H     H_    0.393827 0.248946 0.704469 0.247038
C42   C     C_3   0.316291 0.370623 0.842364 -0.500050
H16   H     H_    0.362713 0.385211 0.879883 0.224066
H17   H     H_    0.281389 0.244449 0.877726 0.182972
H18   H     H_    0.280220 0.500024 0.861027 0.195833
Br1   Br    Br    0.063705 0.919624 0.326191 -0.491908
Br2   Br    Br    0.936301 0.419642 0.673806 -0.491897
Br3   Br    Br    0.808760 0.019132 0.689349 -0.510989
Br4   Br    Br    0.191242 0.519032 0.310632 -0.510980

loop_
_geom_bond_atom_site_label_1
_geom_bond_atom_site_label_2
_ccdc_geom_bond_type
C22   C24   A    
C7    C29   A    
C11   C13   A    
C3    C8    S    
O1    C3    A    
C14   Br4   S    
O2    C4    A    
C2    O7    A    
C13   Br3   S    
N2    H15   S    
O15   V3    S    
C23   C25   A    
C41   H12   S    
O5    C3    A    
C4    C7    S    
C1    C36   S    
C16   C20   A    
C19   C21   A    
C5    C29   A    
O15   C39   A    
O18   V4    S    
O16   V4    S    
O12   V3    S    
C9    Br1   S    
C7    C27   A    
O13   C37   A    
O14   C38   A    
C18   C26   A    
C15   C17   A    
O17   V3    S    
C23   N1    S    
C19   C27   A    
C9    C31   A    
C10   C32   A    
C24   C26   A    
O6    V2    S    
C13   C15   A    
C2    C35   S    
C6    C30   A    
N2    C42   S    
C11   H7    S    
C41   H13   S    
C38   O17   A    
O20   V4    S    
C31   C38   S    
O19   V3    S    
C27   H5    S    
C32   C37   S    
O13   V3    S    
C5    H3    S    
C16   C18   A    
O4    V2    S    
N1    H11   S    
C42   H16   S    
O12   C40   A    
O6    C4    A    
O1    V2    S    
C5    C21   A    
O2    V1    S    
N1    C41   S    
O11   V4    S    
C25   H9    S    
O11   C39   A    
O4    C2    A    
C42   H17   S    
C33   C35   T    
C8    C28   A    
C15   C19   A    
C20   C28   A    
C18   C32   A    
C20   C22   A    
O3    V1    S    
C41   H14   S    
C28   H6    S    
C37   O18   A    
C6    H4    S    
C24   N2    S    
O20   V3    S    
O3    C1    A    
O19   V4    S    
H1    C29   S    
C9    C11   A    
C10   C12   A    
C17   C25   A    
C12   C14   A    
C6    C22   A    
C8    C30   A    
C1    O8    A    
C21   C23   A    
O8    V2    S    
C26   H10   S    
C14   C16   A    
C12   H8    S    
O16   C40   A    
C17   C31   A    
O5    V1    S    
C34   C36   T    
O7    V1    S    
C33   C40   S    
C42   H18   S    
C10   Br2   S    
C34   C39   S    
O9    V2    S    
O10   V1    S    
O14   V4    S    
H2    C30   S    
