data_str_m3_o40_o41_f0_fof.sym.132
_audit_creation_date              2012-12-10T16:37:48-0500
_audit_creation_method            fapswitch 2.2
_symmetry_space_group_name_H-M    P1
_symmetry_Int_Tables_number       1
_space_group_crystal_system       triclinic
_cell_length_a                    28.095329
_cell_length_b                    18.431319
_cell_length_c                    16.81807
_cell_angle_alpha                 89.919262
_cell_angle_beta                  61.064132
_cell_angle_gamma                 89.737459
_cell_volume                      7621.67294596

loop_
_atom_site_label
_atom_site_type_symbol
_atom_type_description
_atom_site_fract_x
_atom_site_fract_y
_atom_site_fract_z
_atom_type_partial_charge
C1    C     C_R   0.699849 0.264298 0.677319 0.959448
C2    C     C_R   0.288161 0.713751 0.333425 0.951745
C3    C     C_R   0.299401 0.265389 0.322604 0.927102
C4    C     C_R   0.700387 0.735105 0.677462 0.929088
C5    C     C_R   0.199723 0.763799 0.677373 0.947448
C6    C     C_R   0.799891 0.235078 0.322522 0.960029
C7    C     C_R   0.799479 0.765228 0.322601 0.931833
C8    C     C_R   0.200311 0.235258 0.677466 0.926041
C9    C     C_R   0.900991 0.500947 0.501630 0.067490
C10   C     C_R   0.078715 0.501405 0.568668 0.067146
C11   C     C_R   0.421864 0.998637 0.428984 0.070527
C12   C     C_R   0.599625 0.999011 0.496006 0.067374
C13   C     C_R   0.069527 0.371445 0.594117 -0.236058
C14   C     C_R   0.920140 0.626941 0.454419 -0.227246
C15   C     C_R   0.880449 0.377594 0.559137 -0.242223
C16   C     C_R   0.076437 0.632814 0.568768 -0.210191
C17   C     C_R   0.580764 0.872729 0.541837 -0.230853
C18   C     C_R   0.430635 0.128777 0.404853 -0.236712
C19   C     C_R   0.424319 0.867198 0.427784 -0.232108
C20   C     C_R   0.619654 0.122842 0.440158 -0.238468
C21   C     C_R   0.722380 0.267646 0.950319 -0.045752
C22   C     C_R   0.248684 0.676057 0.072999 -0.051914
C23   C     C_R   0.280274 0.263089 0.044335 -0.049369
C24   C     C_R   0.714611 0.744258 0.960770 -0.055988
C25   C     C_R   0.194037 0.718711 0.974911 -0.052857
C26   C     C_R   0.776434 0.225929 0.049090 -0.034009
C27   C     C_R   0.781134 0.761588 0.043699 -0.047852
C28   C     C_R   0.213731 0.245826 0.961404 -0.054115
C29   C     C_R   0.747761 0.198265 0.933566 -0.008796
C30   C     C_R   0.201601 0.720885 0.115383 -0.072262
C31   C     C_R   0.232137 0.221423 0.088594 -0.004173
C32   C     C_R   0.761651 0.787705 0.918247 -0.073497
C33   C     C_R   0.236576 0.666667 0.935941 -0.003748
C34   C     C_R   0.752116 0.295464 0.063681 -0.087589
C35   C     C_R   0.733154 0.719633 0.087771 -0.007075
C36   C     C_R   0.260809 0.289191 0.918830 -0.079218
C37   C     C_R   0.776617 0.178547 0.981820 0.093681
C38   C     C_R   0.172622 0.738614 0.067209 0.074825
C39   C     C_R   0.196904 0.217305 0.049228 0.098455
C40   C     C_R   0.797208 0.791156 0.956703 0.071319
C41   C     C_R   0.265345 0.647148 0.984760 0.097581
C42   C     C_R   0.722164 0.314305 0.017920 0.015561
C43   C     C_R   0.697917 0.715465 0.048438 0.100408
C44   C     C_R   0.296365 0.292627 0.957307 0.073045
C45   C     C_R   0.663834 0.354386 0.924844 -0.028997
C46   C     C_R   0.326832 0.616230 0.077871 0.073769
C47   C     C_R   0.362055 0.314277 0.042001 0.090929
C48   C     C_R   0.634964 0.689697 0.959770 0.075028
C49   C     C_R   0.124660 0.795068 0.964222 0.069413
C50   C     C_R   0.834944 0.141124 0.076534 0.060490
C51   C     C_R   0.862564 0.813524 0.041767 0.084826
C52   C     C_R   0.134346 0.190698 0.960073 0.072902
C53   C     C_R   0.629106 0.366509 0.885974 -0.148549
C54   C     C_R   0.361443 0.610681 0.119252 -0.115103
C55   C     C_R   0.387657 0.338710 0.093623 -0.095498
C56   C     C_R   0.611143 0.662701 0.906755 -0.102886
C57   C     C_R   0.107997 0.833577 0.907443 -0.103258
C58   C     C_R   0.869554 0.129942 0.115559 -0.111698
C59   C     C_R   0.887884 0.838433 0.093592 -0.090396
C60   C     C_R   0.110815 0.163165 0.906879 -0.103293
C61   C     C_R   0.637785 0.330236 0.809155 -0.299186
C62   C     C_R   0.346229 0.642478 0.201938 -0.331159
C63   C     C_R   0.368463 0.316277 0.181963 -0.349437
C64   C     C_R   0.631256 0.683977 0.817770 -0.342503
C65   C     C_R   0.132042 0.818641 0.816003 -0.331277
C66   C     C_R   0.861010 0.167313 0.191672 -0.324619
C67   C     C_R   0.868644 0.816079 0.181986 -0.328436
C68   C     C_R   0.131018 0.184311 0.817806 -0.337882
C69   C     C_R   0.676288 0.276739 0.774661 -0.045987
C70   C     C_R   0.298110 0.680037 0.247303 -0.079987
C71   C     C_R   0.323662 0.272058 0.223520 -0.054605
C72   C     C_R   0.675393 0.729550 0.776894 -0.059445
C73   C     C_R   0.172369 0.767042 0.776995 -0.060423
C74   C     C_R   0.822609 0.221092 0.225413 -0.048174
C75   C     C_R   0.823951 0.771626 0.223455 -0.059165
C76   C     C_R   0.175098 0.230023 0.776961 -0.059208
C77   C     C_R   0.698542 0.247985 0.828655 -0.004115
C78   C     C_R   0.262236 0.686570 0.208250 -0.031993
C79   C     C_R   0.297450 0.246244 0.173595 0.003817
C80   C     C_R   0.699871 0.758194 0.828413 -0.022423
C81   C     C_R   0.189858 0.727298 0.831937 -0.001071
C82   C     C_R   0.800092 0.248608 0.170957 -0.031137
C83   C     C_R   0.798025 0.745324 0.173311 0.002369
C84   C     C_R   0.199334 0.259085 0.828635 -0.023754
C85   C     C_R   0.696557 0.127964 0.517163 0.922181
C86   C     C_R   0.308710 0.870507 0.464248 0.916135
C87   C     C_R   0.309252 0.129636 0.462679 0.903218
C88   C     C_R   0.691518 0.871003 0.532906 0.907678
C89   C     C_R   0.191344 0.629462 0.535507 0.916759
C90   C     C_R   0.803470 0.372050 0.482650 0.921499
C91   C     C_R   0.808556 0.629054 0.466676 0.907615
C92   C     C_R   0.190762 0.370394 0.537245 0.903517
C93   C     C_R   0.695152 0.289926 0.901353 -0.057943
C94   C     C_R   0.279873 0.660968 0.118800 -0.080461
C95   C     C_R   0.312835 0.275330 0.087106 -0.095531
C96   C     C_R   0.683455 0.730216 0.915994 -0.092781
C97   C     C_R   0.170277 0.748039 0.923223 -0.084858
C98   C     C_R   0.803631 0.205254 0.098744 -0.092163
C99   C     C_R   0.813506 0.774214 0.086692 -0.090757
C100  C     C_R   0.182746 0.231436 0.916416 -0.087814
C101  C     C_R   0.666453 0.401645 0.988901 0.433206
C102  C     C_R   0.336052 0.577614 0.998921 0.400562
C103  C     C_R   0.384324 0.323404 0.946690 0.470161
C104  C     C_R   0.611368 0.681703 0.055353 0.450604
C105  C     C_R   0.095264 0.796094 0.060313 0.440733
C106  C     C_R   0.832119 0.092219 0.014723 0.407228
C107  C     C_R   0.884965 0.822565 0.946424 0.461744
C108  C     C_R   0.110559 0.182960 0.055694 0.426352
C109  C     C_R   0.690520 0.378195 0.039590 -0.212336
C110  C     C_R   0.310570 0.599885 0.948932 -0.276809
C111  C     C_R   0.350477 0.316358 0.906880 -0.347118
C112  C     C_R   0.643767 0.691327 0.097451 -0.224022
C113  C     C_R   0.119714 0.768679 0.110161 -0.325958
C114  C     C_R   0.807402 0.113885 0.963594 -0.264344
C115  C     C_R   0.851265 0.815127 0.906393 -0.346654
C116  C     C_R   0.142732 0.193175 0.098115 -0.243315
C117  C     C_R   0.717902 0.176485 0.818402 0.347312
C118  C     C_R   0.208942 0.715660 0.254981 0.445328
C119  C     C_R   0.259932 0.188270 0.202532 0.354514
C120  C     C_R   0.736861 0.817144 0.799608 0.443009
C121  C     C_R   0.220219 0.662288 0.803487 0.346686
C122  C     C_R   0.779502 0.319657 0.180632 0.433502
C123  C     C_R   0.760723 0.687082 0.202160 0.355681
C124  C     C_R   0.236285 0.318084 0.799727 0.444603
C125  C     C_R   0.740825 0.150619 0.872326 0.294014
C126  C     C_R   0.184946 0.745023 0.205592 0.281350
C127  C     C_R   0.224347 0.179514 0.165116 0.290880
C128  C     C_R   0.768204 0.831369 0.843525 0.303270
C129  C     C_R   0.245178 0.633233 0.853087 0.300037
C130  C     C_R   0.761348 0.345049 0.120454 0.281315
C131  C     C_R   0.725437 0.677721 0.164246 0.300360
C132  C     C_R   0.267489 0.332601 0.843832 0.302658
C133  C     C_R   0.071412 0.103700 0.937065 0.966214
C134  C     C_R   0.928142 0.896726 0.063213 0.970809
C135  C     C_R   0.917598 0.084749 0.074464 0.993684
C136  C     C_R   0.070386 0.895365 0.937823 0.974316
C137  C     C_R   0.571473 0.603629 0.937038 0.945254
C138  C     C_R   0.428228 0.396614 0.063094 0.949796
C139  C     C_R   0.415290 0.575892 0.076018 0.974779
C140  C     C_R   0.581200 0.412002 0.926865 0.922774
C141  C     C_R   0.574129 0.124669 0.427171 0.104922
C142  C     C_R   0.464880 0.866979 0.452505 0.103835
C143  C     C_R   0.479864 0.127548 0.407667 0.109155
C144  C     C_R   0.542785 0.869986 0.511061 0.104182
C145  C     C_R   0.036493 0.632853 0.542708 0.098823
C146  C     C_R   0.926131 0.375660 0.571608 0.106095
C147  C     C_R   0.958650 0.629637 0.484077 0.100200
C148  C     C_R   0.020430 0.372686 0.590906 0.109514
C149  C     C_R   0.559310 0.188151 0.397789 -0.196983
C150  C     C_R   0.481338 0.802244 0.476254 -0.201044
C151  C     C_R   0.511791 0.190058 0.390162 -0.195927
C152  C     C_R   0.518408 0.804198 0.509166 -0.202535
C153  C     C_R   0.020513 0.697423 0.517783 -0.200508
C154  C     C_R   0.940668 0.312362 0.601753 -0.201537
C155  C     C_R   0.983496 0.695321 0.484781 -0.187727
C156  C     C_R   0.988216 0.310384 0.609260 -0.200307
C157  C     C_R   0.497101 0.062736 0.430256 0.032525
C158  C     C_R   0.529420 0.933779 0.480440 0.030872
C159  C     C_R   0.542681 0.062082 0.444190 0.034600
C160  C     C_R   0.487942 0.932957 0.456704 0.032497
C161  C     C_R   0.971861 0.565978 0.515268 0.031653
C162  C     C_R   0.003552 0.437327 0.567283 0.032323
C163  C     C_R   0.013326 0.566874 0.538987 0.033664
C164  C     C_R   0.957963 0.437989 0.553429 0.033820
C165  C     C_R   0.943877 0.501465 0.522645 -0.048225
C166  C     C_R   0.031455 0.501868 0.559509 -0.048238
C167  C     C_R   0.469422 0.998101 0.437302 -0.049342
C168  C     C_R   0.557012 0.998441 0.474245 -0.048440
C169  C     C_R   0.870269 0.437537 0.515770 0.048316
C170  C     C_R   0.103981 0.567568 0.567196 0.054670
C171  C     C_R   0.101641 0.434847 0.575405 0.055365
C172  C     C_R   0.887648 0.564565 0.469371 0.060325
C173  C     C_R   0.396511 0.932471 0.430592 0.053185
C174  C     C_R   0.629997 0.062633 0.482998 0.049656
C175  C     C_R   0.612937 0.935292 0.528129 0.059864
C176  C     C_R   0.398631 0.065267 0.423306 0.054158
C177  C     C_R   0.830581 0.437034 0.485836 -0.110617
C178  C     C_R   0.156587 0.565727 0.559965 -0.101303
C179  C     C_R   0.155679 0.435030 0.562858 -0.113971
C180  C     C_R   0.840546 0.564066 0.457648 -0.113400
C181  C     C_R   0.343546 0.934301 0.439283 -0.118131
C182  C     C_R   0.669484 0.063044 0.513481 -0.109667
C183  C     C_R   0.659644 0.935928 0.541065 -0.113473
C184  C     C_R   0.344382 0.065044 0.436763 -0.111335
C185  C     C_R   0.816610 0.499607 0.457237 -0.277623
C186  C     C_R   0.180475 0.500185 0.560970 -0.268295
C187  C     C_R   0.319464 0.999879 0.439109 -0.278710
C188  C     C_R   0.683351 0.000411 0.542095 -0.280348
H1    H     H_    0.783953 0.499107 0.440218 0.202644
H2    H     H_    0.221272 0.499834 0.552432 0.202053
H3    H     H_    0.278447 0.000229 0.448640 0.201048
H4    H     H_    0.715740 0.000912 0.559760 0.203449
H5    H     H_    0.081364 0.321328 0.613289 0.171096
H6    H     H_    0.916513 0.674033 0.419390 0.174627
H7    H     H_    0.853265 0.332037 0.585487 0.177025
H8    H     H_    0.085447 0.684527 0.588067 0.179703
H9    H     H_    0.583998 0.825560 0.577109 0.175463
H10   H     H_    0.418543 0.179042 0.386441 0.171613
H11   H     H_    0.414812 0.815601 0.408964 0.183009
H12   H     H_    0.646531 0.168757 0.414704 0.178088
H13   H     H_    0.684168 0.412462 0.095783 0.229160
H14   H     H_    0.328317 0.578664 0.881340 0.209801
H15   H     H_    0.367960 0.324968 0.834487 0.188777
H16   H     H_    0.624516 0.685677 0.170367 0.180908
H17   H     H_    0.095259 0.767245 0.183130 0.198799
H18   H     H_    0.815878 0.079493 0.907048 0.203855
H19   H     H_    0.868792 0.823724 0.833985 0.191014
H20   H     H_    0.123331 0.187782 0.171070 0.188034
O1    O     O_R   0.746490 0.236330 0.638080 -0.603536
O2    O     O_R   0.253510 0.763670 0.361920 -0.569802
O3    O     O_R   0.253510 0.236330 0.361920 -0.571286
O4    O     O_R   0.746490 0.763670 0.638080 -0.578775
O5    O     O_R   0.246490 0.736330 0.638080 -0.577586
O6    O     O_R   0.753510 0.263670 0.361920 -0.609081
O7    O     O_R   0.753510 0.736330 0.361920 -0.573816
O8    O     O_R   0.246490 0.263670 0.638080 -0.577975
O9    O     O_R   0.674170 0.186160 0.516270 -0.647585
O10   O     O_R   0.325830 0.813840 0.483730 -0.643803
O11   O     O_R   0.325830 0.186160 0.483730 -0.642051
O12   O     O_R   0.674170 0.813840 0.516270 -0.650846
O13   O     O_R   0.174170 0.686160 0.516270 -0.620369
O14   O     O_R   0.825830 0.313840 0.483730 -0.646457
O15   O     O_R   0.825830 0.686160 0.483730 -0.648539
O16   O     O_R   0.174170 0.313840 0.516270 -0.643901
O17   O     O_R   0.739960 0.127620 0.525000 -0.610913
O18   O     O_R   0.260040 0.872380 0.475000 -0.622997
O19   O     O_R   0.260040 0.127620 0.475000 -0.607304
O20   O     O_R   0.739960 0.872380 0.525000 -0.605520
O21   O     O_R   0.239960 0.627620 0.525000 -0.623006
O22   O     O_R   0.760040 0.372380 0.475000 -0.616154
O23   O     O_R   0.760040 0.627620 0.475000 -0.604406
O24   O     O_R   0.239960 0.372380 0.525000 -0.610029
O25   O     O_R   0.680700 0.294870 0.629350 -0.645721
O26   O     O_R   0.319300 0.705130 0.370650 -0.652884
O27   O     O_R   0.319300 0.294870 0.370650 -0.648790
O28   O     O_R   0.680700 0.705130 0.629350 -0.645901
O29   O     O_R   0.180700 0.794870 0.629350 -0.650694
O30   O     O_R   0.819300 0.205130 0.370650 -0.642697
O31   O     O_R   0.819300 0.794870 0.370650 -0.646055
O32   O     O_R   0.180700 0.205130 0.629350 -0.647560
O33   O     O_R   0.062020 0.072840 0.007170 -0.566131
O34   O     O_R   0.937980 0.927160 0.992830 -0.554303
O35   O     O_R   0.937980 0.072840 0.992830 -0.587672
O36   O     O_R   0.062020 0.927160 0.007170 -0.579754
O37   O     O_R   0.562020 0.572840 0.007170 -0.546674
O38   O     O_R   0.437980 0.427160 0.992830 -0.537212
O39   O     O_R   0.437980 0.572840 0.992830 -0.575190
O40   O     O_R   0.562020 0.427160 0.007170 -0.585226
O41   O     O_R   0.947860 0.073950 0.109290 -0.625690
O42   O     O_R   0.052140 0.926050 0.890710 -0.625571
O43   O     O_R   0.052140 0.073950 0.890710 -0.639251
O44   O     O_R   0.947860 0.926050 0.109290 -0.634307
O45   O     O_R   0.447860 0.573950 0.109290 -0.618535
O46   O     O_R   0.552140 0.426050 0.890710 -0.614254
O47   O     O_R   0.552140 0.573950 0.890710 -0.648285
O48   O     O_R   0.447860 0.426050 0.109290 -0.659958
Zn1   Zn    Zn3+2 0.792340 0.208750 0.507670 0.974089
Zn2   Zn    Zn3+2 0.207660 0.791250 0.492330 0.996170
Zn3   Zn    Zn3+2 0.207660 0.208750 0.492330 0.981185
Zn4   Zn    Zn3+2 0.792340 0.791250 0.507670 0.980911
Zn5   Zn    Zn3+2 0.292340 0.708750 0.507670 0.972858
Zn6   Zn    Zn3+2 0.707660 0.291250 0.492330 0.966192
Zn7   Zn    Zn3+2 0.707660 0.708750 0.492330 0.977194
Zn8   Zn    Zn3+2 0.292340 0.291250 0.507670 0.980681
Zn9   Zn    Zn3+2 0.505960 0.500000 0.080520 1.019582
Zn10  Zn    Zn3+2 0.494040 0.500000 0.919480 1.006186
Zn11  Zn    Zn3+2 0.005960 1.000000 0.080520 1.016595
Zn12  Zn    Zn3+2 0.994040 0.000000 0.919480 1.003121
H21   H     H_    0.999803 0.260240 0.629147 0.141705
H22   H     H_    0.973136 0.745205 0.462409 0.144415
H23   H     H_    0.916331 0.263713 0.616454 0.140961
H24   H     H_    0.038559 0.748797 0.519625 0.146619
H25   H     H_    0.529019 0.754177 0.530886 0.139817
H26   H     H_    0.499942 0.240352 0.371025 0.143243
H27   H     H_    0.463504 0.750843 0.473854 0.139881
H28   H     H_    0.583356 0.237006 0.383910 0.142441
H29   H     H_    0.615647 0.345699 0.773787 0.198300
H30   H     H_    0.372961 0.638428 0.231464 0.196494
H31   H     H_    0.387148 0.336791 0.220720 0.191691
H32   H     H_    0.613856 0.661434 0.778044 0.191937
H33   H     H_    0.120271 0.849817 0.773487 0.195029
H34   H     H_    0.883325 0.152577 0.226978 0.200138
H35   H     H_    0.887146 0.836918 0.220874 0.194374
H36   H     H_    0.113806 0.161454 0.777960 0.190107
O49   O     O_3   0.650429 0.473387 0.998931 -0.729216
H37   H     H_    0.655218 0.490712 0.939676 0.312173
O50   O     O_3   0.365825 0.513936 0.975474 -0.753353
H38   H     H_    0.365622 0.491442 0.922090 0.327991
O51   O     O_3   0.439913 0.330169 0.892077 -0.747984
H39   H     H_    0.448632 0.334959 0.827700 0.324094
O52   O     O_3   0.555721 0.673478 0.107741 -0.746491
H40   H     H_    0.545864 0.669682 0.172729 0.321855
O53   O     O_3   0.041045 0.816293 0.104450 -0.761830
H41   H     H_    0.026503 0.813569 0.171111 0.324809
O54   O     O_3   0.850671 0.021720 0.008853 -0.766042
H42   H     H_    0.843252 0.993439 0.965938 0.329337
O55   O     O_3   0.940551 0.829643 0.892048 -0.752882
H43   H     H_    0.949394 0.834034 0.827570 0.323122
O56   O     O_3   0.054941 0.174190 0.107727 -0.747206
H44   H     H_    0.044931 0.170610 0.172797 0.324647
O57   O     O_3   0.707605 0.130467 0.763573 -0.763895
H45   H     H_    0.700407 0.080988 0.789596 0.361003
O58   O     O_3   0.178976 0.710219 0.348420 -0.733034
H46   H     H_    0.140835 0.725353 0.369290 0.363155
O59   O     O_3   0.264302 0.135241 0.257010 -0.756047
H47   H     H_    0.251840 0.088223 0.245460 0.347403
O60   O     O_3   0.735148 0.866612 0.738962 -0.746124
H48   H     H_    0.764480 0.902812 0.720801 0.375441
O61   O     O_3   0.218528 0.622864 0.734960 -0.763995
H49   H     H_    0.219844 0.570351 0.746293 0.356856
O62   O     O_3   0.786059 0.366903 0.238432 -0.743359
H50   H     H_    0.764266 0.411427 0.246624 0.375695
O63   O     O_3   0.765005 0.634463 0.257164 -0.750911
H51   H     H_    0.753100 0.587152 0.245237 0.356353
O64   O     O_3   0.234741 0.367212 0.738605 -0.746121
H52   H     H_    0.263794 0.403780 0.720901 0.378430
O65   O     O_3   0.750835 0.077411 0.871787 -0.781857
H53   H     H_    0.769900 0.060872 0.807639 0.346612
O66   O     O_3   0.148542 0.801063 0.246454 -0.796925
H54   H     H_    0.157181 0.839106 0.199722 0.346721
O67   O     O_3   0.185799 0.125315 0.196931 -0.787941
H55   H     H_    0.172796 0.118795 0.262784 0.336141
O68   O     O_3   0.799868 0.893083 0.818598 -0.800301
H56   H     H_    0.797978 0.914681 0.874013 0.352429
O69   O     O_3   0.272512 0.568032 0.825835 -0.778683
H57   H     H_    0.293012 0.567135 0.758489 0.342856
O70   O     O_3   0.761295 0.419233 0.109398 -0.770825
H58   H     H_    0.775474 0.429000 0.043763 0.353109
O71   O     O_3   0.687264 0.623040 0.195537 -0.766038
H59   H     H_    0.674131 0.616375 0.261405 0.332947
O72   O     O_3   0.299224 0.394248 0.818662 -0.781542
H60   H     H_    0.297410 0.415945 0.873975 0.360427

loop_
_geom_bond_atom_site_label_1
_geom_bond_atom_site_label_2
_ccdc_geom_bond_type
O3    Zn3   S    
O27   Zn8   S    
C4    O28   A    
C9    C169  A    
O52   H40   S    
C34   C42   A    
C134  O44   A    
C139  O39   A    
C181  C187  A    
O57   H45   S    
C6    O30   A    
C27   C99   A    
C85   C182  S    
C170  C178  A    
C12   C174  A    
C42   C109  A    
C24   C96   A    
C92   O24   A    
C62   C70   A    
C135  O35   A    
C66   H34   S    
C3    O27   A    
O39   Zn10  S    
O26   Zn5   S    
C1    O25   A    
C17   H9    S    
C147  C155  A    
C121  C129  A    
C143  C151  A    
C14   H6    S    
C90   C177  S    
C11   C167  A    
C82   C98   A    
C136  O42   A    
C73   C81   A    
C161  C163  A    
C162  C164  A    
C11   C173  A    
O68   H56   S    
C84   C100  A    
C92   O16   A    
C67   H35   S    
C111  H15   S    
C37   C114  A    
C27   C35   A    
C10   C171  A    
C21   C29   A    
C81   C121  A    
C23   C31   A    
C186  H2    S    
C24   C32   A    
C138  O38   A    
O44   Zn11  S    
O1    Zn1   S    
O58   H46   S    
C146  C154  A    
C5    O5    A    
C101  O49   S    
C137  O47   A    
C63   C71   A    
C36   C44   A    
C10   C170  A    
C112  H16   S    
C175  C183  A    
C176  C184  A    
O46   Zn10  S    
C48   C96   A    
O37   Zn9   S    
O11   Zn8   S    
C105  O53   S    
C8    O8    A    
O47   Zn10  S    
C110  H14   S    
C148  C162  A    
C183  C188  A    
C108  C116  A    
C21   C93   A    
C78   C94   A    
C9    C165  A    
C122  O62   S    
C23   C95   A    
O32   Zn3   S    
C151  H26   S    
C49   C97   A    
C21   C42   A    
C22   C41   A    
O28   Zn7   S    
C51   C107  A    
O67   H55   S    
O5    Zn5   S    
O29   Zn2   S    
C24   C43   A    
C82   C122  A    
C161  C165  A    
C17   C175  A    
C113  H17   S    
C18   C176  A    
C29   C125  A    
C69   C77   A    
C31   C127  A    
C45   C93   A    
C106  O54   S    
C174  C182  A    
C71   C79   A    
C179  C186  A    
C30   C38   A    
C11   C176  A    
C17   C144  A    
C105  C113  A    
C18   C143  A    
C78   C118  A    
C149  C151  A    
C89   O13   A    
C126  O66   S    
C131  O71   S    
C103  O51   S    
C66   C74   A    
C8    C76   S    
C49   C57   A    
C124  C132  A    
C86   O10   A    
C20   H12   S    
C52   C60   A    
C59   C67   A    
C53   C61   A    
C141  C159  A    
C20   C174  A    
C55   C63   A    
C86   C181  S    
C56   C64   A    
O34   Zn12  S    
C35   C43   A    
C45   C53   A    
C22   C94   A    
C171  C179  A    
C169  C177  A    
C8    O32   A    
C3    O3    A    
C50   C98   A    
C1    O1    A    
C149  H28   S    
C104  C112  A    
C132  O72   S    
O40   Zn9   S    
C145  C163  A    
C146  C164  A    
C14   C147  A    
C52   C100  A    
C91   O23   A    
C16   C145  A    
C178  C186  A    
C124  O64   S    
C123  O63   S    
O53   H41   S    
C25   C38   A    
C137  O37   A    
C54   C139  S    
C46   C94   A    
C27   C40   A    
C10   C166  A    
C91   C180  S    
O51   H39   S    
C182  C188  A    
C89   C178  S    
C60   C68   A    
C116  H20   S    
O16   Zn3   S    
C25   C97   A    
C39   C116  A    
O12   Zn7   S    
C67   C75   A    
C117  O57   S    
O13   Zn2   S    
C155  H22   S    
C108  O56   S    
O23   Zn7   S    
C119  O59   S    
C140  O40   A    
C61   H29   S    
C20   C141  A    
C15   C146  A    
O20   Zn4   S    
C185  H1    S    
O21   Zn5   S    
C58   C135  S    
C68   C76   A    
C59   C134  S    
C19   H11   S    
C184  C187  A    
C188  H4    S    
O36   Zn11  S    
O41   Zn11  S    
O42   Zn12  S    
C72   C80   A    
C56   C137  S    
C63   H31   S    
C88   O20   A    
C64   H32   S    
O43   Zn12  S    
C120  O60   S    
C118  O58   S    
C127  O67   S    
C5    C73   S    
O14   Zn1   S    
C13   C171  A    
C85   O17   A    
C121  O61   S    
O10   Zn5   S    
C90   O22   A    
C83   C99   A    
O38   Zn10  S    
C117  C125  A    
C25   C33   A    
C68   H36   S    
C119  C127  A    
O48   Zn9   S    
O22   Zn6   S    
C76   C84   A    
C30   C126  A    
C158  C168  A    
C5    O29   A    
C164  C165  A    
C135  O41   A    
C152  H25   S    
C40   C115  A    
C101  C109  A    
C177  C185  A    
O30   Zn1   S    
C103  C111  A    
O71   H59   S    
C134  O34   A    
C125  O65   S    
C162  C166  A    
C2    O26   A    
C79   C119  A    
C18   H10   S    
C153  C155  A    
O24   Zn8   S    
C133  O43   A    
C154  C156  A    
C32   C128  A    
C15   H7    S    
C172  C180  A    
C104  O52   S    
C173  C181  A    
O64   H52   S    
C157  C159  A    
C13   H5    S    
C158  C160  A    
C74   C82   A    
C138  O48   A    
C6    C74   S    
C47   C103  A    
O60   H48   S    
C50   C58   A    
O7    Zn7   S    
O31   Zn4   S    
C163  C166  A    
O35   Zn12  S    
O8    Zn8   S    
C107  O55   S    
O54   H42   S    
C38   C113  A    
C49   C105  A    
C54   C62   A    
C28   C39   A    
O4    Zn4   S    
C1    C69   S    
C23   C44   A    
C88   O12   A    
C3    C71   S    
O56   H44   S    
C19   C173  A    
C79   C95   A    
O49   H37   S    
C16   H8    S    
C92   C179  S    
O50   H38   S    
C6    O6    A    
C46   C54   A    
C150  H27   S    
C45   C101  A    
C19   C142  A    
C87   O19   A    
C147  C161  A    
C157  C167  A    
C102  C110  A    
C153  H24   S    
C140  O46   A    
C91   O15   A    
C154  H23   S    
C35   C131  A    
C4    C72   S    
C33   C129  A    
C36   C132  A    
C123  C131  A    
O6    Zn6   S    
C129  O69   S    
C57   C65   A    
C120  C128  A    
C26   C37   A    
C156  H21   S    
O2    Zn2   S    
C128  O68   S    
C33   C41   A    
C142  C150  A    
C109  H13   S    
O70   H58   S    
C75   C83   A    
O63   H51   S    
C77   C93   A    
O69   H57   S    
O66   H54   S    
C44   C111  A    
C16   C170  A    
C28   C36   A    
C144  C152  A    
O59   H47   S    
C29   C37   A    
C50   C106  A    
C9    C172  A    
C65   H33   S    
C148  C156  A    
C83   C123  A    
C2    C70   S    
C60   C133  S    
C7    O7    A    
O25   Zn6   S    
O62   H50   S    
C80   C120  A    
C115  H19   S    
C70   C78   A    
C53   C140  S    
O55   H43   S    
O72   H60   S    
C141  C149  A    
O61   H49   S    
C46   C102  A    
C55   C138  S    
C106  C114  A    
C139  O45   A    
C90   O14   A    
C77   C117  A    
O15   Zn4   S    
C48   C104  A    
C65   C73   A    
C159  C168  A    
C15   C169  A    
C160  C167  A    
C85   O9    A    
C133  O33   A    
C58   C66   A    
C57   C136  S    
C87   O11   A    
C80   C96   A    
C187  H3    S    
O19   Zn3   S    
C145  C153  A    
C28   C100  A    
C32   C40   A    
C52   C108  A    
C26   C34   A    
C143  C157  A    
C51   C99   A    
C2    O2    A    
C136  O36   A    
C14   C172  A    
C87   C184  S    
C88   C183  S    
C7    C75   S    
O45   Zn9   S    
C114  H18   S    
C102  O50   S    
O18   Zn2   S    
O33   Zn11  S    
C107  C115  A    
C26   C98   A    
C12   C175  A    
C7    O31   A    
C41   C110  A    
C86   O18   A    
C150  C152  A    
C51   C59   A    
C43   C112  A    
C144  C158  A    
C47   C55   A    
C61   C69   A    
C48   C56   A    
O9    Zn6   S    
C142  C160  A    
C12   C168  A    
C84   C124  A    
C118  C126  A    
C4    O4    A    
O17   Zn1   S    
C22   C30   A    
C81   C97   A    
C31   C39   A    
C64   C72   A    
O65   H53   S    
C180  C185  A    
C130  O70   S    
C34   C130  A    
C47   C95   A    
C62   H30   S    
C13   C148  A    
C89   O21   A    
C122  C130  A    
