data_str_m2_o13_o15_f0_pcu.sym.164
_audit_creation_date              2012-12-10T17:10:25-0500
_audit_creation_method            fapswitch 2.2
_symmetry_space_group_name_H-M    P1
_symmetry_Int_Tables_number       1
_space_group_crystal_system       triclinic
_cell_length_a                    10.778504
_cell_length_b                    12.983519
_cell_length_c                    11.668935
_cell_angle_alpha                 100.010419
_cell_angle_beta                  93.284229
_cell_angle_gamma                 90.136884
_cell_volume                      1605.35667254

loop_
_atom_site_label
_atom_site_type_symbol
_atom_type_description
_atom_site_fract_x
_atom_site_fract_y
_atom_site_fract_z
_atom_type_partial_charge
C1    C     C_R   0.498462 0.299103 0.478505 0.814777
C2    C     C_R   0.501538 0.700897 0.521495 0.814778
C3    C     C_R   0.500780 0.814262 0.534141 -0.128237
C4    C     C_R   0.499220 0.185738 0.465859 -0.128219
C5    C     C_R   0.520315 0.015221 0.345597 0.521206
C6    C     C_R   0.479687 0.984779 0.654402 0.521211
C7    C     C_R   0.517190 0.123971 0.357332 -0.262176
C8    C     C_R   0.482813 0.876029 0.642667 -0.262168
C9    C     C_R   0.485025 0.139352 0.563752 -0.215758
C10   C     C_R   0.514973 0.860647 0.436247 -0.215734
C11   C     C_R   0.490696 0.031273 0.554944 0.009291
C12   C     C_R   0.509304 0.968727 0.445055 0.009305
C13   C     C_R   0.402773 0.385646 0.020814 0.154162
C14   C     C_R   0.597225 0.614356 0.979186 0.154167
C15   C     C_R   0.409189 0.400718 0.144376 0.047372
C16   C     C_R   0.590809 0.599282 0.855624 0.047376
C17   C     C_R   0.539495 0.549714 0.157770 0.019752
C18   C     C_R   0.460506 0.450286 0.842230 0.019750
C19   C     C_R   0.534365 0.541815 0.034610 -0.049350
C20   C     C_R   0.465635 0.458185 0.965390 -0.049342
C21   C     C_R   0.262832 0.500424 0.500817 0.796270
C22   C     C_R   0.737168 0.499576 0.499182 0.796269
C23   C     C_R   0.134791 0.684549 0.601259 -0.229814
C24   C     C_R   0.865209 0.315452 0.398739 -0.229813
C25   C     C_R   0.073166 0.774517 0.649640 -0.235737
C26   C     C_R   0.926834 0.225485 0.350354 -0.235746
C27   C     C_R   0.942901 0.774640 0.650663 0.560813
C28   C     C_R   0.057098 0.225363 0.349328 0.560817
C29   C     C_R   0.876630 0.684706 0.597849 -0.231464
C30   C     C_R   0.123370 0.315295 0.402145 -0.231460
C31   C     C_R   0.937734 0.591889 0.549815 -0.008374
C32   C     C_R   0.062266 0.408112 0.450182 -0.008376
C33   C     C_R   0.068255 0.591703 0.551926 0.074923
C34   C     C_R   0.931745 0.408297 0.448072 0.074923
C35   C     C_R   0.870869 0.500165 0.497950 -0.126465
C36   C     C_R   0.129131 0.499835 0.502049 -0.126465
Cu1   Cu    Cu3+1 0.509250 0.507730 0.615930 0.936952
Cu2   Cu    Cu3+1 0.490750 0.492270 0.384070 0.936953
H1    H     H_    0.235009 0.689310 0.601989 0.159568
H2    H     H_    0.764991 0.310691 0.398009 0.159567
H3    H     H_    0.127588 0.844242 0.684314 0.152975
H4    H     H_    0.872411 0.155761 0.315677 0.152972
H5    H     H_    0.776351 0.688962 0.595346 0.151617
H6    H     H_    0.223648 0.311040 0.404647 0.151619
H7    H     H_    0.529255 0.812137 0.352706 0.194268
H8    H     H_    0.470741 0.187862 0.647293 0.194263
H9    H     H_    0.468959 0.840086 0.718167 0.161132
H10   H     H_    0.531050 0.159916 0.281836 0.161119
H11   H     H_    0.405040 0.389940 0.786801 0.146969
H12   H     H_    0.594962 0.610059 0.213200 0.146965
H13   H     H_    0.637263 0.652637 0.810365 0.144923
H14   H     H_    0.362735 0.347363 0.189634 0.144924
N1    N     N_R   0.523180 0.519350 0.790130 -0.204510
N2    N     N_R   0.476820 0.480650 0.209870 -0.204508
O1    O     O_R   0.506570 0.354460 0.582000 -0.589556
O2    O     O_R   0.493430 0.645540 0.418000 -0.589554
O3    O     O_R   0.490940 0.341410 0.386200 -0.602640
O4    O     O_R   0.509060 0.658590 0.613800 -0.602639
O5    O     O_R   0.327470 0.506520 0.597900 -0.578626
O6    O     O_R   0.672530 0.493480 0.402100 -0.578628
O7    O     O_R   0.311840 0.493460 0.402100 -0.578351
O8    O     O_R   0.688160 0.506540 0.597900 -0.578352
O9    O     O_3   0.124283 0.137063 0.306917 -0.577851
C37   C     C_3   0.073333 0.086300 0.197418 -0.360928
H15   H     H_    0.043865 0.142477 0.139246 0.153783
H16   H     H_    0.994754 0.034117 0.208497 0.178241
H17   H     H_    0.145910 0.036311 0.153286 0.185008
O10   O     O_3   0.875718 0.862942 0.693067 -0.577846
C38   C     C_3   0.926654 0.913696 0.802577 -0.360925
H18   H     H_    0.005245 0.965874 0.791515 0.178235
H19   H     H_    0.956102 0.857513 0.860748 0.153779
H20   H     H_    0.854075 0.963689 0.846700 0.185007
N3    N     N_2   0.337129 0.298005 0.951685 -0.434906
H21   H     H_    0.386623 0.256977 0.885941 0.269402
C39   C     C_3   0.258957 0.232298 0.006625 -0.678727
H22   H     H_    0.206897 0.175585 0.938454 0.237441
H23   H     H_    0.190229 0.280443 0.059003 0.231849
H24   H     H_    0.316694 0.187622 0.062407 0.213649
N4    N     N_2   0.662866 0.701999 0.048315 -0.434896
H25   H     H_    0.613374 0.743019 0.114066 0.269403
C40   C     C_3   0.741019 0.767719 0.993372 -0.678730
H26   H     H_    0.793074 0.824438 0.061541 0.237443
H27   H     H_    0.683267 0.812389 0.937594 0.213645
H28   H     H_    0.809753 0.719585 0.940990 0.231841
O11   O     O_3   0.544700 0.954970 0.239415 -0.602270
C41   C     C_3   0.437572 0.951017 0.163419 -0.359253
H29   H     H_    0.416952 0.028946 0.140173 0.169081
H30   H     H_    0.355646 0.920154 0.201339 0.176508
H31   H     H_    0.454802 0.896848 0.081455 0.193045
O12   O     O_3   0.455306 0.045026 0.760587 -0.602262
C42   C     C_3   0.562468 0.049028 0.836549 -0.359285
H32   H     H_    0.644341 0.079962 0.798615 0.176508
H33   H     H_    0.583184 0.971099 0.859762 0.169086
H34   H     H_    0.545222 0.103161 0.918535 0.193037

loop_
_geom_bond_atom_site_label_1
_geom_bond_atom_site_label_2
_ccdc_geom_bond_type
C27   C29   A    
N3    H21   S    
C19   C20   A    
C16   H13   S    
Cu1   O8    S    
C21   C36   S    
O11   C41   S    
C22   C35   S    
C32   C36   A    
C24   C26   A    
C21   O5    A    
C22   O6    A    
C41   H30   S    
C42   H33   S    
C33   C36   A    
C18   C20   A    
C34   C35   A    
C38   H19   S    
C16   N1    A    
C27   O10   S    
C18   N1    A    
C17   C19   A    
O10   C38   S    
C23   C33   A    
C31   C33   A    
C21   O7    A    
Cu1   O4    S    
Cu2   O7    S    
C5    O11   S    
C9    H8    S    
C29   H5    S    
N3    C39   S    
C30   H6    S    
C4    C7    A    
C40   H27   S    
C40   H26   S    
C37   H17   S    
C5    C12   A    
C3    C8    A    
C25   H3    S    
C6    C11   A    
C5    C7    A    
C41   H29   S    
C6    C8    A    
C6    O12   S    
C24   C34   A    
N4    H25   S    
C32   C34   A    
C38   H20   S    
C39   H22   S    
C15   N2    A    
Cu1   Cu2   S    
C1    O3    A    
C22   O8    A    
Cu2   O3    S    
C9    C11   A    
Cu2   N2    S    
C10   H7    S    
C15   H14   S    
C39   H23   S    
Cu1   O5    S    
C10   C12   A    
Cu2   O6    S    
C13   N3    S    
C13   C15   A    
C14   C16   A    
C42   H32   S    
C40   H28   S    
C26   H4    S    
N4    C40   S    
C13   C20   A    
C14   C19   A    
C41   H31   S    
C17   H12   S    
C11   C12   A    
C2    O4    A    
C25   C27   A    
C26   C28   A    
C1    C4    S    
C7    H10   S    
C28   C30   A    
C2    C3    S    
C1    O1    A    
C8    H9    S    
Cu1   N1    S    
C29   C31   A    
C3    C10   A    
C2    O2    A    
C37   H15   S    
C42   H34   S    
C30   C32   A    
O12   C42   S    
C23   H1    S    
C24   H2    S    
C31   C35   A    
C23   C25   A    
C38   H18   S    
C39   H24   S    
C14   N4    S    
O9    C37   S    
Cu1   O1    S    
C28   O9    S    
Cu2   O2    S    
C4    C9    A    
C17   N2    A    
C18   H11   S    
C37   H16   S    
