data_str_m2_o10_o14_f0_pcu.sym.155
_audit_creation_date              2012-12-10T16:43:24-0500
_audit_creation_method            fapswitch 2.2
_symmetry_space_group_name_H-M    P1
_symmetry_Int_Tables_number       1
_space_group_crystal_system       triclinic
_cell_length_a                    10.746436
_cell_length_b                    8.721185
_cell_length_c                    7.447666
_cell_angle_alpha                 102.781714
_cell_angle_beta                  94.365598
_cell_angle_gamma                 92.619165
_cell_volume                      677.330829363

loop_
_atom_site_label
_atom_site_type_symbol
_atom_type_description
_atom_site_fract_x
_atom_site_fract_y
_atom_site_fract_z
_atom_type_partial_charge
C1    C     C_R   0.499111 0.200172 0.454440 0.886862
C2    C     C_R   0.077061 0.643243 0.617600 0.092447
C3    C     C_R   0.129677 0.513540 0.506533 -0.092869
C4    C     C_R   0.054199 0.392730 0.387772 -0.199457
C5    C     C_R   0.925874 0.394709 0.383077 -0.200227
C6    C     C_R   0.871469 0.517406 0.497360 -0.091674
C7    C     C_2   0.495840 0.032948 0.434008 -0.381962
C8    C     C_2   0.534979 0.966972 0.573266 -0.022255
C9    C     C_R   0.262882 0.504007 0.502559 0.787509
C10   C     C_R   0.512292 0.799782 0.546417 0.839042
C11   C     C_R   0.737454 0.505766 0.498814 0.776632
C12   C     C_R   0.151542 0.773268 0.727567 -0.175126
C13   C     C_R   0.096451 0.900843 0.832512 -0.134177
C14   C     C_R   0.966905 0.902519 0.828150 -0.138257
C15   C     C_R   0.891792 0.776672 0.718679 -0.177242
C16   C     C_R   0.945516 0.645111 0.612887 0.098425
Cu1   Cu    Cu3+1 0.513920 0.517380 0.684380 0.938989
Cu2   Cu    Cu3+1 0.486080 0.482620 0.315620 0.943344
H1    H     H_    0.095091 0.295035 0.300271 0.144205
H2    H     H_    0.597826 0.621898 0.051446 0.227489
H3    H     H_    0.252371 0.779478 0.731414 0.153728
H4    H     H_    0.154504 0.999567 0.915848 0.132938
H5    H     H_    0.924378 0.002533 0.908102 0.132085
H6    H     H_    0.791793 0.785110 0.714924 0.138206
H7    H     H_    0.868687 0.297875 0.293653 0.147769
H8    H     H_    0.453860 0.961877 0.302692 0.152152
H9    H     H_    0.402094 0.378228 0.948548 0.223857
N1    N     N_2   0.465100 0.456430 0.038520 -0.217965
N2    N     N_2   0.534900 0.543570 0.961480 -0.215468
O1    O     O_R   0.509050 0.286130 0.619770 -0.573614
O2    O     O_R   0.485540 0.256780 0.308360 -0.592637
O3    O     O_R   0.331410 0.514680 0.655740 -0.590074
O4    O     O_R   0.307900 0.485330 0.344330 -0.573111
O5    O     O_R   0.514460 0.743220 0.691640 -0.593114
O6    O     O_R   0.490950 0.713870 0.380230 -0.596634
O7    O     O_R   0.692100 0.514670 0.655670 -0.584279
O8    O     O_R   0.668590 0.485320 0.344260 -0.584731
C17   C     C_3   0.605338 0.056187 0.754457 -0.777153
H10   H     H_    0.648675 0.976056 0.834241 0.209298
H11   H     H_    0.683079 0.133908 0.727074 0.235262
H12   H     H_    0.540488 0.125536 0.844563 0.251787

loop_
_geom_bond_atom_site_label_1
_geom_bond_atom_site_label_2
_ccdc_geom_bond_type
C14   H5    S    
C17   H11   S    
C10   O6    A    
C3    C9    S    
Cu1   O7    S    
C2    C16   A    
Cu2   O6    S    
C2    C12   A    
Cu1   Cu2   S    
Cu2   N1    S    
C7    C8    D    
C10   O5    A    
C13   C14   A    
C9    O4    A    
Cu1   O1    S    
N1    N2    D    
C5    C6    A    
C7    H8    S    
C8    C17   S    
C5    H7    S    
C15   H6    S    
Cu2   O8    S    
C13   H4    S    
C2    C3    A    
H2    N2    S    
C17   H10   S    
Cu2   O4    S    
Cu1   O5    S    
C6    C16   A    
C3    C4    A    
C1    O2    A    
Cu1   N2    S    
C12   C13   A    
C17   H12   S    
C8    C10   S    
C6    C11   S    
C11   O8    A    
Cu1   O3    S    
C14   C15   A    
C1    O1    A    
Cu2   O2    S    
C9    O3    A    
C1    C7    S    
C4    H1    S    
C12   H3    S    
C15   C16   A    
C4    C5    A    
H9    N1    S    
C11   O7    A    
