data_str_m2_o14_o23_f0_pcu.sym.139
_audit_creation_date              2012-12-10T17:22:08-0500
_audit_creation_method            fapswitch 2.2
_symmetry_space_group_name_H-M    P1
_symmetry_Int_Tables_number       1
_space_group_crystal_system       triclinic
_cell_length_a                    15.886517
_cell_length_b                    10.792696
_cell_length_c                    9.642884
_cell_angle_alpha                 90.187994
_cell_angle_beta                  89.367884
_cell_angle_gamma                 94.294738
_cell_volume                      1648.6050426

loop_
_atom_site_label
_atom_site_type_symbol
_atom_type_description
_atom_site_fract_x
_atom_site_fract_y
_atom_site_fract_z
_atom_type_partial_charge
C1    C     C_R   0.494355 0.262816 0.500028 0.801618
C2    C     C_3   0.950110 0.510028 0.649937 -0.479980
C3    C     C_3   0.916804 0.488930 0.500311 0.099616
C4    C     C_3   0.959977 0.596001 0.405891 0.071783
C5    C     C_3   0.056931 0.577601 0.396355 -0.016309
C6    C     C_1   0.824456 0.493886 0.500280 -0.007917
C7    C     C_1   0.175435 0.482199 0.504614 0.023154
C8    C     C_1   0.251048 0.489647 0.502873 -0.208882
C9    C     C_R   0.366042 0.113893 0.662682 -0.171405
C10   C     C_R   0.306830 0.041737 0.741078 -0.156039
C11   C     C_R   0.307266 0.912983 0.739645 -0.146891
C12   C     C_R   0.340550 0.497490 0.500796 0.795574
C13   C     C_R   0.367093 0.855541 0.660197 -0.167730
C14   C     C_R   0.429086 0.926715 0.581870 0.039419
C15   C     C_R   0.428166 0.057857 0.582919 0.102381
C16   C     C_R   0.487208 0.128695 0.499113 -0.145375
C17   C     C_R   0.541125 0.071497 0.409348 -0.270408
C18   C     C_R   0.543668 0.943954 0.408606 0.250592
C19   C     C_R   0.489892 0.870779 0.498055 -0.155243
C20   C     C_R   0.630303 0.632405 0.144813 -0.102733
C21   C     C_R   0.707316 0.661285 0.079948 -0.257298
C22   C     C_R   0.712550 0.654273 0.937682 -0.257887
C23   C     C_R   0.497000 0.737072 0.499802 0.833781
C24   C     C_R   0.638116 0.632675 0.861990 0.323533
C25   C     C_R   0.565550 0.566558 0.925707 0.151926
C26   C     C_R   0.564140 0.566056 0.074730 0.094298
C27   C     C_R   0.439072 0.434171 0.074144 0.346663
C28   C     C_R   0.439739 0.434370 0.926146 -0.121928
C29   C     C_R   0.659540 0.499840 0.499429 0.815769
C30   C     C_3   0.047742 0.507382 0.652555 0.111860
C31   C     C_3   0.041598 0.349372 0.450961 -0.015295
C32   C     C_3   0.940918 0.354786 0.446878 0.415778
C33   C     C_1   0.749013 0.497239 0.499082 -0.227870
C34   C     C_3   0.083061 0.477987 0.504436 0.115984
Cu1   Cu    Cu3+1 0.499990 0.499990 0.640660 0.944791
Cu2   Cu    Cu3+1 0.500010 0.500010 0.359340 0.956207
H1    H     H_    0.932617 0.601401 0.690174 0.191151
H2    H     H_    0.933483 0.584672 0.299624 0.104800
H3    H     H_    0.259437 0.085870 0.801204 0.134413
H4    H     H_    0.260142 0.857148 0.798605 0.129325
H5    H     H_    0.362367 0.755256 0.658463 0.151631
N1    N     N_R   0.500800 0.501210 0.147910 -0.207794
N2    N     N_R   0.500820 0.501290 0.852040 -0.205855
O1    O     O_R   0.499990 0.319640 0.618810 -0.582709
O2    O     O_R   0.500000 0.319660 0.381240 -0.565339
O3    O     O_R   0.379430 0.499990 0.618840 -0.596340
O4    O     O_R   0.379440 0.500020 0.381260 -0.538870
O5    O     O_R   0.500000 0.680340 0.618760 -0.548948
O6    O     O_R   0.500010 0.680360 0.381190 -0.580689
O7    O     O_R   0.620560 0.499980 0.618740 -0.565166
O8    O     O_R   0.620570 0.500010 0.381160 -0.593768
H6    H     H_    0.918911 0.440600 0.722234 0.177896
H7    H     H_    0.073774 0.601335 0.682466 0.163706
H8    H     H_    0.584505 0.126875 0.342558 0.161837
H9    H     H_    0.360937 0.213191 0.662620 0.135408
N3    N     N_2   0.602632 0.890374 0.319239 -0.422665
H10   H     H_    0.599182 0.920634 0.218181 0.256883
C35   C     C_3   0.688147 0.902856 0.369502 -0.778960
H11   H     H_    0.730643 0.862956 0.292397 0.225443
H12   H     H_    0.692141 0.852824 0.469366 0.239462
H13   H     H_    0.709756 0.002307 0.383536 0.230483
N4    N     N_2   0.375889 0.358946 0.146131 -0.373682
H14   H     H_    0.381442 0.265346 0.130385 0.232005
C36   C     C_3   0.290310 0.392736 0.126163 -0.708390
H15   H     H_    0.247241 0.339307 0.199387 0.219297
H16   H     H_    0.269344 0.370809 0.018751 0.203207
H17   H     H_    0.285766 0.493385 0.146980 0.243367
N5    N     N_2   0.073965 0.420652 0.756703 -0.397070
H18   H     H_    0.042488 0.333802 0.754795 0.285584
C37   C     C_3   0.083325 0.469250 0.896261 -0.757442
H19   H     H_    0.105582 0.396535 0.965219 0.232320
H20   H     H_    0.021824 0.497479 0.936624 0.229807
H21   H     H_    0.130849 0.550139 0.897817 0.233735
H22   H     H_    0.624479 0.663817 0.248903 0.228940
H23   H     H_    0.760816 0.700180 0.138239 0.151383
H24   H     H_    0.769563 0.694238 0.887376 0.143293
N6    N     N_2   0.631554 0.714496 0.748893 -0.365925
H25   H     H_    0.683768 0.718515 0.683961 0.220818
C38   C     C_3   0.611319 0.838306 0.790768 -0.677316
H26   H     H_    0.609646 0.898886 0.698420 0.223040
H27   H     H_    0.660103 0.881103 0.861548 0.210151
H28   H     H_    0.548608 0.834434 0.843467 0.243483
H29   H     H_    0.391309 0.379404 0.870547 0.143633
H30   H     H_    0.065468 0.339309 0.342827 0.133403
N7    N     N_2   0.066420 0.238886 0.525094 -0.430100
H31   H     H_    0.029773 0.159706 0.498162 0.277122
C39   C     C_3   0.154237 0.210528 0.523380 -0.695488
H32   H     H_    0.158912 0.110146 0.544952 0.215398
H33   H     H_    0.188893 0.261820 0.607448 0.255626
H34   H     H_    0.184141 0.231330 0.420588 0.219828
N8    N     N_2   0.899863 0.256108 0.535961 -0.408361
H35   H     H_    0.923543 0.248741 0.634342 0.244146
C40   C     C_3   0.810230 0.218869 0.530487 -0.695105
H36   H     H_    0.776214 0.265775 0.614434 0.225702
H37   H     H_    0.800888 0.117315 0.548682 0.218085
H38   H     H_    0.782175 0.239564 0.429303 0.237449
N9    N     N_2   0.913912 0.335759 0.302321 -0.458272
H39   H     H_    0.858785 0.373690 0.275152 0.249232
C41   C     C_3   0.922575 0.215657 0.237048 -0.691224
H40   H     H_    0.985254 0.180744 0.255798 0.224947
H41   H     H_    0.915319 0.224829 0.123241 0.218687
H42   H     H_    0.873056 0.145833 0.275337 0.241537
N10   N     N_2   0.112174 0.693415 0.389415 -0.420820
H43   H     H_    0.162418 0.689401 0.321145 0.252499
C42   C     C_3   0.133960 0.768196 0.511109 -0.683805
H44   H     H_    0.161795 0.860719 0.477188 0.223460
H45   H     H_    0.182098 0.724964 0.573409 0.215688
H46   H     H_    0.078047 0.784071 0.576340 0.244266
H47   H     H_    0.064755 0.535381 0.291650 0.086151
N11   N     N_2   0.946171 0.723117 0.451420 -0.390788
H48   H     H_    0.978645 0.788353 0.389127 0.290554
C43   C     C_3   0.861212 0.759939 0.471173 -0.756198
H49   H     H_    0.861849 0.863013 0.473219 0.225035
H50   H     H_    0.835380 0.727122 0.572912 0.238735
H51   H     H_    0.820502 0.724603 0.384827 0.227499

loop_
_geom_bond_atom_site_label_1
_geom_bond_atom_site_label_2
_ccdc_geom_bond_type
C39   H32   S    
C5    N10   S    
C40   H36   S    
C31   N7    S    
Cu2   N1    S    
Cu1   Cu2   S    
C2    H1    S    
C22   H24   S    
C3    C6    S    
C25   N2    A    
C43   H50   S    
N9    H39   S    
C7    C8    T    
N6    H25   S    
N3    H10   S    
C42   H45   S    
C5    H47   S    
C23   O6    A    
C32   N8    S    
C35   H12   S    
C15   C16   A    
C29   C33   S    
C32   N9    S    
Cu2   O4    S    
C18   C19   A    
N11   H48   S    
N4    C36   S    
C41   H40   S    
N5    H18   S    
C37   H19   S    
C9    H9    S    
Cu1   N2    S    
C9    C10   A    
C18   N3    S    
C35   H13   S    
N7    C39   S    
C40   H37   S    
C21   C22   A    
C28   H29   S    
C3    C32   S    
Cu1   O7    S    
C12   O4    A    
Cu1   O5    S    
C13   H5    S    
C43   H49   S    
N9    C41   S    
C29   O7    A    
N6    C38   S    
C30   H7    S    
C30   C34   S    
C36   H17   S    
C24   C25   A    
C12   O3    A    
N8    H35   S    
C38   H27   S    
C16   C17   A    
C35   H11   S    
N7    H31   S    
C31   H30   S    
C10   H3    S    
C36   H16   S    
C19   C23   S    
N4    H14   S    
C27   N4    S    
N8    C40   S    
C1    O1    A    
C31   C32   S    
C8    C12   S    
C5    C34   S    
C37   H21   S    
C17   C18   A    
C31   C34   S    
C20   H22   S    
Cu2   O2    S    
N10   C42   S    
C1    C16   S    
C42   H46   S    
Cu1   O1    S    
Cu2   O8    S    
C2    H6    S    
C41   H41   S    
C4    H2    S    
C40   H38   S    
C39   H33   S    
C7    C34   S    
C22   C24   A    
C3    C4    S    
N10   H43   S    
C26   N1    A    
C29   O8    A    
C4    N11   S    
C23   O5    A    
C14   C19   A    
C4    C5    S    
C38   H28   S    
C42   H44   S    
C21   H23   S    
C28   N2    A    
C6    C33   T    
C2    C30   S    
C36   H15   S    
C2    C3    S    
C25   C26   A    
C11   C13   A    
C27   N1    A    
C1    O2    A    
C20   C26   A    
N3    C35   S    
C9    C15   A    
C11   H4    S    
N11   C43   S    
C10   C11   A    
C38   H26   S    
C24   N6    S    
C41   H42   S    
C20   C21   A    
N5    C37   S    
C39   H34   S    
C27   C28   A    
C14   C15   A    
C37   H20   S    
C13   C14   A    
Cu1   O3    S    
C17   H8    S    
C43   H51   S    
C30   N5    S    
Cu2   O6    S    
