data_str_m12_o9_o11_f0_bcu.sym.64
_audit_creation_date              2012-12-11T17:39:38-0500
_audit_creation_method            fapswitch 2.2
_symmetry_space_group_name_H-M    P1
_symmetry_Int_Tables_number       1
_space_group_crystal_system       triclinic
_cell_length_a                    15.147064
_cell_length_b                    15.113015
_cell_length_c                    14.93202
_cell_angle_alpha                 108.827201
_cell_angle_beta                  110.43119
_cell_angle_gamma                 109.976302
_cell_volume                      2603.92802378

loop_
_atom_site_label
_atom_site_type_symbol
_atom_type_description
_atom_site_fract_x
_atom_site_fract_y
_atom_site_fract_z
_atom_type_partial_charge
C1    C     C_R   0.911868 0.908638 0.712217 -0.141375
C2    C     C_R   0.001359 0.302950 0.440702 0.051674
C3    C     C_R   0.268010 0.319497 0.825235 0.129342
C4    C     C_R   0.709368 0.030420 0.533999 0.047000
C5    C     C_R   0.703819 0.694593 0.285207 -0.150666
C6    C     C_R   0.301230 0.089875 0.500174 -0.127046
C7    C     C_R   0.090392 0.780563 0.520991 -0.101679
C8    C     C_R   0.906838 0.937800 0.186035 -0.142448
C9    C     C_R   0.089963 0.027273 0.277569 -0.119720
C10   C     C_R   0.908155 0.685056 0.441471 -0.136419
C11   C     C_R   0.700984 0.786848 0.195063 -0.131830
C12   C     C_R   0.091663 0.298840 0.497362 -0.164963
C13   C     C_R   0.301224 0.002369 0.595117 -0.169368
C14   C     C_R   0.643616 0.688837 0.188002 0.138131
C15   C     C_R   0.361261 0.057872 0.561020 0.059529
C16   C     C_R   0.000689 0.677348 0.457563 0.043131
C17   C     C_R   0.996106 0.950015 0.173000 0.053255
C18   C     C_R   0.489854 0.676586 0.359676 -0.117722
C19   C     C_R   0.505377 0.781254 0.395071 -0.114344
C20   C     C_R   0.523770 0.842148 0.500227 0.114016
C21   C     C_R   0.523708 0.795744 0.568082 -0.190118
C22   C     C_R   0.508365 0.691180 0.532426 -0.102784
C23   C     C_R   0.245249 0.218616 0.813233 -0.155183
C24   C     C_R   0.491758 0.631760 0.428423 -0.108419
C25   C     C_R   0.461733 0.967682 0.554584 -0.242851
C26   C     C_R   0.461685 0.064275 0.574120 0.064324
C27   C     C_R   0.547282 0.154119 0.588369 0.025598
C28   C     C_R   0.630415 0.141731 0.577411 -0.246178
C29   C     C_R   0.626169 0.042208 0.551314 0.070154
C30   C     C_R   0.540643 0.953602 0.538984 0.016329
C31   C     C_R   0.572422 0.309795 0.552195 -0.157349
C32   C     C_R   0.566752 0.403763 0.568650 -0.135336
C33   C     C_R   0.537406 0.446851 0.643678 -0.060034
C34   C     C_R   0.739931 0.053756 0.463276 -0.144398
C35   C     C_R   0.515516 0.397054 0.703674 -0.089873
C36   C     C_R   0.524464 0.305352 0.690187 -0.168788
C37   C     C_R   0.550006 0.258819 0.611982 0.118683
C38   C     C_R   0.806085 0.117584 0.084499 -0.113657
C39   C     C_R   0.881729 0.215401 0.184340 -0.139516
C40   C     C_R   0.847414 0.283461 0.231611 0.121643
C41   C     C_R   0.736163 0.252367 0.175980 -0.176745
C42   C     C_R   0.660913 0.154749 0.075464 -0.116802
C43   C     C_R   0.695786 0.087308 0.029954 -0.075414
C44   C     C_R   0.929439 0.482975 0.347116 -0.247661
C45   C     C_R   0.244065 0.311312 0.723009 -0.126064
C46   C     C_R   0.008889 0.582361 0.444686 0.071604
C47   C     C_R   0.092473 0.589112 0.532658 0.018329
C48   C     C_R   0.091609 0.495774 0.522726 -0.227872
C49   C     C_R   0.007899 0.395426 0.429340 0.055691
C50   C     C_R   0.928381 0.387701 0.337614 0.025025
C51   C     C_R   0.283394 0.747558 0.670058 -0.169762
C52   C     C_R   0.357485 0.847116 0.768760 -0.061730
C53   C     C_R   0.323934 0.886040 0.841287 -0.058629
C54   C     C_R   0.216079 0.825731 0.814869 -0.125974
C55   C     C_R   0.141138 0.727609 0.715355 -0.136720
C56   C     C_R   0.748577 0.967650 0.561477 -0.108322
C57   C     C_R   0.174020 0.688747 0.641761 0.099675
C58   C     C_2   0.352444 0.515022 0.941512 -0.097171
C59   C     C_2   0.318426 0.416342 0.931032 -0.210049
C60   C     C_2   0.455523 0.610698 0.039727 -0.123642
C61   C     C_2   0.534211 0.598499 0.101720 -0.250647
C62   C     C_R   0.413711 0.142863 0.120802 -0.118666
C63   C     C_R   0.311327 0.051262 0.073154 -0.187807
C64   C     C_R   0.215711 0.057349 0.036490 0.108228
C65   C     C_R   0.224957 0.157944 0.053421 -0.137638
C66   C     C_R   0.327655 0.249622 0.102144 -0.139766
C67   C     C_R   0.909143 0.210996 0.409538 -0.121088
C68   C     C_R   0.421841 0.241865 0.134793 -0.095053
C69   C     C_R   0.098881 0.943563 0.078217 -0.216824
C70   C     C_R   0.996248 0.902628 0.069527 0.055074
C71   C     C_R   0.901276 0.839342 0.962208 0.030256
C72   C     C_R   0.914027 0.834992 0.873416 -0.231203
C73   C     C_R   0.012386 0.911143 0.892422 0.048845
C74   C     C_R   0.108807 0.964001 0.997061 0.007217
C75   C     C_R   0.735806 0.704272 0.946710 -0.153847
C76   C     C_R   0.624259 0.657844 0.911846 -0.221524
C77   C     C_R   0.563544 0.699981 0.865378 0.057649
C78   C     C_R   0.093505 0.996798 0.799278 -0.143469
C79   C     C_R   0.615421 0.791033 0.857937 -0.197897
C80   C     C_R   0.726255 0.837589 0.892848 -0.195943
C81   C     C_R   0.787235 0.794508 0.937131 0.115668
C82   C     C_R   0.006466 0.941219 0.807203 0.056847
H1    H     H_    0.828106 0.851355 0.682585 0.093719
H2    H     H_    0.328578 0.143295 0.469821 0.110058
H3    H     H_    0.174030 0.803871 0.544953 0.110136
H4    H     H_    0.821259 0.889526 0.124995 0.128775
H5    H     H_    0.174624 0.060370 0.300725 0.095322
H6    H     H_    0.824479 0.619088 0.398172 0.095870
H7    H     H_    0.670116 0.814383 0.139323 0.108703
H8    H     H_    0.329271 0.977256 0.654348 0.105023
H9    H     H_    0.479947 0.550823 0.400926 0.100862
H10   H     H_    0.476210 0.630136 0.278896 0.121181
H11   H     H_    0.503773 0.815125 0.341097 0.113624
H12   H     H_    0.175397 0.351220 0.521905 0.134514
H13   H     H_    0.536773 0.841142 0.648924 0.106729
H14   H     H_    0.509375 0.656281 0.585450 0.115222
H15   H     H_    0.393601 0.898012 0.540426 0.133033
H16   H     H_    0.698030 0.208934 0.588107 0.131669
H17   H     H_    0.591455 0.275382 0.490818 0.110460
H18   H     H_    0.583168 0.442041 0.521743 0.107773
H19   H     H_    0.530973 0.518324 0.654786 0.124832
H20   H     H_    0.489875 0.428112 0.759526 0.138424
H21   H     H_    0.507926 0.268617 0.738223 0.119825
H22   H     H_    0.637435 0.011990 0.952229 0.100771
H23   H     H_    0.254964 0.197014 0.876730 0.119568
H24   H     H_    0.833555 0.065904 0.049442 0.114529
H25   H     H_    0.967166 0.238211 0.224518 0.116877
H26   H     H_    0.707489 0.303124 0.210625 0.103649
H27   H     H_    0.575569 0.131442 0.032701 0.102403
H28   H     H_    0.868512 0.480183 0.279122 0.130835
H29   H     H_    0.151791 0.501215 0.593713 0.151728
H30   H     H_    0.309825 0.718405 0.613922 0.120896
H31   H     H_    0.440743 0.894017 0.788938 0.086085
H32   H     H_    0.381493 0.962770 0.917836 0.097171
H33   H     H_    0.189574 0.855155 0.870437 0.115790
H34   H     H_    0.718887 0.097783 0.423335 0.100957
H35   H     H_    0.057114 0.682963 0.694542 0.118426
H36   H     H_    0.314971 0.523222 0.870835 0.154175
H37   H     H_    0.345969 0.407809 0.003563 0.128359
H38   H     H_    0.472147 0.690979 0.052722 0.156360
H39   H     H_    0.520656 0.519067 0.088790 0.139946
H40   H     H_    0.501271 0.312945 0.172550 0.091599
H41   H     H_    0.486930 0.137496 0.148623 0.108060
H42   H     H_    0.306766 0.976108 0.066366 0.117773
H43   H     H_    0.152836 0.165519 0.030284 0.117449
H44   H     H_    0.334321 0.326960 0.115768 0.103294
H45   H     H_    0.250316 0.374377 0.702688 0.157145
H46   H     H_    0.173434 0.980886 0.155748 0.126420
H47   H     H_    0.841500 0.784907 0.791625 0.127678
H48   H     H_    0.781512 0.669738 0.979970 0.128878
H49   H     H_    0.585363 0.589196 0.920844 0.135797
H50   H     H_    0.569066 0.823202 0.820914 0.112972
H51   H     H_    0.764124 0.905535 0.882296 0.120586
H52   H     H_    0.738606 0.935043 0.614084 0.109494
H53   H     H_    0.824481 0.183909 0.355562 0.103689
H54   H     H_    0.176544 0.015206 0.844679 0.114265
H55   H     H_    0.675304 0.638663 0.312780 0.090899
N1    N     N_R   0.941940 0.944580 0.650780 -0.039221
N2    N     N_R   0.206190 0.054080 0.497260 -0.040067
N3    N     N_R   0.056380 0.847410 0.553580 -0.042034
N4    N     N_R   0.944890 0.999100 0.292900 -0.041784
N5    N     N_R   0.058060 0.055420 0.349220 -0.041818
N6    N     N_R   0.943200 0.791100 0.497260 -0.039835
N7    N     N_R   0.795540 0.849750 0.292910 -0.045728
N8    N     N_R   0.205730 0.996760 0.553580 -0.038201
N9    N     N_R   0.056800 0.208900 0.502740 -0.040529
N10   N     N_R   0.204460 0.150250 0.707090 -0.042406
N11   N     N_R   0.794270 0.003240 0.446420 -0.041586
N12   N     N_R   0.204920 0.207570 0.650770 -0.045473
N13   N     N_R   0.793810 0.945920 0.502740 -0.041716
N14   N     N_R   0.943620 0.152590 0.446420 -0.039470
N15   N     N_R   0.055110 0.000900 0.707100 -0.039408
N16   N     N_R   0.795080 0.792430 0.349230 -0.038443
Ni1   Ni    Ni4+2 0.869690 0.869690 0.500000 0.215546
Ni2   Ni    Ni4+2 0.130310 0.130310 0.500000 0.220969
Ni3   Ni    Ni4+2 0.129250 0.998840 0.629170 0.215348
Ni4   Ni    Ni4+2 0.870750 0.001160 0.370830 0.215744
C83   C     C_2   0.444899 0.646496 0.818634 0.911891
O1    O     O_2   0.385925 0.552241 0.743063 -0.715739
O2    O     O_R   0.399901 0.704711 0.858557 -0.813393
H56   H     H_    0.317063 0.659433 0.819413 0.320152

loop_
_geom_bond_atom_site_label_1
_geom_bond_atom_site_label_2
_ccdc_geom_bond_type
C66   C68   A    
C40   C41   A    
C51   H30   S    
C41   H26   S    
C13   H8    S    
C41   C42   A    
C3    C23   A    
C35   C36   A    
N3    N6    A    
C13   N8    A    
C33   H19   S    
C35   H20   S    
C2    C12   A    
C63   H42   S    
C78   N15   A    
C72   H47   S    
C20   C30   S    
C52   H31   S    
C53   H32   S    
C39   H25   S    
C10   H6    S    
C26   C27   A    
C29   C30   A    
C36   H21   S    
C18   C24   A    
N14   Ni4   S    
C36   C37   A    
N10   N12   A    
C42   H27   S    
N11   N13   A    
C7    N3    A    
C80   C81   A    
C11   C14   A    
C5    N16   A    
C58   C60   S    
C23   H23   S    
C58   H36   S    
C61   H39   S    
C18   C19   A    
C73   C74   A    
C12   N9    A    
C6    N2    A    
C78   C82   A    
C43   H22   S    
C33   C35   A    
C6    C15   A    
C54   C55   A    
N8    Ni3   S    
C34   N11   A    
N9    Ni2   S    
N15   Ni3   S    
C69   H46   S    
C70   C71   A    
C51   C57   A    
C31   H17   S    
N5    Ni2   S    
C11   N7    A    
C45   N12   A    
C4    C29   S    
C19   H11   S    
C75   H48   S    
C77   C83   S    
C10   N6    A    
N1    Ni1   S    
C17   C70   S    
N16   Ni1   S    
C21   C22   A    
C4    C56   A    
C83   O2    S    
C12   H12   S    
C32   H18   S    
C62   H41   S    
C44   C46   A    
C77   C79   A    
C38   C39   A    
C4    C34   A    
C6    H2    S    
C63   C64   A    
C67   N14   A    
C51   C52   A    
C47   C48   A    
C76   C77   A    
C2    C67   A    
C68   H40   S    
C39   C40   A    
C75   C81   A    
C15   C26   S    
C21   H13   S    
N1    N15   A    
C25   C26   A    
C53   C54   A    
C14   C61   S    
C23   N10   A    
C3    C45   A    
C80   H51   S    
C31   C37   A    
C60   C61   D    
C65   H43   S    
C38   H24   S    
C67   H53   S    
C75   C76   A    
C62   C63   A    
C2    C49   S    
C28   H16   S    
C47   C57   S    
C11   H7    S    
C31   C32   A    
N2    Ni2   S    
C54   H33   S    
C69   C74   A    
C9    C17   A    
N10   Ni3   S    
C5    C14   A    
C8    N4    A    
N3    Ni3   S    
N4    Ni4   S    
C48   C49   A    
C65   C66   A    
C13   C15   A    
C16   C46   S    
C83   O1    D    
C22   C24   A    
C79   C80   A    
C58   C59   D    
C42   C43   A    
C56   N13   A    
C28   C29   A    
C24   H9    S    
C73   C82   S    
C52   C53   A    
C55   H35   S    
C44   C50   A    
C25   C30   A    
C46   C47   A    
N2    N8    A    
C59   H37   S    
C22   H14   S    
C7    C16   A    
C25   H15   S    
C72   C73   A    
N6    Ni1   S    
C56   H52   S    
C9    N5    A    
C5    H55   S    
C1    H1    S    
C8    C17   A    
C62   C68   A    
C18   H10   S    
C32   C33   A    
C19   C20   A    
C55   C57   A    
C1    C82   A    
C38   C43   A    
C10   C16   A    
N4    N5    A    
C64   C65   A    
C7    H3    S    
C78   H54   S    
C45   H45   S    
C40   C50   S    
C79   H50   S    
C76   H49   S    
C60   H38   S    
C8    H4    S    
N11   Ni4   S    
N12   Ni2   S    
C69   C70   A    
O2    H56   S    
N9    N14   A    
C66   H44   S    
C71   C72   A    
C48   H29   S    
C20   C21   A    
C49   C50   A    
N13   Ni1   S    
C27   C28   A    
C64   C74   S    
N7    Ni4   S    
N7    N16   A    
C34   H34   S    
C9    H5    S    
C1    N1    A    
C27   C37   S    
C44   H28   S    
C71   C81   S    
C3    C59   S    
