data_str_m3_o10_o29_f0_pcu.sym.200
_audit_creation_date              2013-03-05T15:42:40-0500
_audit_creation_method            fapswitch 2.2
_symmetry_space_group_name_H-M    P1
_symmetry_Int_Tables_number       1
_space_group_crystal_system       triclinic
_cell_length_a                    7.730638
_cell_length_b                    8.553139
_cell_length_c                    27.063884
_cell_angle_alpha                 90.697339
_cell_angle_beta                  86.034671
_cell_angle_gamma                 93.880869
_cell_volume                      1781.06910348

loop_
_atom_site_label
_atom_site_type_symbol
_atom_site_description
_atom_site_fract_x
_atom_site_fract_y
_atom_site_fract_z
_atom_type_partial_charge
O1    O     O_R   0.389250 0.738570 0.503220 -0.617660
O2    O     O_R   0.610750 0.261430 0.496780 -0.619155
O3    O     O_R   0.678390 0.711630 0.494810 -0.624149
O4    O     O_R   0.321610 0.288370 0.505190 -0.629223
C1    C     C_R   0.545901 0.794876 0.497732 0.977171
C2    C     C_R   0.453781 0.205019 0.500591 0.966212
O5    O     O_R   0.355440 0.513440 0.575450 -0.603206
O6    O     O_R   0.644560 0.486560 0.424550 -0.613189
O7    O     O_R   0.644590 0.486500 0.567040 -0.628390
O8    O     O_R   0.355410 0.513500 0.432960 -0.612384
C3    C     C_R   0.502835 0.502343 0.594286 0.859801
C4    C     C_R   0.497590 0.501282 0.405766 0.856904
Zn1   Zn    Zn3+2 0.306940 0.517990 0.505620 0.937581
Zn2   Zn    Zn3+2 0.693060 0.482010 0.494380 0.931226
C5    C     C_R   0.608173 0.659474 0.825315 0.547841
C6    C     C_R   0.273297 0.690297 0.190562 0.532841
O9    O     O_2   0.764058 0.676800 0.799497 -0.514574
O10   O     O_2   0.129369 0.648340 0.219759 -0.528092
N1    N     N_R   0.465068 0.599908 0.802643 -0.360391
N2    N     N_R   0.431711 0.710056 0.210388 -0.354120
C7    C     C_R   0.308446 0.571471 0.828886 0.552337
C8    C     C_R   0.574999 0.771714 0.182675 0.551210
C9    C     C_R   0.425841 0.427097 0.730009 -0.048976
C10   C     C_R   0.538591 0.747414 0.293661 -0.065280
C11   C     C_R   0.437587 0.403652 0.678908 -0.247496
C12   C     C_R   0.565705 0.688944 0.339829 -0.243420
C13   C     C_R   0.568531 0.669101 0.667486 -0.035558
C14   C     C_R   0.404128 0.443431 0.320382 -0.040257
C15   C     C_R   0.547243 0.693914 0.718471 -0.123546
C16   C     C_R   0.386894 0.500488 0.272762 -0.130966
C17   C     C_R   0.478703 0.573199 0.750027 0.258924
C18   C     C_R   0.450800 0.653348 0.259462 0.259801
C19   C     C_R   0.436448 0.669022 0.903558 -0.083033
C20   C     C_R   0.409678 0.762007 0.110140 -0.082758
C21   C     C_R   0.594148 0.702834 0.875259 0.018978
C22   C     C_R   0.261281 0.707889 0.139608 0.011897
C23   C     C_R   0.736251 0.776102 0.897365 -0.055666
C24   C     C_R   0.106746 0.666786 0.117372 -0.040241
C25   C     C_R   0.294320 0.592943 0.880761 -0.142506
C26   C     C_R   0.562227 0.812501 0.132952 -0.140803
C27   C     C_R   0.509997 0.523333 0.647514 -0.072465
C28   C     C_R   0.496591 0.539245 0.353743 -0.058998
H1    H     H_    0.587013 0.807190 0.733913 0.162503
H2    H     H_    0.322747 0.426120 0.245924 0.167495
H3    H     H_    0.859075 0.802057 0.876324 0.193212
H4    H     H_    0.988435 0.631809 0.139414 0.205135
C29   C     C_R   0.560011 0.809993 0.028821 -0.009915
C30   C     C_R   0.266481 0.667319 0.983540 -0.009852
C31   C     C_R   0.257288 0.697261 0.035364 0.083469
C32   C     C_R   0.569420 0.781302 0.977064 0.080492
C33   C     C_R   0.408072 0.758713 0.057880 0.093381
C34   C     C_R   0.423347 0.707371 0.954792 0.089783
C35   C     C_R   0.698256 0.887873 0.052880 -0.293588
C36   C     C_R   0.129466 0.584416 0.960385 -0.294984
C37   C     C_R   0.700254 0.891385 0.104441 0.335784
C38   C     C_R   0.143243 0.543000 0.910281 0.345223
O11   O     O_2   0.731747 0.782509 0.201945 -0.499275
O12   O     O_2   0.165960 0.529297 0.804508 -0.472691
C39   C     C_R   0.724820 0.813961 0.947250 -0.192101
C40   C     C_R   0.103992 0.663025 0.066102 -0.186325
H5    H     H_    0.632821 0.764175 0.365907 0.134107
H6    H     H_    0.389380 0.292466 0.663820 0.136575
H7    H     H_    0.585673 0.866444 0.284599 0.174506
H8    H     H_    0.373503 0.332428 0.753982 0.171053
H9    H     H_    0.805059 0.950667 0.032495 0.191652
H10   H     H_    0.013726 0.538880 0.981199 0.186500
H11   H     H_    0.843260 0.863372 0.961557 0.152677
H12   H     H_    0.979742 0.631158 0.051774 0.143789
C41   C     C_2   0.569499 0.958226 0.494570 -0.382142
C42   C     C_2   0.429184 0.041378 0.500500 -0.394308
H13   H     H_    0.701624 0.009703 0.488287 0.179243
H14   H     H_    0.296852 0.989958 0.506307 0.174279
N3    N     N_2   0.950320 0.457960 0.486880 -0.177623
N4    N     N_2   0.049680 0.542040 0.513120 -0.179140
H15   H     H_    0.013373 0.380678 0.463688 0.196883
H16   H     H_    0.986675 0.619951 0.535913 0.188548
C43   C     C_R   0.654864 0.797184 0.636745 0.103873
C44   C     C_R   0.575453 0.938785 0.632417 -0.183105
C45   C     C_R   0.665338 0.065320 0.607621 -0.098519
C46   C     C_R   0.834570 0.051484 0.587070 -0.091388
C47   C     C_R   0.914355 0.910941 0.591333 -0.170884
C48   C     C_R   0.825253 0.784393 0.616353 -0.088793
H17   H     H_    0.445184 0.951615 0.648723 0.136564
H18   H     H_    0.603793 0.174015 0.604219 0.132891
H19   H     H_    0.903664 0.149567 0.567814 0.144522
H20   H     H_    0.045941 0.900660 0.575779 0.130586
H21   H     H_    0.890200 0.677737 0.620916 0.138560
C49   C     C_R   0.321471 0.286873 0.334733 0.101552
C50   C     C_R   0.147187 0.247110 0.325220 -0.123893
C51   C     C_R   0.067629 0.101435 0.339581 -0.109498
C52   C     C_R   0.160961 0.994211 0.363556 -0.089840
C53   C     C_R   0.334162 0.032209 0.373009 -0.146612
C54   C     C_R   0.414788 0.177142 0.358384 -0.158943
H22   H     H_    0.072069 0.329669 0.307320 0.162470
H23   H     H_    0.933235 0.072042 0.332365 0.142996
H24   H     H_    0.099091 0.881758 0.374845 0.143152
H25   H     H_    0.405933 0.949341 0.391769 0.138720
H26   H     H_    0.549835 0.203492 0.365498 0.125001
N5    N     N_R   0.836163 0.984513 0.127030 0.241062
O13   O     O_R   0.989409 0.006141 0.104112 -0.394438
O14   O     O_R   0.798195 0.071714 0.165494 -0.341551
N6    N     N_R   0.012023 0.434208 0.891932 0.250991
O15   O     O_R   0.849920 0.442920 0.907519 -0.395722
O16   O     O_R   0.057949 0.306593 0.869439 -0.340326

loop_
_geom_bond_atom_site_label_1
_geom_bond_atom_site_label_2
_geom_bond_distance
_ccdc_geom_bond_type
C13   C15   1.393673 A    
N3    N4    1.264806 D    
N1    C17   1.437228 S    
C8    O11   1.349069 S    
C47   C48   1.398903 A    
C51   H23   1.082716 S    
C43   C44   1.404090 A    
C19   C34   1.419320 A    
C5    N1    1.367450 A    
C20   C33   1.415198 A    
C19   C25   1.413685 A    
C31   C40   1.415912 A    
N4    H16   1.026754 S    
C20   C26   1.408443 A    
C32   C39   1.413608 A    
N1    C7    1.369311 A    
C12   H5    1.084328 S    
C10   C12   1.385959 A    
C41   C42   1.336322 D    
C45   H18   1.080361 S    
C48   H21   1.082989 S    
O4    Zn1   1.974739 S    
C2    C42   1.399689 S    
C14   C28   1.410562 A    
C50   H22   1.083177 S    
C41   H13   1.087646 S    
C4    C28   1.449405 S    
C39   H11   1.076831 S    
C52   H24   1.082545 S    
C44   H17   1.083176 S    
N5    O13   1.301513 A    
C31   C33   1.419108 A    
C14   C49   1.488205 S    
C32   C34   1.423575 A    
C35   H9    1.076440 S    
C47   H20   1.082446 S    
C6    N2    1.369984 A    
C29   C35   1.413923 A    
C15   H1    1.084193 S    
N3    H15   1.029418 S    
C16   H2    1.083497 S    
O2    C2    1.273027 A    
C5    C21   1.396180 A    
C53   H25   1.081170 S    
O5    C3    1.289720 A    
C29   C32   1.416896 A    
C35   C37   1.396516 A    
C36   C38   1.396070 A    
Zn2   N3    2.009304 S    
O4    C2    1.283197 A    
C11   C27   1.400335 A    
C52   C53   1.396534 A    
C44   C45   1.398519 A    
C29   C33   1.414709 A    
C13   C43   1.477902 S    
C1    C41   1.399611 S    
C9    C17   1.402539 A    
C30   C36   1.413064 A    
O7    Zn2   1.976623 S    
C10   C18   1.399807 A    
C46   H19   1.082663 S    
C13   C27   1.411538 A    
C25   C38   1.412988 A    
C7    C25   1.411349 A    
C30   C34   1.418821 A    
O6    C4    1.290725 A    
C26   C37   1.410867 A    
C8    C26   1.405976 A    
C49   C50   1.407501 A    
N6    O16   1.301696 A    
O7    C3    1.291858 A    
C23   C39   1.382809 A    
O3    Zn2   1.974739 S    
O8    C4    1.289373 A    
C24   C40   1.389167 A    
C9    H8    1.082795 S    
N5    O14   1.301746 A    
N2    C8    1.372338 A    
C10   H7    1.082907 S    
O1    C1    1.272186 A    
O1    Zn1   1.950212 S    
C23   H3    1.083925 S    
C12   C28   1.399281 A    
N2    C18   1.439945 S    
C5    O9    1.350676 S    
C49   C54   1.407529 A    
C30   C31   1.420460 A    
O6    Zn2   1.953323 S    
C21   C23   1.394995 A    
C46   C47   1.397258 A    
O3    C1    1.283897 A    
O8    Zn1   1.976623 S    
C36   H10   1.076116 S    
C14   C16   1.401686 A    
C38   N6    1.439500 S    
C7    O12   1.348948 S    
C15   C17   1.400345 A    
C6    C22   1.399140 A    
C16   C18   1.407993 A    
C51   C52   1.396954 A    
C43   C48   1.403250 A    
C22   C24   1.396550 A    
C53   C54   1.398246 A    
C19   C21   1.408890 A    
C3    C27   1.453925 S    
C20   C22   1.406041 A    
C11   H6    1.083343 S    
C9    C11   1.392640 A    
N6    O15   1.301035 A    
O2    Zn2   1.950212 S    
C24   H4    1.083386 S    
C45   C46   1.397737 A    
O5    Zn1   1.953323 S    
Zn1   N4    2.009305 S    
C40   H12   1.077389 S    
C6    O10   1.349975 S    
C37   N5    1.440774 S    
C42   H14   1.087756 S    
C50   C51   1.398848 A    
C54   H26   1.082905 S    
