data_str_m4_o11_o15_f0_acs.sym.106
_audit_creation_date              2012-12-11T14:03:48-0500
_audit_creation_method            fapswitch 2.2
_symmetry_space_group_name_H-M    P1
_symmetry_Int_Tables_number       1
_space_group_crystal_system       triclinic
_cell_length_a                    19.200323
_cell_length_b                    10.939071
_cell_length_c                    19.01687
_cell_angle_alpha                 89.421677
_cell_angle_beta                  89.937132
_cell_angle_gamma                 89.875879
_cell_volume                      3993.96835577

loop_
_atom_site_label
_atom_site_type_symbol
_atom_type_description
_atom_site_fract_x
_atom_site_fract_y
_atom_site_fract_z
_atom_type_partial_charge
C1    C     C_R   0.241980 0.460649 0.653019 0.544196
C2    C     C_R   0.759738 0.463223 0.351034 0.609770
C3    C     C_R   0.741979 0.960653 0.653017 0.544199
C4    C     C_R   0.259737 0.963222 0.351034 0.609758
C5    C     C_2   0.290507 0.850399 0.535614 0.167039
C6    C     C_2   0.735086 0.873459 0.468749 0.211906
C7    C     C_2   0.790513 0.350429 0.535617 0.166933
C8    C     C_2   0.235091 0.373449 0.468752 0.211903
C9    C     C_R   0.968122 0.644453 0.436021 -0.001380
C10   C     C_R   0.044250 0.653314 0.562405 -0.039408
C11   C     C_R   0.468121 0.144458 0.436021 -0.001367
C12   C     C_R   0.544250 0.153315 0.562405 -0.039413
C13   C     C_R   0.942339 0.861286 0.450298 -0.083234
C14   C     C_R   0.042039 0.880059 0.551858 -0.103098
C15   C     C_R   0.442363 0.361306 0.450285 -0.083247
C16   C     C_R   0.542055 0.380056 0.551852 -0.103090
C17   C     C_R   0.967325 0.975113 0.466982 -0.097679
C18   C     C_R   0.017274 0.985154 0.518770 -0.063589
C19   C     C_R   0.467365 0.475126 0.466961 -0.097835
C20   C     C_R   0.517309 0.485155 0.518755 -0.063637
C21   C     C_R   0.021550 0.762478 0.529730 -0.004474
C22   C     C_R   0.976599 0.755062 0.472144 0.011737
C23   C     C_R   0.521557 0.262480 0.529727 -0.004473
C24   C     C_R   0.476608 0.255071 0.472138 0.011759
C25   C     C_R   0.038012 0.540565 0.525681 0.024008
C26   C     C_R   0.996757 0.533530 0.465004 0.035141
C27   C     C_R   0.538009 0.040567 0.525681 0.024013
C28   C     C_R   0.496751 0.033532 0.465007 0.035141
C29   C     C_R   0.071228 0.432232 0.549061 -0.066249
C30   C     C_R   0.986539 0.414133 0.435756 -0.020612
C31   C     C_R   0.571225 0.932236 0.549060 -0.066249
C32   C     C_R   0.486527 0.914133 0.435762 -0.020584
C33   C     C_R   0.067866 0.323276 0.513864 -0.045917
C34   C     C_R   0.026783 0.314719 0.455516 -0.032880
C35   C     C_R   0.567856 0.823276 0.513869 -0.045935
C36   C     C_R   0.526764 0.814714 0.455528 -0.032847
C37   C     C_2   0.253577 0.926424 0.917967 -0.118529
C38   C     C_2   0.745575 0.938683 0.084552 -0.103429
C39   C     C_2   0.753568 0.426441 0.917965 -0.118502
C40   C     C_2   0.245576 0.438682 0.084552 -0.103432
C41   C     C_2   0.255136 0.937150 0.074573 -0.107290
C42   C     C_2   0.730982 0.980329 0.931779 -0.134180
C43   C     C_2   0.755147 0.437176 0.074563 -0.107558
C44   C     C_2   0.230982 0.480335 0.931780 -0.134232
C45   C     C_R   0.213293 0.838913 0.640522 0.516065
C46   C     C_R   0.771139 0.880333 0.347865 0.579038
C47   C     C_R   0.713296 0.338922 0.640521 0.516066
C48   C     C_R   0.271140 0.380329 0.347867 0.579053
C49   C     C_2   0.241805 0.029784 0.029379 -0.134466
C50   C     C_2   0.755520 0.062660 0.977023 -0.175174
C51   C     C_2   0.741745 0.529799 0.029382 -0.134526
C52   C     C_2   0.255537 0.562657 0.977020 -0.175111
C53   C     C_2   0.219952 0.010615 0.956778 0.229451
C54   C     C_2   0.778963 0.028884 0.048195 0.205018
C55   C     C_2   0.719927 0.510630 0.956768 0.229456
C56   C     C_2   0.278963 0.528889 0.048199 0.205093
C57   C     C_2   0.986557 0.662828 0.914285 -0.098729
C58   C     C_2   0.957180 0.657526 0.067467 -0.101210
C59   C     C_2   0.486557 0.162828 0.914285 -0.098713
C60   C     C_2   0.457181 0.157526 0.067467 -0.101213
C61   C     C_2   0.941883 0.566002 0.023704 -0.165648
C62   C     C_2   0.966316 0.562823 0.950369 -0.151476
C63   C     C_2   0.441882 0.066003 0.023704 -0.165676
C64   C     C_2   0.466315 0.062823 0.950369 -0.151486
C65   C     C_R   0.062374 0.650390 0.637987 0.514511
C66   C     C_R   0.941725 0.648141 0.362836 0.572657
C67   C     C_R   0.562374 0.150390 0.637987 0.514507
C68   C     C_R   0.441724 0.148142 0.362836 0.572661
C69   C     C_R   0.225189 0.514997 0.858229 0.560018
C70   C     C_R   0.762016 0.469075 0.148170 0.556381
C71   C     C_R   0.725189 0.014997 0.858229 0.560022
C72   C     C_R   0.262011 0.969059 0.148177 0.556377
C73   C     C_R   0.227506 0.874551 0.852467 0.564937
C74   C     C_R   0.772489 0.876464 0.147777 0.543793
C75   C     C_R   0.727506 0.374557 0.852465 0.564941
C76   C     C_R   0.272488 0.376466 0.147778 0.543812
C77   C     C_R   0.028080 0.652272 0.850082 0.561358
C78   C     C_R   0.938655 0.648493 0.141638 0.555448
C79   C     C_R   0.528080 0.152272 0.850082 0.561359
C80   C     C_R   0.438655 0.148493 0.141638 0.555438
C81   C     C_2   0.230446 0.874105 0.569395 -0.116722
C82   C     C_2   0.745827 0.938522 0.410110 -0.097512
C83   C     C_2   0.730452 0.374128 0.569398 -0.116665
C84   C     C_2   0.245830 0.438515 0.410114 -0.097535
C85   C     C_2   0.246224 0.898114 0.416339 -0.093754
C86   C     C_2   0.758515 0.899482 0.590363 -0.029286
C87   C     C_2   0.746229 0.398126 0.416342 -0.093768
C88   C     C_2   0.258516 0.399474 0.590367 -0.029354
C89   C     C_2   0.297688 0.894301 0.463515 -0.096302
C90   C     C_2   0.728591 0.940786 0.532494 -0.159349
C91   C     C_2   0.797692 0.394344 0.463521 -0.096519
C92   C     C_2   0.228594 0.440777 0.532497 -0.159423
Cr1   Cr    Cr6+3 0.113970 0.508630 0.747920 1.079281
Cr2   Cr    Cr6+3 0.886030 0.508630 0.252080 1.066968
Cr3   Cr    Cr6+3 0.613970 0.008630 0.747920 1.079283
Cr4   Cr    Cr6+3 0.386030 0.008630 0.252080 1.066995
Cr5   Cr    Cr6+3 0.269200 0.666740 0.749850 1.110817
Cr6   Cr    Cr6+3 0.730800 0.666740 0.250150 1.100379
Cr7   Cr    Cr6+3 0.769200 0.166740 0.749850 1.110814
Cr8   Cr    Cr6+3 0.230800 0.166740 0.250150 1.100403
Cr9   Cr    Cr6+3 0.112300 0.820070 0.749800 1.096831
Cr10  Cr    Cr6+3 0.887700 0.820070 0.250200 1.099564
Cr11  Cr    Cr6+3 0.612300 0.320070 0.749800 1.096849
Cr12  Cr    Cr6+3 0.387700 0.320070 0.250200 1.099572
H1    H     H_    0.347745 0.932645 0.450201 0.183993
H2    H     H_    0.699277 0.026245 0.532201 0.069311
H3    H     H_    0.847748 0.432703 0.450207 0.183989
H4    H     H_    0.199280 0.526237 0.532203 0.069323
H5    H     H_    0.257280 0.842493 0.058273 0.152307
H6    H     H_    0.720448 0.886540 0.947263 0.163759
H7    H     H_    0.757410 0.342551 0.058245 0.152389
H8    H     H_    0.220427 0.386557 0.947267 0.163733
H9    H     H_    0.300274 0.883889 0.939406 0.093750
H10   H     H_    0.697214 0.902355 0.063924 0.110020
H11   H     H_    0.800263 0.383912 0.939413 0.093667
H12   H     H_    0.197220 0.402344 0.063918 0.110016
H13   H     H_    0.916106 0.484630 0.044064 0.190745
H14   H     H_    0.971984 0.472807 0.927403 0.173214
H15   H     H_    0.416104 0.984633 0.044063 0.190743
H16   H     H_    0.471983 0.972807 0.927403 0.173170
H17   H     H_    0.983829 0.739375 0.049461 0.145842
H18   H     H_    0.978119 0.753797 0.934850 0.139479
H19   H     H_    0.483832 0.239373 0.049462 0.145832
H20   H     H_    0.478119 0.253797 0.934850 0.139475
H21   H     H_    0.193964 0.866390 0.428383 0.087448
H22   H     H_    0.797695 0.827918 0.590720 0.146111
H23   H     H_    0.693973 0.366380 0.428385 0.087452
H24   H     H_    0.297694 0.327903 0.590727 0.146120
H25   H     H_    0.189606 0.923419 0.541685 0.122811
H26   H     H_    0.749797 0.037697 0.412325 0.044472
H27   H     H_    0.689613 0.423448 0.541689 0.122846
H28   H     H_    0.249799 0.537690 0.412329 0.044521
H29   H     H_    0.948395 0.053197 0.438121 0.146336
H30   H     H_    0.035558 0.073431 0.534686 0.162236
H31   H     H_    0.448447 0.553217 0.438096 0.146368
H32   H     H_    0.535601 0.573425 0.534671 0.162208
H33   H     H_    0.896959 0.855048 0.419581 0.182731
H34   H     H_    0.079851 0.893390 0.591371 0.164691
H35   H     H_    0.396982 0.355084 0.419569 0.182729
H36   H     H_    0.579862 0.393380 0.591370 0.164694
H37   H     H_    0.946564 0.390533 0.398740 0.154253
H38   H     H_    0.102252 0.428327 0.593706 0.179061
H39   H     H_    0.446556 0.890537 0.398741 0.154275
H40   H     H_    0.602257 0.928338 0.593700 0.179046
H41   H     H_    0.096053 0.245092 0.533893 0.188540
H42   H     H_    0.021758 0.228425 0.428783 0.139057
H43   H     H_    0.596048 0.745096 0.533895 0.188528
H44   H     H_    0.521737 0.728422 0.428795 0.139049
H45   H     H_    0.239021 0.122925 0.048721 0.181727
H46   H     H_    0.767019 0.154299 0.957891 0.149090
H47   H     H_    0.738882 0.622924 0.048743 0.181887
H48   H     H_    0.267056 0.654283 0.957882 0.149212
O1    O     O_R   0.043230 0.549300 0.667990 -0.468519
O2    O     O_R   0.956770 0.549300 0.332010 -0.539315
O3    O     O_R   0.543230 0.049300 0.667990 -0.468518
O4    O     O_R   0.456770 0.049300 0.332010 -0.539321
O5    O     O_R   0.262920 0.788600 0.824420 -0.524879
O6    O     O_R   0.737080 0.788600 0.175580 -0.517665
O7    O     O_R   0.762920 0.288600 0.824420 -0.524887
O8    O     O_R   0.237080 0.288600 0.175580 -0.517629
O9    O     O_R   0.167530 0.905110 0.830340 -0.411029
O10   O     O_R   0.832470 0.905110 0.169660 -0.427871
O11   O     O_R   0.667530 0.405110 0.830340 -0.411020
O12   O     O_R   0.332470 0.405110 0.169660 -0.427869
O13   O     O_R   0.054010 0.748440 0.822860 -0.475112
O14   O     O_R   0.945990 0.748440 0.177140 -0.466265
O15   O     O_R   0.554010 0.248440 0.822860 -0.475106
O16   O     O_R   0.445990 0.248440 0.177140 -0.466276
O17   O     O_3   0.165160 0.665150 0.749190 -0.348460
O18   O     O_3   0.834840 0.665150 0.250810 -0.314518
O19   O     O_3   0.665160 0.165150 0.749190 -0.348457
O20   O     O_3   0.334840 0.165150 0.250810 -0.314530
O21   O     O_R   0.178620 0.457600 0.674100 -0.538978
O22   O     O_R   0.821380 0.457600 0.325900 -0.530189
O23   O     O_R   0.678620 0.957600 0.674100 -0.538984
O24   O     O_R   0.321380 0.957600 0.325900 -0.530172
O25   O     O_R   0.284680 0.542100 0.669460 -0.464971
O26   O     O_R   0.715320 0.542100 0.330540 -0.426965
O27   O     O_R   0.784680 0.042100 0.669460 -0.464922
O28   O     O_R   0.215320 0.042100 0.330540 -0.426983
O29   O     O_R   0.262860 0.790390 0.676650 -0.411215
O30   O     O_R   0.737140 0.790390 0.323350 -0.426360
O31   O     O_R   0.762860 0.290390 0.676650 -0.411225
O32   O     O_R   0.237140 0.290390 0.323350 -0.426371
O33   O     O_R   0.167460 0.907030 0.670940 -0.513004
O34   O     O_R   0.832540 0.907030 0.329060 -0.552356
O35   O     O_R   0.667460 0.407030 0.670940 -0.513013
O36   O     O_R   0.332540 0.407030 0.329060 -0.552336
O37   O     O_R   0.053950 0.750220 0.675100 -0.506629
O38   O     O_R   0.946050 0.750220 0.324900 -0.494655
O39   O     O_R   0.553950 0.250220 0.675100 -0.506629
O40   O     O_R   0.446050 0.250220 0.324900 -0.494659
O41   O     O_R   0.043300 0.547370 0.827390 -0.506226
O42   O     O_R   0.956700 0.547370 0.172610 -0.479342
O43   O     O_R   0.543300 0.047370 0.827390 -0.506235
O44   O     O_R   0.456700 0.047370 0.172610 -0.479340
O45   O     O_R   0.178690 0.455820 0.821860 -0.459492
O46   O     O_R   0.821310 0.455820 0.178140 -0.483184
O47   O     O_R   0.678690 0.955820 0.821860 -0.459489
O48   O     O_R   0.321310 0.955820 0.178140 -0.483166
O49   O     O_R   0.284750 0.540170 0.828860 -0.485488
O50   O     O_R   0.715250 0.540170 0.171140 -0.499704
O51   O     O_R   0.784750 0.040170 0.828860 -0.485519
O52   O     O_R   0.215250 0.040170 0.171140 -0.499673
S1    S     S_3+6 0.148849 0.101624 0.926858 0.037057
O53   O     O_2   0.165713 0.156550 0.856083 -0.258140
O54   O     O_2   0.084744 0.023622 0.921356 -0.239685
O55   O     O_3   0.132621 0.214338 0.984148 -0.554802
H49   H     H_    0.095231 0.263977 0.962033 0.368507
S2    S     S_3+6 0.854036 0.108129 0.078535 0.032095
O56   O     O_2   0.841137 0.155150 0.151409 -0.244489
O57   O     O_2   0.915673 0.023045 0.080007 -0.238857
O58   O     O_3   0.873256 0.227317 0.025419 -0.566030
H50   H     H_    0.896414 0.191140 0.983934 0.358603
S3    S     S_3+6 0.648831 0.601642 0.926818 0.037028
O59   O     O_2   0.665711 0.656534 0.856037 -0.258114
O60   O     O_2   0.584722 0.523644 0.921318 -0.239719
O61   O     O_3   0.632592 0.714392 0.984082 -0.554876
H51   H     H_    0.595197 0.764003 0.961950 0.368500
S4    S     S_3+6 0.354014 0.608168 0.078563 0.032058
O62   O     O_2   0.341095 0.655142 0.151444 -0.244492
O63   O     O_2   0.415669 0.523125 0.080027 -0.238933
O64   O     O_3   0.373210 0.727400 0.025468 -0.566190
H52   H     H_    0.396517 0.691299 0.984051 0.358693
S5    S     S_3+6 0.370659 0.794401 0.570709 0.014672
O65   O     O_2   0.416164 0.902233 0.585734 -0.247548
O66   O     O_2   0.370976 0.711946 0.633979 -0.201790
O67   O     O_3   0.404422 0.713533 0.505449 -0.586764
H53   H     H_    0.365641 0.659854 0.490755 0.322207
S6    S     S_3+6 0.733574 0.711168 0.473088 -0.039445
O68   O     O_2   0.671712 0.667560 0.432442 -0.274448
O69   O     O_2   0.799659 0.663928 0.440985 -0.359845
O70   O     O_3   0.725746 0.656502 0.555792 -0.559370
H54   H     H_    0.771938 0.621622 0.567772 0.365028
S7    S     S_3+6 0.870663 0.294411 0.570708 0.014727
O71   O     O_2   0.916159 0.402237 0.585776 -0.247523
O72   O     O_2   0.870963 0.211901 0.633954 -0.201679
O73   O     O_3   0.904455 0.213601 0.505438 -0.586730
H55   H     H_    0.865628 0.160216 0.490546 0.322069
S8    S     S_3+6 0.233578 0.211158 0.473091 -0.039440
O74   O     O_2   0.171717 0.167553 0.432443 -0.274453
O75   O     O_2   0.299663 0.163915 0.440990 -0.359846
O76   O     O_3   0.225746 0.156491 0.555794 -0.559357
H56   H     H_    0.271936 0.121601 0.567775 0.365028

loop_
_geom_bond_atom_site_label_1
_geom_bond_atom_site_label_2
_ccdc_geom_bond_type
Cr10  O18   S    
C7    C83   D    
C69   O49   A    
C48   C84   S    
C6    C82   D    
C87   C91   D    
C86   H22   S    
Cr2   O42   S    
C14   C18   A    
C85   H21   S    
O64   H52   S    
C53   S1    S    
C30   C34   A    
C43   C51   D    
C45   C81   S    
C87   H23   S    
Cr5   O17   S    
C57   C62   D    
C40   H12   S    
O58   H50   S    
C71   O51   A    
C12   C23   A    
Cr1   O17   S    
C59   C64   D    
C50   C54   S    
C30   H37   S    
C4    O24   A    
C13   C17   A    
C60   C63   D    
C32   C36   A    
C14   C21   A    
C67   O3    A    
C48   O36   A    
Cr7   O7    S    
S3    O60   D    
C55   S3    S    
C38   H10   S    
C67   O39   A    
C9    C22   A    
S1    O55   S    
Cr7   O19   S    
C68   O40   A    
C19   H31   S    
O76   H56   S    
Cr12  O40   S    
C29   C33   A    
C11   C24   A    
S5    O67   S    
C79   O43   A    
S6    O70   S    
C75   O11   A    
C78   O42   A    
Cr8   O20   S    
C31   H40   S    
Cr3   O23   S    
C9    C66   S    
S4    O62   D    
C32   H39   S    
C65   O1    A    
Cr10  O38   S    
C57   H18   S    
C46   C82   S    
C1    O25   A    
C92   H4    S    
C39   C55   D    
C88   C92   D    
O55   H49   S    
C40   C56   D    
C17   C18   A    
Cr6   O6    S    
C73   O9    A    
S7    O71   D    
Cr9   O17   S    
C8    C92   S    
C39   C75   S    
C82   H26   S    
O70   H54   S    
Cr7   O31   S    
C61   C62   S    
C16   C20   A    
C72   O52   A    
C37   C53   D    
C44   C52   D    
C1    C88   S    
S1    O54   D    
C51   H47   S    
C70   O46   A    
C41   H5    S    
C21   C22   A    
C3    C86   S    
C69   O45   A    
S7    O72   D    
C16   H36   S    
C43   H7    S    
C4    O28   A    
Cr9   O33   S    
Cr8   O52   S    
C1    O21   A    
C41   C49   D    
O67   H53   S    
Cr1   O21   S    
C48   O32   A    
C36   H44   S    
C9    C26   A    
C33   C34   A    
C15   H35   S    
C8    S8    S    
C10   C21   A    
C25   C29   A    
C80   O44   A    
C12   C67   S    
Cr12  O36   S    
C78   O14   A    
C76   O8    A    
C74   O6    A    
C12   C27   A    
C45   O29   A    
Cr5   O29   S    
C14   H34   S    
C28   C32   A    
Cr11  O35   S    
C90   H2    S    
C47   O31   A    
Cr10  O10   S    
C86   C90   D    
S3    O61   S    
C59   C79   S    
C74   O10   A    
C85   C89   D    
C35   H43   S    
C4    C85   S    
C51   C55   S    
C25   C26   A    
S1    O53   D    
C61   H13   S    
C70   O50   A    
C84   H28   S    
S8    O76   S    
C46   O34   A    
C47   C83   S    
C3    O27   A    
Cr2   O46   S    
C35   C36   A    
Cr5   O5    S    
Cr6   O30   S    
C60   H19   S    
C15   C19   A    
S3    O59   D    
C46   O30   A    
Cr7   O27   S    
C57   C77   S    
C72   O48   A    
C5    C81   D    
C50   H46   S    
Cr5   O25   S    
C38   C54   D    
Cr4   O44   S    
C52   H48   S    
C7    C91   S    
S8    O75   D    
S5    O65   D    
C2    C87   S    
Cr10  O34   S    
Cr11  O15   S    
C20   H32   S    
S6    O69   D    
Cr10  O14   S    
C33   H41   S    
C49   H45   S    
Cr2   O22   S    
C41   C72   S    
C44   H8    S    
C10   C25   A    
C3    O23   A    
C15   C24   A    
C42   C50   D    
C26   C30   A    
C43   C70   S    
C39   H11   S    
C6    S6    S    
C27   C31   A    
C17   H29   S    
C81   H25   S    
S7    O73   S    
C31   C35   A    
C76   O12   A    
Cr6   O26   S    
C47   O35   A    
Cr8   O28   S    
C56   S4    S    
C11   C68   S    
C66   O2    A    
C38   C74   S    
C10   C65   S    
C75   O7    A    
C59   H20   S    
Cr4   O48   S    
C37   C73   S    
O73   H55   S    
C60   C80   S    
C58   H17   S    
Cr3   O43   S    
Cr4   O24   S    
Cr7   O51   S    
C77   O41   A    
C8    C84   D    
Cr11  O11   S    
Cr6   O50   S    
Cr1   O41   S    
C65   O37   A    
Cr8   O8    S    
C68   O4    A    
Cr12  O12   S    
Cr12  O16   S    
C71   O47   A    
C73   O5    A    
Cr5   O49   S    
C16   C23   A    
S2    O58   S    
Cr9   O37   S    
C64   H16   S    
Cr12  O20   S    
S4    O63   D    
S2    O57   D    
C19   C20   A    
Cr9   O9    S    
C83   H27   S    
C42   H6    S    
C88   H24   S    
C6    C90   S    
C2    O22   A    
S8    O74   D    
Cr2   O2    S    
C34   H42   S    
Cr11  O19   S    
C45   O33   A    
O61   H51   S    
Cr4   O4    S    
Cr3   O19   S    
C11   C28   A    
C58   C61   D    
C49   C53   S    
C29   H38   S    
C66   O38   A    
Cr1   O1    S    
C42   C71   S    
S5    O66   D    
C5    S5    S    
C13   C22   A    
C18   H30   S    
Cr3   O3    S    
S2    O56   D    
S6    O68   D    
Cr8   O32   S    
C5    C89   S    
C62   H14   S    
Cr9   O13   S    
C58   C78   S    
C23   C24   A    
Cr1   O45   S    
C63   C64   S    
Cr6   O18   S    
C40   C76   S    
C54   S2    S    
Cr11  O39   S    
Cr3   O47   S    
C63   H15   S    
Cr4   O20   S    
C89   H1    S    
C27   C28   A    
C7    S7    S    
C44   C69   S    
C37   H9    S    
C2    O26   A    
C79   O15   A    
C77   O13   A    
C80   O16   A    
S4    O64   S    
Cr2   O18   S    
C52   C56   S    
C13   H33   S    
C91   H3    S    
