data_str_m9_o16_o26_f0_sra.sym.37
_audit_creation_date              2012-12-11T15:15:40-0500
_audit_creation_method            fapswitch 2.2
_symmetry_space_group_name_H-M    P1
_symmetry_Int_Tables_number       1
_space_group_crystal_system       triclinic
_cell_length_a                    20.617412
_cell_length_b                    22.730225
_cell_length_c                    6.940172
_cell_angle_alpha                 90.058528
_cell_angle_beta                  87.097716
_cell_angle_gamma                 89.996978
_cell_volume                      3248.25771948

loop_
_atom_site_label
_atom_site_type_symbol
_atom_type_description
_atom_site_fract_x
_atom_site_fract_y
_atom_site_fract_z
_atom_type_partial_charge
O1    O     O_R   0.387100 0.552640 0.378490 -0.536468
O2    O     O_R   0.612900 0.052640 0.621510 -0.536373
O3    O     O_R   0.249610 0.559600 0.072250 -0.545864
O4    O     O_R   0.750390 0.059600 0.927750 -0.546354
O5    O     O_R   0.249120 0.447360 0.902040 -0.546924
O6    O     O_R   0.750880 0.947360 0.097960 -0.547261
C1    C     C_R   0.226726 0.573134 0.244214 0.716722
C2    C     C_R   0.773423 0.072953 0.756059 0.712603
O7    O     O_R   0.386610 0.559560 0.048860 -0.531343
O8    O     O_R   0.613390 0.059560 0.951140 -0.531332
O9    O     O_R   0.387100 0.447320 0.878470 -0.536241
O10   O     O_R   0.612900 0.947320 0.121530 -0.536182
C3    C     C_R   0.407959 0.574724 0.214550 0.750924
C4    C     C_R   0.592044 0.074738 0.785558 0.751262
O11   O     O_R   0.249120 0.552680 0.402050 -0.546611
O12   O     O_R   0.750880 0.052680 0.597950 -0.546340
O13   O     O_3   0.318110 0.463180 0.223790 -0.374155
O14   O     O_3   0.681890 0.963180 0.776210 -0.373859
V1    V     V_3+5 0.318110 0.506830 0.948930 1.451140
V2    V     V_3+5 0.681890 0.006830 0.051070 1.448950
O15   O     O_R   0.386610 0.440400 0.548840 -0.533686
O16   O     O_R   0.613390 0.940400 0.451160 -0.533423
C5    C     C_R   0.407963 0.425237 0.714554 0.733784
C6    C     C_R   0.592039 0.925246 0.285336 0.734390
O17   O     O_R   0.249610 0.440440 0.572240 -0.549968
O18   O     O_R   0.750390 0.940440 0.427760 -0.549060
C7    C     C_R   0.226539 0.427003 0.743953 0.681220
C8    C     C_R   0.773431 0.927008 0.255828 0.676930
V3    V     V_3+5 0.318110 0.493170 0.448930 1.439915
V4    V     V_3+5 0.681890 0.993170 0.551070 1.439507
O19   O     O_3   0.318110 0.536820 0.723940 -0.367547
O20   O     O_3   0.681890 0.036820 0.276060 -0.367593
C9    C     C_R   0.170477 0.386349 0.758531 -0.044569
C10   C     C_R   0.829354 0.886268 0.240075 -0.046927
C11   C     C_R   0.143638 0.364550 0.590218 -0.184162
C12   C     C_R   0.862507 0.871239 0.405236 -0.177728
C13   C     C_R   0.088957 0.328446 0.602147 -0.106099
C14   C     C_R   0.916883 0.834764 0.390524 -0.089829
C15   C     C_R   0.060389 0.312787 0.782523 0.202095
C16   C     C_R   0.938721 0.811831 0.210980 0.131259
C17   C     C_R   0.086629 0.334659 0.950799 -0.123889
C18   C     C_R   0.905911 0.826787 0.045679 -0.153500
C19   C     C_R   0.141428 0.370905 0.939174 -0.183895
C20   C     C_R   0.851650 0.863656 0.059989 -0.160081
C21   C     C_R   0.922269 0.157771 0.888233 -0.216740
C22   C     C_R   0.079435 0.661056 0.116380 -0.150858
C23   C     C_R   0.867430 0.121930 0.902265 -0.128292
C24   C     C_R   0.133842 0.624649 0.099798 -0.139691
C25   C     C_R   0.847464 0.141645 0.567069 -0.214206
C26   C     C_R   0.153237 0.641294 0.437097 -0.210039
C27   C     C_R   0.901949 0.178320 0.553949 0.641808
C28   C     C_R   0.099181 0.678398 0.453107 0.631323
C29   C     C_R   0.939497 0.186616 0.714974 -0.031011
C30   C     C_R   0.061774 0.688324 0.292642 0.009274
C31   C     C_2   0.001347 0.275759 0.796564 0.144142
C32   C     C_2   0.997360 0.773884 0.195159 0.132374
C33   C     C_2   0.998513 0.223659 0.700996 0.167525
C34   C     C_2   0.002985 0.725928 0.308977 0.210416
C35   C     C_R   0.829623 0.113214 0.741586 -0.132042
C36   C     C_R   0.171044 0.614009 0.260379 -0.136971
H1    H     H_    0.164225 0.376033 0.448621 0.125851
H2    H     H_    0.847230 0.888493 0.545796 0.121203
H3    H     H_    0.855522 0.100007 0.037987 0.144236
H4    H     H_    0.145895 0.603855 0.962110 0.146298
H5    H     H_    0.819204 0.135683 0.441112 0.152386
H6    H     H_    0.181276 0.634169 0.562843 0.154886
H7    H     H_    0.064772 0.323492 0.091233 0.131423
H8    H     H_    0.921824 0.809621 0.905596 0.111220
H9    H     H_    0.951707 0.162625 0.012188 0.182186
H10   H     H_    0.050536 0.667483 0.992059 0.190159
H11   H     H_    0.160532 0.387287 0.071441 0.124988
H12   H     H_    0.827269 0.874463 0.930040 0.123848
H13   H     H_    0.068309 0.313514 0.470277 0.135465
H14   H     H_    0.942495 0.825068 0.519218 0.125967
C37   C     C_R   0.577648 0.362204 0.714347 -0.122454
C38   C     C_R   0.422363 0.862237 0.285045 -0.122009
H15   H     H_    0.627202 0.378167 0.701706 0.179578
H16   H     H_    0.372809 0.878217 0.297515 0.179397
C39   C     C_R   0.462410 0.382640 0.717115 -0.048597
C40   C     C_R   0.537596 0.882657 0.282556 -0.048754
C41   C     C_R   0.473690 0.093291 0.817240 0.139408
C42   C     C_R   0.526321 0.593217 0.183268 0.139103
C43   C     C_R   0.421166 0.131297 0.850997 -0.114720
C44   C     C_R   0.578862 0.631183 0.149600 -0.114002
C45   C     C_R   0.428559 0.192370 0.846838 0.194918
C46   C     C_R   0.571480 0.692261 0.153589 0.194928
C47   C     C_R   0.490091 0.217896 0.789197 0.037241
C48   C     C_R   0.509933 0.717851 0.210947 0.037229
C49   C     C_R   0.544917 0.178690 0.771716 -0.106095
C50   C     C_R   0.455099 0.678670 0.228384 -0.106988
C51   C     C_R   0.500647 0.280146 0.756085 0.020604
C52   C     C_R   0.499370 0.780132 0.243802 0.020699
C53   C     C_R   0.565468 0.301568 0.735342 -0.031640
C54   C     C_R   0.434546 0.801582 0.264266 -0.033427
C55   C     C_R   0.617938 0.262360 0.731453 0.624822
C56   C     C_R   0.382074 0.762384 0.268133 0.627785
C57   C     C_R   0.607677 0.202151 0.743892 -0.238927
C58   C     C_R   0.392334 0.702164 0.255939 -0.237816
C59   C     C_R   0.449961 0.321872 0.733665 -0.251126
C60   C     C_R   0.550047 0.821873 0.266244 -0.250746
C61   C     C_R   0.526725 0.402911 0.708915 0.177290
C62   C     C_R   0.473283 0.902943 0.290543 0.177265
C63   C     C_R   0.536402 0.116538 0.787265 -0.069025
C64   C     C_R   0.463609 0.616503 0.213053 -0.068644
H17   H     H_    0.400460 0.308632 0.721018 0.115564
H18   H     H_    0.599539 0.808640 0.279115 0.115670
H19   H     H_    0.373713 0.113169 0.890338 0.140228
H20   H     H_    0.626322 0.613011 0.110428 0.140983
H21   H     H_    0.649998 0.173886 0.733930 0.133839
H22   H     H_    0.350009 0.673914 0.265880 0.134930
F1    F     F_    0.917721 0.206020 0.384899 -0.720668
F2    F     F_    0.084316 0.705420 0.624071 -0.714391
N1    N     N_3   0.539998 0.464750 0.688117 -0.685801
H23   H     H_    0.590047 0.472418 0.676707 0.231303
H24   H     H_    0.522545 0.485630 0.814494 0.256604
N2    N     N_3   0.460008 0.964796 0.311304 -0.685918
H25   H     H_    0.409958 0.972483 0.322467 0.230825
H26   H     H_    0.477534 0.985599 0.185018 0.256735
F3    F     F_    0.680022 0.282239 0.709183 -0.675425
F4    F     F_    0.319988 0.782291 0.290153 -0.669614
N3    N     N_3   0.464252 0.030607 0.824968 -0.682253
H27   H     H_    0.415514 0.020422 0.858310 0.230215
H28   H     H_    0.475175 0.013968 0.686661 0.258432
N4    N     N_3   0.535741 0.530523 0.175546 -0.682129
H29   H     H_    0.584483 0.520301 0.142337 0.230693
H30   H     H_    0.524767 0.513971 0.313822 0.258575
N5    N     N_3   0.375043 0.225170 0.931979 -0.682660
H31   H     H_    0.390877 0.261028 0.011390 0.244391
H32   H     H_    0.342983 0.236768 0.826550 0.228750
N6    N     N_3   0.625034 0.724975 0.068549 -0.682018
H33   H     H_    0.609242 0.760758 0.988938 0.244357
H34   H     H_    0.657047 0.736668 0.174071 0.229222
N7    N     N_3   0.054352 0.201997 0.590732 -0.677669
H35   H     H_    0.066418 0.160956 0.646568 0.232513
H36   H     H_    0.041431 0.195617 0.448559 0.265549
N8    N     N_3   0.949925 0.708523 0.438807 -0.684446
H37   H     H_    0.937174 0.665386 0.404613 0.229802
H38   H     H_    0.965745 0.708577 0.579377 0.267841
N9    N     N_3   0.946994 0.297448 0.913972 -0.653847
H39   H     H_    0.937704 0.268741 0.029451 0.280861
H40   H     H_    0.906169 0.299060 0.830653 0.264249
N10   N     N_3   0.049785 0.789903 0.061017 -0.623614
H41   H     H_    0.033025 0.788503 0.921549 0.258327
H42   H     H_    0.062981 0.833294 0.090095 0.244132

loop_
_geom_bond_atom_site_label_1
_geom_bond_atom_site_label_2
_ccdc_geom_bond_type
V4    O20   S    
C58   H22   S    
C47   C51   A    
C61   N1    S    
C52   C54   A    
O4    C2    A    
V1    O19   S    
C25   C27   A    
C15   C17   A    
C7    C9    S    
O9    V1    S    
C25   H5    S    
O10   V2    S    
C38   H16   S    
C39   C59   A    
C11   C13   A    
O7    V1    S    
O3    C1    A    
C2    C35   S    
C23   H3    S    
C9    C11   A    
C46   C48   A    
C24   H4    S    
C28   F2    S    
O12   V4    S    
C31   N9    S    
N2    H25   S    
C2    O12   A    
C37   H15   S    
O7    C3    A    
C49   C57   A    
C44   H20   S    
O5    C7    A    
C47   C49   A    
C6    C40   S    
C15   C31   S    
C48   C52   A    
O8    V2    S    
C16   C32   S    
C56   C58   A    
C26   C28   A    
O3    V1    S    
O14   V4    S    
C27   F1    S    
C32   C34   D    
C10   C12   A    
C24   C36   A    
C32   N10   S    
C16   C18   A    
C8    C10   S    
C43   H19   S    
C49   C63   A    
O17   V3    S    
C17   C19   A    
C33   N7    S    
C18   C20   A    
V2    O20   S    
C12   H2    S    
C42   N4    S    
C41   C43   A    
C28   C30   A    
O11   V3    S    
C21   C23   A    
C38   C62   A    
C59   H17   S    
C22   C24   A    
C23   C35   A    
N3    H28   S    
C45   C47   A    
C21   H9    S    
C9    C19   A    
C10   C20   A    
C17   H7    S    
O8    C4    A    
C29   C33   S    
C46   N6    S    
C1    O11   A    
C55   F3    S    
O15   V3    S    
C40   C62   A    
C27   C29   A    
C41   C63   A    
N6    H34   S    
N5    H32   S    
C51   C53   A    
C57   H21   S    
C22   C30   A    
O1    V3    S    
C11   H1    S    
C3    C64   S    
C54   C56   A    
C26   H6    S    
C50   C64   A    
N3    H27   S    
N8    H38   S    
C43   C45   A    
C48   C50   A    
O18   V4    S    
C42   C44   A    
C31   C33   D    
N7    H35   S    
C30   C34   S    
O16   C6    A    
C45   N5    S    
O1    C3    A    
N5    H31   S    
C1    C36   S    
N10   H42   S    
C52   C60   A    
N4    H30   S    
N1    H23   S    
C14   H14   S    
C13   H13   S    
C19   H11   S    
O16   V4    S    
O18   C8    A    
C56   F4    S    
C44   C46   A    
N8    H37   S    
N9    H39   S    
C55   C57   A    
O5    V1    S    
C38   C54   A    
O17   C7    A    
O6    V2    S    
O10   C6    A    
C60   H18   S    
C25   C35   A    
O2    V4    S    
C26   C36   A    
O15   C5    A    
N6    H33   S    
V3    O19   S    
C51   C59   A    
O13   V3    S    
C12   C14   A    
C14   C16   A    
N9    H40   S    
C4    C63   S    
C37   C53   A    
O9    C5    A    
O13   V1    S    
N2    H26   S    
C20   H12   S    
O14   V2    S    
C18   H8    S    
O2    C4    A    
C22   H10   S    
C62   N2    S    
C21   C29   A    
O4    V2    S    
O6    C8    A    
C13   C15   A    
C53   C55   A    
C41   N3    S    
C37   C61   A    
N7    H36   S    
C42   C64   A    
N10   H41   S    
C39   C61   A    
C5    C39   S    
C50   C58   A    
C40   C60   A    
N4    H29   S    
N1    H24   S    
C34   N8    S    
