data_str_m4_o12_o15_f0_acs.sym.88
_audit_creation_date              2012-12-11T14:13:30-0500
_audit_creation_method            fapswitch 2.2
_symmetry_space_group_name_H-M    P1
_symmetry_Int_Tables_number       1
_space_group_crystal_system       triclinic
_cell_length_a                    11.687188
_cell_length_b                    18.792675
_cell_length_c                    10.054748
_cell_angle_alpha                 89.999989
_cell_angle_beta                  110.682025
_cell_angle_gamma                 90.0
_cell_volume                      2066.04173991

loop_
_atom_site_label
_atom_site_type_symbol
_atom_type_description
_atom_site_fract_x
_atom_site_fract_y
_atom_site_fract_z
_atom_type_partial_charge
C1    C     C_R   0.077025 0.644969 0.140314 0.577473
C2    C     C_2   0.596590 0.075619 0.080691 -0.004392
C3    C     C_2   0.604022 0.434170 0.043097 -0.062055
C4    C     C_2   0.403410 0.575619 0.919309 -0.004391
C5    C     C_2   0.472138 0.972967 0.066354 0.161978
C6    C     C_2   0.483728 0.050229 0.053238 0.267176
C7    C     C_2   0.527860 0.472967 0.933647 0.161978
C8    C     C_2   0.516271 0.550229 0.946762 0.267177
C9    C     C_2   0.009167 0.921067 0.105650 0.403448
C10   C     C_2   0.982234 0.075580 0.889663 0.413586
C11   C     C_2   0.990833 0.421067 0.894350 0.403447
C12   C     C_R   0.929812 0.352149 0.861871 0.643742
C13   C     C_2   0.017766 0.575580 0.110337 0.413586
C14   C     C_2   0.049516 0.969584 0.032757 0.249847
C15   C     C_2   0.005295 0.042938 0.016460 0.264788
C16   C     C_2   0.950483 0.469583 0.967243 0.249846
C17   C     C_2   0.994705 0.542938 0.983540 0.264788
C18   C     C_R   0.437351 0.638883 0.376073 0.556630
C19   C     C_R   0.528834 0.351589 0.557253 0.621619
C20   C     C_R   0.562649 0.138883 0.623927 0.556631
C21   C     C_R   0.471166 0.851589 0.442747 0.621620
C22   C     C_R   0.376810 0.645865 0.962292 0.578311
C23   C     C_R   0.922975 0.144969 0.859686 0.577473
C24   C     C_R   0.627519 0.358554 0.026014 0.572855
C25   C     C_R   0.623190 0.145865 0.037708 0.578312
C26   C     C_R   0.372481 0.858554 0.973986 0.572856
C27   C     C_R   0.495567 0.419609 0.484029 0.040219
C28   C     C_R   0.454122 0.562794 0.408867 0.002542
C29   C     C_R   0.504432 0.919608 0.515971 0.040220
C30   C     C_R   0.545878 0.062794 0.591132 0.002542
C31   C     C_R   0.272334 0.408899 0.439821 0.372521
C32   C     C_R   0.644134 0.553025 0.339765 0.348914
C33   C     C_R   0.727666 0.908899 0.560179 0.372520
C34   C     C_R   0.070188 0.852149 0.138129 0.643742
C35   C     C_R   0.355866 0.053025 0.660234 0.348913
C36   C     C_R   0.171449 0.442522 0.455872 0.496077
C37   C     C_R   0.764383 0.529583 0.391578 0.467868
C38   C     C_R   0.828551 0.942522 0.544127 0.496076
C39   C     C_R   0.235617 0.029583 0.608421 0.467868
C40   C     C_R   0.180530 0.513638 0.500498 0.357897
C41   C     C_R   0.800912 0.482302 0.504210 0.261240
C42   C     C_R   0.819469 0.013638 0.499501 0.357896
C43   C     C_R   0.199088 0.982302 0.495789 0.261239
C44   C     C_R   0.285888 0.552574 0.512068 0.189681
C45   C     C_R   0.377841 0.448947 0.453070 -0.062393
C46   C     C_R   0.713189 0.455998 0.556570 0.181419
C47   C     C_R   0.714112 0.052574 0.487932 0.189681
C48   C     C_R   0.286811 0.955998 0.443429 0.181420
C49   C     C_R   0.370858 0.523345 0.455413 -0.114127
C50   C     C_R   0.588901 0.463972 0.473679 -0.121213
C51   C     C_R   0.629142 0.023345 0.544588 -0.114126
C52   C     C_R   0.411098 0.963972 0.526320 -0.121213
C53   C     C_R   0.557266 0.526237 0.396721 -0.085436
C54   C     C_R   0.622159 0.948947 0.546930 -0.062392
C55   C     C_R   0.442733 0.026237 0.603279 -0.085436
C56   C     C_2   0.395977 0.934171 0.956904 -0.062052
Cr1   Cr    Cr6+3 0.187610 0.750000 0.979860 1.139188
Cr2   Cr    Cr6+3 0.812390 0.250000 0.020140 1.139188
Cr3   Cr    Cr6+3 0.245810 0.750000 0.341640 1.117677
Cr4   Cr    Cr6+3 0.754190 0.250000 0.658360 1.117677
Cr5   Cr    Cr6+3 0.485760 0.750000 0.219910 1.191853
Cr6   Cr    Cr6+3 0.514240 0.250000 0.780090 1.191852
F1    F     F_    0.068776 0.404389 0.438522 -0.529756
F2    F     F_    0.917679 0.936613 0.155169 -0.635984
F3    F     F_    0.002833 0.539896 0.220138 -0.588299
F4    F     F_    0.082321 0.436614 0.844830 -0.635984
F5    F     F_    0.846593 0.557519 0.339588 -0.473787
F6    F     F_    0.931223 0.904389 0.561476 -0.529756
F7    F     F_    0.153407 0.057519 0.660411 -0.473787
F8    F     F_    0.265311 0.338545 0.407045 -0.566835
F9    F     F_    0.615475 0.599258 0.231907 -0.558515
F10   F     F_    0.734689 0.838546 0.592955 -0.566835
F11   F     F_    0.384524 0.099258 0.768093 -0.558516
F12   F     F_    0.997167 0.039896 0.779862 -0.588299
H1    H     H_    0.674746 0.040166 0.123330 0.143709
H2    H     H_    0.676642 0.446061 0.730175 0.353881
H3    H     H_    0.594369 0.113010 0.353542 0.352398
H4    H     H_    0.323358 0.946061 0.269825 0.353882
H5    H     H_    0.310871 0.066320 0.009333 0.373392
H6    H     H_    0.609649 0.914930 0.166181 0.358401
H7    H     H_    0.689129 0.566320 0.990667 0.373392
H8    H     H_    0.390351 0.414928 0.833824 0.358402
H9    H     H_    0.032169 0.051070 0.218179 0.394200
H10   H     H_    0.103033 0.929464 0.891328 0.394598
H11   H     H_    0.967830 0.551071 0.781821 0.394200
H12   H     H_    0.338117 0.960798 0.861548 0.122741
H13   H     H_    0.896968 0.429463 0.108672 0.394599
H14   H     H_    0.325253 0.540166 0.876670 0.143711
H15   H     H_    0.661883 0.460798 0.138452 0.122742
H16   H     H_    0.101422 0.594988 0.552187 0.386510
H17   H     H_    0.927322 0.415446 0.592797 0.401670
H18   H     H_    0.898578 0.094988 0.447811 0.386510
H19   H     H_    0.072678 0.915446 0.407203 0.401671
H20   H     H_    0.405631 0.613010 0.646458 0.352398
O1    O     O_R   0.267710 0.668200 0.902110 -0.479045
O2    O     O_R   0.883280 0.330790 0.732340 -0.477431
O3    O     O_R   0.883280 0.169210 0.732340 -0.471521
O4    O     O_R   0.116720 0.830790 0.267660 -0.477431
O5    O     O_R   0.366710 0.675440 0.427590 -0.477651
O6    O     O_R   0.633290 0.324560 0.572410 -0.490344
O7    O     O_R   0.633290 0.175440 0.572410 -0.477651
O8    O     O_R   0.366710 0.824560 0.427590 -0.490344
O9    O     O_R   0.534870 0.669390 0.371760 -0.416834
O10   O     O_R   0.465130 0.330610 0.628240 -0.426296
O11   O     O_R   0.465130 0.169390 0.628240 -0.416834
O12   O     O_R   0.732290 0.331800 0.097890 -0.489751
O13   O     O_R   0.534870 0.830610 0.371760 -0.426296
O14   O     O_R   0.453080 0.674480 0.075160 -0.414129
O15   O     O_R   0.546920 0.325520 0.924840 -0.480588
O16   O     O_R   0.546920 0.174480 0.924840 -0.414129
O17   O     O_R   0.453080 0.825520 0.075160 -0.480587
O18   O     O_3   0.306390 0.750000 0.180470 -0.343197
O19   O     O_3   0.693610 0.250000 0.819530 -0.343197
O20   O     O_3   0.088178 0.543056 0.537525 -0.490144
O21   O     O_3   0.922022 0.465902 0.565386 -0.522011
O22   O     O_3   0.911821 0.043056 0.462473 -0.490145
O23   O     O_R   0.732290 0.168200 0.097890 -0.479045
O24   O     O_3   0.077979 0.965902 0.434614 -0.522012
O25   O     O_3   0.315144 0.608891 0.606145 -0.675187
O26   O     O_3   0.747958 0.441406 0.699092 -0.678766
O27   O     O_3   0.684856 0.108891 0.393855 -0.675187
O28   O     O_3   0.252042 0.941406 0.300907 -0.678765
O29   O     O_3   0.384093 0.095361 0.018483 -0.594001
O30   O     O_3   0.547363 0.942281 0.191012 -0.701959
O31   O     O_3   0.615907 0.595360 0.981517 -0.594001
O32   O     O_3   0.452634 0.442280 0.808990 -0.701958
O33   O     O_3   0.989564 0.078044 0.129981 -0.649071
O34   O     O_R   0.267710 0.831800 0.902110 -0.489752
O35   O     O_3   0.142643 0.954100 0.983459 -0.690908
O36   O     O_3   0.010436 0.578044 0.870019 -0.649071
O37   O     O_3   0.857357 0.454100 0.016541 -0.690908
O38   O     O_R   0.099480 0.674460 0.038850 -0.479616
O39   O     O_R   0.900520 0.325540 0.961150 -0.508814
O40   O     O_R   0.900520 0.174460 0.961150 -0.479616
O41   O     O_R   0.099480 0.825540 0.038850 -0.508814
O42   O     O_R   0.116720 0.669210 0.267660 -0.471521

loop_
_geom_bond_atom_site_label_1
_geom_bond_atom_site_label_2
_ccdc_geom_bond_type
C44   C49   A    
C30   C51   A    
C9    F2    S    
Cr3   O5    S    
C22   O1    A    
H10   O35   S    
Cr1   O38   S    
C4    C8    D    
C1    O38   A    
Cr1   O34   S    
C3    C24   S    
C7    C8    S    
Cr6   O11   S    
C13   F3    S    
Cr2   O40   S    
C5    O30   S    
H2    O26   S    
Cr5   O9    S    
C38   C42   A    
C3    C7    D    
C10   C15   D    
C48   O28   S    
C5    C6    S    
C47   O27   S    
Cr1   O18   S    
C29   C54   A    
Cr3   O42   S    
C11   C16   D    
H13   O37   S    
Cr5   O14   S    
C16   O37   S    
H8    O32   S    
C5    C56   D    
C33   F10   S    
C31   F8    S    
C40   O20   S    
C16   C17   S    
Cr2   O19   S    
C41   C46   A    
C1    O42   A    
C19   C27   S    
C43   C48   A    
C40   C44   A    
C11   F4    S    
C42   C47   A    
C27   C45   A    
C15   O33   S    
Cr4   O19   S    
C2    C6    D    
C6    O29   S    
C41   O21   S    
Cr5   O13   S    
C32   F9    S    
Cr6   O10   S    
Cr2   O39   S    
C50   C53   A    
C35   C55   A    
C36   C40   A    
C18   C28   S    
Cr6   O19   S    
Cr4   O3    S    
C39   C43   A    
C20   O7    A    
C44   O25   S    
C21   C29   S    
Cr2   O23   S    
C25   O23   A    
Cr2   O12   S    
C28   C49   A    
C35   C39   A    
C9    C14   D    
H11   O36   S    
C4    C22   S    
H20   O25   S    
C56   H12   S    
Cr6   O16   S    
C45   C49   A    
C28   C53   A    
Cr3   O18   S    
C39   F7    S    
C46   O26   S    
C26   O34   A    
C32   C37   A    
H18   O22   S    
C21   O13   A    
C25   O16   A    
C21   O8    A    
Cr4   O2    S    
C42   O22   S    
C23   O3    A    
C38   F6    S    
C12   O39   A    
Cr1   O1    S    
C9    C34   S    
C24   O12   A    
H19   O24   S    
Cr4   O7    S    
C36   F1    S    
C32   C53   A    
C27   C50   A    
C20   O11   A    
H6    O30   S    
C33   C54   A    
C35   F11   S    
C23   O40   A    
H7    O31   S    
C17   O36   S    
C14   C15   S    
Cr3   O8    S    
Cr1   O41   S    
C24   O15   A    
H9    O33   S    
Cr4   O6    S    
C19   O10   A    
C26   C56   S    
C18   O5    A    
C47   C51   A    
C19   O6    A    
C52   C55   A    
C4    H14   S    
C10   C23   S    
C30   C55   A    
C46   C50   A    
C33   C38   A    
C13   C17   D    
C3    H15   S    
C51   C54   A    
C20   C30   S    
C10   F12   S    
Cr6   O15   S    
H5    O29   S    
C34   O41   A    
C22   O14   A    
C37   F5    S    
C34   O4    A    
H17   O21   S    
C2    C25   S    
C18   O9    A    
H16   O20   S    
C7    O32   S    
C37   C41   A    
H4    O28   S    
H3    O27   S    
C43   O24   S    
C8    O31   S    
C48   C52   A    
C1    C13   S    
C31   C45   A    
Cr3   O4    S    
C31   C36   A    
C12   O2    A    
Cr5   O18   S    
C26   O17   A    
C29   C52   A    
C2    H1    S    
C11   C12   S    
C14   O35   S    
Cr5   O17   S    
