data_str_m2_o1_o22_f0_pcu.sym.102
_audit_creation_date              2013-03-05T16:05:08-0500
_audit_creation_method            fapswitch 2.2
_symmetry_space_group_name_H-M    P1
_symmetry_Int_Tables_number       1
_space_group_crystal_system       triclinic
_cell_length_a                    10.883993
_cell_length_b                    9.540309
_cell_length_c                    10.836135
_cell_angle_alpha                 89.800342
_cell_angle_beta                  90.877012
_cell_angle_gamma                 90.160911
_cell_volume                      1125.04511347

loop_
_atom_site_label
_atom_site_type_symbol
_atom_site_description
_atom_site_fract_x
_atom_site_fract_y
_atom_site_fract_z
_atom_type_partial_charge
O1    O     O_R   0.319660 0.618740 0.499990 -0.585437
O2    O     O_R   0.319660 0.381260 0.499990 -0.581975
C1    C     C_R   0.262639 0.499745 0.501928 0.926052
O3    O     O_R   0.499990 0.618790 0.317690 -0.601135
O4    O     O_R   0.499990 0.381210 0.317690 -0.546353
C2    C     C_R   0.501358 0.499769 0.259038 0.839242
Cu1   Cu    Cu3+1 0.500020 0.640660 0.500000 0.978786
Cu2   Cu    Cu3+1 0.500020 0.359340 0.500000 1.007330
O5    O     O_R   0.680370 0.618830 0.500010 -0.553785
O6    O     O_R   0.680370 0.381170 0.500010 -0.553295
O7    O     O_R   0.500030 0.618780 0.682310 -0.601141
O8    O     O_R   0.500030 0.381220 0.682310 -0.600810
C3    C     C_R   0.738104 0.500301 0.495049 0.808598
C4    C     C_R   0.501208 0.499368 0.739524 0.801240
C5    C     C_3   0.382893 0.588667 0.063366 0.437467
C6    C     C_3   0.482769 0.336690 0.066816 0.400145
C7    C     C_3   0.380160 0.563670 0.919906 -0.418220
C8    C     C_3   0.506880 0.344870 0.924929 -0.431886
H1    H     H_    0.304111 0.493483 0.889596 0.227923
H2    H     H_    0.443306 0.275475 0.872545 0.229195
H3    H     H_    0.364532 0.662515 0.867552 0.170421
H4    H     H_    0.597879 0.303406 0.898640 0.143284
H5    H     H_    0.596542 0.693742 0.900236 0.183308
H6    H     H_    0.696675 0.551750 0.875987 0.164649
C9    C     C_3   0.631014 0.564727 0.069047 0.203459
C10   C     C_3   0.501138 0.498424 0.119207 -0.224112
C11   C     C_3   0.500637 0.497574 0.876302 -0.061412
C12   C     C_3   0.612572 0.582807 0.926086 -0.363183
C13   C     C_R   0.065716 0.374476 0.480826 -0.172974
C14   C     C_R   0.066692 0.625424 0.510483 -0.206892
H7    H     H_    0.114689 0.276810 0.468801 0.194350
H8    H     H_    0.116113 0.723292 0.523029 0.191699
C15   C     C_R   0.938405 0.373675 0.473187 0.309007
C16   C     C_R   0.939671 0.628303 0.503850 0.313616
C17   C     C_R   0.872901 0.501124 0.488166 -0.294492
C18   C     C_R   0.129661 0.499482 0.499479 -0.137675
C19   C     C_R   0.408866 0.074082 0.441017 -0.013562
C20   C     C_R   0.409651 0.925570 0.439638 -0.056220
H9    H     H_    0.335031 0.129336 0.394616 0.178339
H10   H     H_    0.337265 0.869907 0.390775 0.150863
N1    N     N_R   0.500030 0.852070 0.500030 -0.181149
N2    N     N_R   0.500030 0.147930 0.500030 -0.179258
C21   C     C_R   0.588750 0.925757 0.562864 0.060957
C22   C     C_R   0.589357 0.074377 0.562080 0.054436
H11   H     H_    0.658835 0.870013 0.614646 0.169157
H12   H     H_    0.660680 0.130123 0.612419 0.152421
C23   C     C_3   0.385228 0.751630 0.082850 -0.479028
C24   C     C_3   0.263958 0.826892 0.048585 -0.706408
H13   H     H_    0.229536 0.799409 0.954957 0.250690
H14   H     H_    0.191477 0.801433 0.116207 0.285699
H15   H     H_    0.277990 0.942054 0.051295 0.258749
H16   H     H_    0.400968 0.777690 0.181012 0.232707
H17   H     H_    0.457564 0.799595 0.025894 0.193818
C25   C     C_3   0.570739 0.215753 0.120242 -0.389281
C26   C     C_3   0.512238 0.070726 0.128171 -0.776822
H18   H     H_    0.433329 0.066767 0.190833 0.280077
H19   H     H_    0.483482 0.036791 0.034246 0.244675
H20   H     H_    0.581081 0.997435 0.167050 0.243260
H21   H     H_    0.650285 0.194203 0.061338 0.179346
H22   H     H_    0.613945 0.237140 0.210365 0.259409
N3    N     N_R   0.265831 0.542378 0.119320 0.180470
O9    O     O_R   0.169578 0.513013 0.051236 -0.353488
O10   O     O_R   0.248836 0.561338 0.236563 -0.375167
N4    N     N_R   0.353830 0.289228 0.088252 0.167089
O11   O     O_R   0.312693 0.277792 0.199970 -0.336026
O12   O     O_R   0.282000 0.245997 0.998848 -0.368620
C27   C     C_3   0.670370 0.707276 0.134240 -0.306438
C28   C     C_3   0.742759 0.814535 0.056895 -0.819316
H23   H     H_    0.809538 0.765632 0.994801 0.269120
H24   H     H_    0.679330 0.878861 0.999205 0.225391
H25   H     H_    0.793522 0.887012 0.119540 0.279891
H26   H     H_    0.594676 0.764967 0.172934 0.193342
H27   H     H_    0.724720 0.683705 0.219406 0.235572
C29   C     C_3   0.742957 0.462298 0.093871 -0.444855
C30   C     C_3   0.874881 0.516605 0.077867 -0.666653
H28   H     H_    0.890386 0.551713 0.981650 0.240868
H29   H     H_    0.899926 0.600320 0.144361 0.266092
H30   H     H_    0.939256 0.428618 0.096514 0.287941
H31   H     H_    0.738174 0.421378 0.189452 0.215146
H32   H     H_    0.740094 0.376637 0.027210 0.207783
N5    N     N_R   0.878694 0.242631 0.447365 0.141363
O13   O     O_R   0.908290 0.132008 0.511576 -0.307979
O14   O     O_R   0.817513 0.226882 0.344326 -0.378150
N6    N     N_R   0.881537 0.762171 0.513071 0.136050
O15   O     O_R   0.902862 0.839114 0.609997 -0.359962
O16   O     O_R   0.834865 0.820317 0.414260 -0.337333

loop_
_geom_bond_atom_site_label_1
_geom_bond_atom_site_label_2
_geom_bond_distance
_ccdc_geom_bond_type
C20   H10   1.081619 S    
C26   H18   1.103453 S    
C9    C27   1.589406 S    
C5    C23   1.569799 S    
C21   C22   1.417878 A    
N5    O13   1.300639 A    
Cu1   Cu2   2.683880 S    
C25   H22   1.096941 S    
C9    C12   1.568020 S    
Cu1   O7    1.985807 S    
C13   C18   1.392914 A    
C16   N6    1.431359 S    
N6    O16   1.301161 A    
C3    C17   1.470158 S    
O4    C2    1.295653 A    
C16   C17   1.421930 A    
O7    C4    1.295106 A    
C13   C15   1.386861 A    
Cu1   O5    1.974525 S    
C9    C29   1.583221 S    
C19   N2    1.367334 A    
N3    O10   1.300000 A    
O5    C3    1.296886 A    
C7    H1    1.109715 S    
C24   H15   1.109244 S    
C28   H23   1.103520 S    
C27   H27   1.111207 S    
C4    C11   1.482287 S    
C23   H17   1.105010 S    
C24   H14   1.110695 S    
O1    Cu1   1.973559 S    
C13   H7    1.083990 S    
N1    C21   1.367347 A    
N2    C22   1.367582 A    
O3    Cu1   1.987242 S    
N5    O14   1.300193 A    
C22   H12   1.081544 S    
C25   H21   1.103677 S    
C6    C10   1.656494 S    
C29   C30   1.537211 S    
C14   C16   1.383602 A    
C27   C28   1.542732 S    
C7    C11   1.538175 S    
C27   H26   1.082676 S    
N6    O15   1.301067 A    
C20   N1    1.366955 A    
O3    C2    1.303429 A    
C5    C10   1.656037 S    
C9    C10   1.646157 S    
C7    H3    1.110977 S    
O1    C1    1.292544 A    
N4    O12   1.302944 A    
C30   H28   1.109211 S    
C19   C20   1.417036 A    
C21   H11   1.080110 S    
C23   C24   1.544025 S    
Cu2   O8    1.987254 S    
C5    N3    1.484782 S    
H5    C12   1.107474 S    
C30   H29   1.108211 S    
Cu2   O6    1.973362 S    
C24   H13   1.108211 S    
O8    C4    1.288251 A    
C29   H31   1.107511 S    
C26   H19   1.109333 S    
C5    C7    1.573376 S    
C25   C26   1.524148 S    
C8    H4    1.109155 S    
O2    Cu2   1.974727 S    
C8    C11   1.548799 S    
H6    C12   1.112786 S    
Cu2   N2    2.016917 S    
O6    C3    1.298492 A    
O4    Cu2   1.985796 S    
C23   H16   1.103919 S    
C14   C18   1.391301 A    
N4    O11   1.301268 A    
O2    C1    1.291466 A    
C19   H9    1.079183 S    
C14   H8    1.084168 S    
C2    C10   1.515291 S    
C1    C18   1.447165 S    
C28   H25   1.110782 S    
C15   C17   1.422278 A    
C8    H2    1.107841 S    
Cu1   N1    2.016918 S    
N3    O9    1.302464 A    
C30   H30   1.110935 S    
C6    C25   1.602403 S    
C6    C8    1.565333 S    
C26   H20   1.104118 S    
C11   C12   1.553664 S    
C28   H24   1.109279 S    
C29   H32   1.092660 S    
C6    N4    1.494696 S    
C15   N5    1.433862 S    
