data_str_m3_o10_o29_f0_pcu.sym.9
_audit_creation_date              2012-12-10T16:59:23-0500
_audit_creation_method            fapswitch 2.2
_symmetry_space_group_name_H-M    P1
_symmetry_Int_Tables_number       1
_space_group_crystal_system       triclinic
_cell_length_a                    7.744253
_cell_length_b                    8.554085
_cell_length_c                    27.622748
_cell_angle_alpha                 90.882642
_cell_angle_beta                  85.685617
_cell_angle_gamma                 93.870434
_cell_volume                      1820.42383578

loop_
_atom_site_label
_atom_site_type_symbol
_atom_type_description
_atom_site_fract_x
_atom_site_fract_y
_atom_site_fract_z
_atom_type_partial_charge
C1    C     C_R   0.546021 0.794885 0.498407 0.952312
C2    C     C_R   0.654381 0.468421 0.125092 -0.028352
C3    C     C_R   0.504326 0.486555 0.645604 -0.088622
C4    C     C_R   0.491934 0.483536 0.353870 -0.126748
C5    C     C_R   0.664734 0.464896 0.022541 0.043691
C6    C     C_R   0.358485 0.367790 0.975866 0.043531
C7    C     C_R   0.357153 0.362748 0.027191 0.042193
C8    C     C_R   0.666111 0.469867 0.971230 0.043207
C9    C     C_R   0.509369 0.414015 0.050209 0.075449
C10   C     C_R   0.512409 0.422959 0.948281 0.075475
C11   C     C_R   0.813262 0.511447 0.047491 -0.233141
C12   C     C_R   0.453959 0.205113 0.500895 1.003741
C13   C     C_R   0.209670 0.322125 0.950928 -0.232809
C14   C     C_R   0.807496 0.513767 0.097705 -0.148231
C15   C     C_R   0.211090 0.332880 0.900927 -0.152597
C16   C     C_R   0.501964 0.499357 0.593637 0.935307
C17   C     C_R   0.497791 0.498897 0.406169 0.911488
C18   C     C_R   0.815472 0.523479 0.941824 -0.236540
C19   C     C_R   0.207595 0.309948 0.056664 -0.232399
C20   C     C_2   0.570338 0.958479 0.497309 -0.371997
C21   C     C_2   0.429779 0.041528 0.500627 -0.389132
C22   C     C_R   0.659362 0.498281 0.818732 0.518371
C23   C     C_R   0.512076 0.433005 0.897086 -0.049214
C24   C     C_R   0.349785 0.376705 0.180408 0.518256
C25   C     C_R   0.361742 0.403479 0.823339 0.508047
C26   C     C_R   0.645964 0.475866 0.175782 0.510922
C27   C     C_R   0.489281 0.330210 0.717886 -0.232128
C28   C     C_R   0.388308 0.557536 0.277646 -0.227272
C29   C     C_R   0.481619 0.338085 0.667256 0.455575
C30   C     C_R   0.391758 0.579990 0.328033 0.449247
C31   C     C_R   0.525921 0.623349 0.673414 -0.328258
C32   C     C_R   0.590338 0.370650 0.329635 -0.302205
C33   C     C_R   0.526827 0.613915 0.723469 -0.078944
C34   C     C_R   0.505599 0.416212 0.101621 -0.049610
C35   C     C_R   0.588320 0.351528 0.279820 -0.091950
C36   C     C_R   0.508971 0.467412 0.745651 0.276362
C37   C     C_R   0.488307 0.445321 0.253765 0.255511
C38   C     C_3   0.333806 0.841029 0.332688 0.096756
C39   C     C_3   0.286213 0.964916 0.370550 -0.794889
C40   C     C_3   0.355687 0.083475 0.659745 0.093329
C41   C     C_3   0.291705 0.970143 0.621041 -0.793042
C42   C     C_R   0.662931 0.487996 0.869126 -0.027129
C43   C     C_R   0.352459 0.368091 0.129730 -0.027885
C44   C     C_R   0.813603 0.531813 0.891848 -0.139693
C45   C     C_R   0.205502 0.313358 0.106859 -0.144696
C46   C     C_R   0.360499 0.389219 0.873723 -0.028289
H1    H     H_    0.541934 0.736979 0.656296 0.156982
H2    H     H_    0.480732 0.219015 0.736310 0.131884
H3    H     H_    0.924146 0.552650 0.115002 0.196018
H4    H     H_    0.093388 0.297259 0.883674 0.196237
H5    H     H_    0.937142 0.548204 0.029620 0.149483
H6    H     H_    0.087957 0.278808 0.968710 0.149037
H7    H     H_    0.936992 0.561748 0.955962 0.152250
H8    H     H_    0.088148 0.265827 0.042440 0.151006
H9    H     H_    0.702968 0.010010 0.494302 0.183505
H10   H     H_    0.297173 0.989919 0.503433 0.179908
H11   H     H_    0.255773 0.855152 0.301058 0.163868
H12   H     H_    0.667707 0.296208 0.349418 0.179264
H13   H     H_    0.474605 0.862635 0.321178 0.131946
H14   H     H_    0.364526 0.955204 0.402265 0.250052
H15   H     H_    0.313146 0.083595 0.354840 0.212022
H16   H     H_    0.146251 0.948786 0.382745 0.262106
H17   H     H_    0.239563 0.128362 0.680395 0.166627
H18   H     H_    0.431066 0.017199 0.684247 0.144674
H19   H     H_    0.403745 0.920865 0.600086 0.251651
H20   H     H_    0.208985 0.872387 0.638399 0.217724
H21   H     H_    0.214110 0.031799 0.596030 0.256037
H22   H     H_    0.014115 0.382658 0.463462 0.194571
H23   H     H_    0.985917 0.617399 0.536525 0.193040
H24   H     H_    0.541885 0.720018 0.745069 0.148301
H25   H     H_    0.665286 0.264547 0.261290 0.164037
H26   H     H_    0.931332 0.574156 0.871076 0.201942
H27   H     H_    0.086856 0.273893 0.127720 0.196486
H28   H     H_    0.310278 0.627833 0.256774 0.155289
N1    N     N_R   0.509895 0.457055 0.797092 -0.347979
N2    N     N_R   0.494763 0.431535 0.202176 -0.347037
N3    N     N_2   0.950320 0.457960 0.486880 -0.164642
N4    N     N_2   0.049680 0.542040 0.513120 -0.165406
O1    O     O_R   0.389250 0.738570 0.503220 -0.612246
O2    O     O_2   0.203916 0.330799 0.207782 -0.542572
O3    O     O_2   0.786848 0.529232 0.198611 -0.541625
O4    O     O_2   0.215930 0.365311 0.800684 -0.544980
O5    O     O_3   0.295166 0.690725 0.352972 -0.593959
O6    O     O_3   0.463302 0.205986 0.637285 -0.621361
O7    O     O_R   0.610750 0.261430 0.496780 -0.613900
O8    O     O_R   0.678390 0.711630 0.494810 -0.630733
O9    O     O_R   0.321610 0.288370 0.505190 -0.635107
O10   O     O_R   0.355440 0.513440 0.575450 -0.613416
O11   O     O_R   0.644560 0.486560 0.424550 -0.622488
O12   O     O_R   0.644590 0.486500 0.567040 -0.615276
O13   O     O_R   0.355410 0.513500 0.432960 -0.584998
O14   O     O_2   0.804090 0.547994 0.791458 -0.533066
Zn1   Zn    Zn3+2 0.306940 0.517990 0.505620 0.974246
Zn2   Zn    Zn3+2 0.693060 0.482010 0.494380 0.967602

loop_
_geom_bond_atom_site_label_1
_geom_bond_atom_site_label_2
_ccdc_geom_bond_type
C27   H2    S    
C16   O12   A    
C38   O5    S    
C27   C29   A    
C40   O6    S    
C17   O13   A    
C32   H12   S    
C28   H28   S    
C41   H21   S    
N3    N4    D    
C23   C42   A    
C12   O7    A    
C35   C37   A    
O1    Zn1   S    
C40   H17   S    
C38   C39   S    
C11   C14   A    
C14   H3    S    
O13   Zn1   S    
N4    Zn1   S    
C38   H11   S    
N3    Zn2   S    
C30   O5    S    
C33   C36   A    
C45   H27   S    
C15   H4    S    
O11   Zn2   S    
C3    C29   A    
O8    Zn2   S    
C18   H7    S    
C24   O2    S    
C26   N2    A    
C31   C33   A    
C2    C34   A    
C35   H25   S    
C23   C46   A    
C31   H1    S    
H23   N4    S    
C42   C44   A    
C22   N1    A    
C20   H9    S    
O12   Zn2   S    
C39   H15   S    
C32   C35   A    
C17   O11   A    
C29   O6    S    
C24   N2    A    
C41   H19   S    
C12   C21   S    
C8    C18   A    
C25   N1    A    
C5    C9    A    
C36   N1    S    
C18   C44   A    
C21   H10   S    
C13   H6    S    
O7    Zn2   S    
C2    C26   A    
C4    C32   A    
C3    C31   A    
C43   C45   A    
C6    C7    A    
C33   H24   S    
C4    C17   S    
C19   H8    S    
C40   C41   S    
C37   N2    S    
C26   O3    S    
C7    C19   A    
C13   C15   A    
C25   O4    S    
C1    O1    A    
H22   N3    S    
C7    C9    A    
C39   H16   S    
O10   Zn1   S    
C1    C20   S    
C12   O9    A    
C34   C43   A    
C6    C10   A    
C5    C8    A    
C19   C45   A    
C5    C11   A    
C41   H20   S    
C10   C23   A    
C40   H18   S    
C27   C36   A    
C28   C30   A    
C6    C13   A    
C22   C42   A    
C28   C37   A    
C39   H14   S    
O9    Zn1   S    
C9    C34   A    
C44   H26   S    
C2    C14   A    
C11   H5    S    
C38   H13   S    
C1    O8    A    
C20   C21   D    
C8    C10   A    
C16   O10   A    
C24   C43   A    
C22   O14   S    
C15   C46   A    
C25   C46   A    
C4    C30   A    
C3    C16   S    
