data_str_m2_o16_o21_f0_pcu.sym.78
_audit_creation_date              2012-10-26T19:43:55-0400
_audit_creation_method            fapswitch 2.2
_symmetry_space_group_name_H-M    P1
_symmetry_Int_Tables_number       1
_space_group_crystal_system       triclinic
_cell_length_a                    12.354577
_cell_length_b                    13.251547
_cell_length_c                    13.877338
_cell_angle_alpha                 107.268418
_cell_angle_beta                  73.631133
_cell_angle_gamma                 117.21271
_cell_volume                      1900.65711695

loop_
_atom_site_label
_atom_site_type_symbol
_atom_type_description
_atom_site_fract_x
_atom_site_fract_y
_atom_site_fract_z
_atom_type_partial_charge
C1    C     C_R   0.144646 0.714763 0.515181 0.578259
C2    C     C_R   0.559177 0.023204 0.460859 0.027453
C3    C     C_R   0.600754 0.942472 0.386032 0.042956
C4    C     C_R   0.982702 0.502487 0.686288 0.573572
C5    C     C_R   0.512949 0.833737 0.346257 0.266108
C6    C     C_R   0.387958 0.804457 0.387184 -0.082520
C7    C     C_R   0.647849 0.126973 0.505409 -0.064828
C8    C     C_R   0.814033 0.083438 0.389652 -0.156939
C9    C     C_R   0.227206 0.840052 0.529298 -0.042566
C10   C     C_R   0.634587 0.665580 0.677335 -0.139925
C11   C     C_R   0.265871 0.360042 0.350841 0.151327
C12   C     C_1   0.971259 0.501374 0.791172 -0.001238
C13   C     C_R   0.380000 0.347818 0.313769 0.269673
C14   C     C_R   0.477352 0.418386 0.365014 -0.020764
C15   C     C_R   0.462273 0.487305 0.460783 0.016742
C16   C     C_R   0.855516 0.285563 0.486030 0.531119
C17   C     C_R   0.349168 0.501588 0.496668 0.155599
C18   C     C_R   0.557361 0.541085 0.521536 0.041011
C19   C     C_R   0.543319 0.618160 0.615130 0.036337
C20   C     C_R   0.438654 0.645405 0.644887 -0.044202
C21   C     C_R   0.344115 0.586202 0.585269 -0.081065
C22   C     C_R   0.664120 0.516001 0.494831 0.127687
C23   C     C_R   0.728980 0.973767 0.352751 -0.079010
C24   C     C_R   0.735123 0.635799 0.647573 0.090193
C25   C     C_R   0.017297 0.497174 0.313545 0.536288
C26   C     C_1   0.032770 0.501670 0.208701 -0.022506
C27   C     C_2   0.061485 0.512518 0.015492 0.005843
C28   C     C_2   0.961415 0.496708 0.982214 -0.094065
C29   C     C_1   0.964855 0.499439 0.878620 -0.039073
C30   C     C_1   0.046845 0.506496 0.120598 -0.034587
C31   C     C_3   0.428995 0.736154 0.741528 -0.285958
C32   C     C_3   0.318064 0.768196 0.764700 -0.301117
C33   C     C_3   0.320294 0.857914 0.863927 -0.383743
C34   C     C_R   0.773299 0.162033 0.463952 -0.003745
C35   C     C_3   0.163963 0.284445 0.286426 -0.199896
C36   C     C_3   0.190268 0.311002 0.178942 -0.281986
C37   C     C_3   0.077491 0.236773 0.126008 -0.451083
C38   C     C_3   0.188500 0.539194 0.949018 -0.234824
C39   C     C_3   0.224973 0.436970 0.923881 -0.304168
C40   C     C_3   0.341809 0.454637 0.843061 -0.423366
C41   C     C_3   0.199374 0.126047 0.664064 -0.198005
C42   C     C_3   0.101039 0.114946 0.609130 -0.271168
C43   C     C_3   0.064551 0.217552 0.651336 -0.425641
C44   C     C_R   0.192376 0.921567 0.609094 0.230588
C45   C     C_R   0.258923 0.040874 0.606395 -0.002337
C46   C     C_R   0.378950 0.078163 0.545628 0.184065
C47   C     C_R   0.430265 0.995348 0.493607 0.002006
C48   C     C_R   0.347303 0.878959 0.469379 -0.104039
Cu1   Cu    Cu3+1 0.899780 0.525060 0.522890 1.049358
Cu2   Cu    Cu3+1 0.100220 0.474940 0.477110 0.916667
H1    H     H_    0.873193 0.479252 0.033812 0.141500
H2    H     H_    0.619941 0.184036 0.570363 0.158340
H3    H     H_    0.321431 0.825297 0.928564 0.158998
H4    H     H_    0.403003 0.940146 0.855810 0.175908
H5    H     H_    0.236304 0.875182 0.882130 0.224178
H6    H     H_    0.320613 0.804419 0.700951 0.192115
H7    H     H_    0.230294 0.690505 0.773895 0.171891
H8    H     H_    0.425975 0.704285 0.808243 0.146750
H9    H     H_    0.514068 0.817094 0.734723 0.163725
H10   H     H_    0.052299 0.143459 0.120015 0.184348
H11   H     H_    0.997344 0.257385 0.169683 0.155124
H12   H     H_    0.322557 0.722431 0.353399 0.188864
H13   H     H_    0.098241 0.252960 0.047554 0.150055
H14   H     H_    0.214926 0.403854 0.184173 0.202787
H15   H     H_    0.268021 0.292649 0.128456 0.248800
H16   H     H_    0.141255 0.192190 0.281385 0.160412
H17   H     H_    0.077672 0.290420 0.321561 0.197718
H18   H     H_    0.594795 0.253050 0.194679 0.345163
H19   H     H_    0.325561 0.458416 0.769688 0.169106
H20   H     H_    0.419520 0.535878 0.869448 0.175601
H21   H     H_    0.367666 0.380977 0.829459 0.163774
H22   H     H_    0.242165 0.427853 0.994557 0.182827
H23   H     H_    0.802057 0.669767 0.697521 0.202784
H24   H     H_    0.148841 0.355783 0.894671 0.162264
H25   H     H_    0.192212 0.560515 0.876444 0.146922
H26   H     H_    0.257503 0.616894 0.990222 0.162389
H27   H     H_    0.656356 0.628388 0.242869 0.370003
H28   H     H_    0.056110 0.947009 0.881857 0.374507
H29   H     H_    0.486812 0.278284 0.671971 0.308582
H30   H     H_    0.028336 0.224089 0.734831 0.147656
H31   H     H_    0.145555 0.299380 0.637815 0.190988
H32   H     H_    0.991438 0.205598 0.612087 0.165723
H33   H     H_    0.135302 0.109577 0.525525 0.212099
H34   H     H_    0.628772 0.723765 0.750145 0.113969
H35   H     H_    0.017299 0.034295 0.618958 0.208584
H36   H     H_    0.156583 0.114529 0.743469 0.206518
H37   H     H_    0.269238 0.216389 0.674740 0.178949
H38   H     H_    0.680182 0.455599 0.427329 0.151836
H39   H     H_    0.565133 0.415171 0.328470 0.114221
H40   H     H_    0.268066 0.609266 0.608508 0.188056
H41   H     H_    0.910980 0.107804 0.357357 0.115082
H42   H     H_    0.765133 0.916019 0.295674 0.203745
N1    N     N_R   0.748810 0.563010 0.557590 -0.240691
N2    N     N_R   0.250540 0.437620 0.443020 -0.251481
O1    O     O_R   0.025040 0.682470 0.528790 -0.435414
O2    O     O_2   0.473562 0.303906 0.113810 -0.325258
O3    O     O_3   0.511785 0.204442 0.227557 -0.438833
O4    O     O_2   0.442884 0.621569 0.223010 -0.304527
O5    O     O_2   0.628659 0.778250 0.156820 -0.274504
O6    O     O_3   0.642707 0.692205 0.296345 -0.557065
O7    O     O_2   0.959900 0.877379 0.710616 -0.334089
O8    O     O_2   0.056603 0.760261 0.728966 -0.314210
O9    O     O_3   0.127409 0.971027 0.826117 -0.570899
O10   O     O_2   0.549404 0.227372 0.423049 -0.240413
O11   O     O_2   0.353904 0.244753 0.493604 -0.307254
O12   O     O_R   0.194310 0.640150 0.490130 -0.531649
O13   O     O_3   0.510417 0.320225 0.615896 -0.543699
O14   O     O_R   0.903380 0.524130 0.659910 -0.464513
O15   O     O_R   0.072660 0.481800 0.621240 -0.537645
O16   O     O_R   0.805690 0.359850 0.509870 -0.453065
O17   O     O_R   0.974960 0.317530 0.471210 -0.542953
O18   O     O_R   0.927340 0.518200 0.378760 -0.505249
O19   O     O_R   0.096620 0.475870 0.340090 -0.512632
O20   O     O_2   0.300336 0.138500 0.178818 -0.272963
S1    S     S_3+6 0.412774 0.245920 0.204811 0.007080
S2    S     S_3+6 0.555335 0.728378 0.250883 -0.015408
S3    S     S_3+6 0.078838 0.878114 0.718878 -0.046042
S4    S     S_3+6 0.449849 0.219485 0.515939 -0.027970

loop_
_geom_bond_atom_site_label_1
_geom_bond_atom_site_label_2
_ccdc_geom_bond_type
C33   H5    S    
C15   C18   A    
C4    O15   A    
C40   H21   S    
C12   C29   T    
C41   C42   S    
C3    C23   A    
C35   C36   S    
O6    S2    S    
O20   S1    D    
C16   O16   A    
C38   H26   S    
C45   C46   A    
C41   H36   S    
C4    O14   A    
C6    C48   A    
C31   H8    S    
C36   C37   S    
C7    H2    S    
C38   C39   S    
C28   H1    S    
C24   H23   S    
C27   C38   S    
C8    C23   A    
C46   S4    S    
H27   O6    S    
C18   C19   A    
C39   H24   S    
C31   H9    S    
H18   O3    S    
C25   O18   A    
C16   C34   S    
C2    C7    A    
C39   H22   S    
O2    S1    D    
C22   H38   S    
C4    C12   S    
O13   S4    S    
C1    O12   A    
C21   H40   S    
C13   C14   A    
C27   C30   S    
O9    S3    S    
C32   H7    S    
C37   H13   S    
Cu1   O14   S    
O10   S4    D    
C38   H25   S    
C33   H3    S    
C41   H37   S    
C40   H19   S    
C1    C9    S    
C39   C40   S    
C42   H35   S    
C36   H15   S    
Cu2   N2    S    
C35   H16   S    
C10   C24   A    
C43   H30   S    
Cu2   O15   S    
C17   C21   A    
C14   H39   S    
C25   O19   A    
O4    S2    D    
C47   C48   A    
C14   C15   A    
C35   H17   S    
C10   C19   A    
C1    O1    A    
H29   O13   S    
C8    H41   S    
C8    C34   A    
Cu1   O1    S    
C13   S1    S    
O8    S3    D    
C40   H20   S    
Cu1   O18   S    
C11   N2    A    
C26   C30   T    
C5    S2    S    
C43   H31   S    
C22   N1    A    
O11   S4    D    
O3    S1    S    
C42   C43   S    
O5    S2    D    
C44   C45   A    
C33   H4    S    
C15   C17   A    
C46   C47   A    
C28   C29   S    
C9    C44   A    
H28   O9    S    
C18   C22   A    
C31   C32   S    
C42   H33   S    
C3    C5    A    
C37   H11   S    
C2    C47   A    
Cu2   O19   S    
O7    S3    D    
C32   C33   S    
C6    H12   S    
C19   C20   A    
C11   C35   S    
C2    C3    A    
C25   C26   S    
C24   N1    A    
C11   C13   A    
C5    C6    A    
C44   S3    S    
C10   H34   S    
Cu2   O17   S    
C7    C34   A    
C37   H10   S    
C20   C21   A    
C9    C48   A    
Cu1   Cu2   S    
C27   C28   D    
Cu2   O12   S    
C43   H32   S    
C41   C45   S    
C23   H42   S    
C17   N2    A    
Cu1   N1    S    
C36   H14   S    
C32   H6    S    
C16   O17   A    
Cu1   O16   S    
C20   C31   S    
