data_str_m3_o41_o41_f0_fof.sym.58
_audit_creation_date              2012-12-10T16:39:36-0500
_audit_creation_method            fapswitch 2.2
_symmetry_space_group_name_H-M    P1
_symmetry_Int_Tables_number       1
_space_group_crystal_system       triclinic
_cell_length_a                    16.865784
_cell_length_b                    16.636515
_cell_length_c                    16.955106
_cell_angle_alpha                 65.401076
_cell_angle_beta                  66.02547
_cell_angle_gamma                 65.734144
_cell_volume                      3781.29758189

loop_
_atom_site_label
_atom_site_type_symbol
_atom_type_description
_atom_site_fract_x
_atom_site_fract_y
_atom_site_fract_z
_atom_type_partial_charge
C1    C     C_R   0.316679 0.990164 0.448046 -0.017671
C2    C     C_R   0.321672 0.468466 0.947104 -0.006988
C3    C     C_R   0.549188 0.438049 0.953835 0.016199
C4    C     C_R   0.003692 0.457990 0.588949 0.024937
C5    C     C_R   0.036859 0.521986 0.400963 0.006898
C6    C     C_3   0.217250 0.098155 0.213618 0.155939
C7    C     C_3   0.151335 0.104786 0.169022 -0.356067
C8    C     C_3   0.126885 0.199823 0.102510 -0.829823
C9    C     C_3   0.812228 0.890907 0.798867 0.134698
C10   C     C_3   0.866219 0.908325 0.840922 -0.325655
C11   C     C_3   0.935791 0.820173 0.876571 -0.902411
C12   C     C_3   0.802005 0.324335 0.308989 0.078587
C13   C     C_R   0.068899 0.667529 0.536649 0.008254
C14   C     C_3   0.761371 0.246655 0.379705 -0.303810
C15   C     C_3   0.658572 0.276371 0.398883 -0.968696
C16   C     C_3   0.214642 0.709699 0.635569 0.118785
C17   C     C_3   0.277925 0.714262 0.675971 -0.342425
C18   C     C_3   0.363947 0.734292 0.603551 -0.957407
C19   C     C_3   0.332917 0.302163 0.800563 0.131574
C20   C     C_3   0.302898 0.403160 0.742720 -0.390586
C21   C     C_3   0.328650 0.410852 0.643100 -0.933965
C22   C     C_3   0.693922 0.673824 0.198132 0.092686
C23   C     C_3   0.620715 0.748451 0.240753 -0.327700
C24   C     C_R   0.943337 0.328993 0.458974 0.000359
C25   C     C_3   0.604067 0.716888 0.343037 -0.959823
C26   C     C_R   0.464292 0.960508 0.467040 -0.038708
C27   C     C_R   0.568532 0.940939 0.573499 -0.044077
C28   C     C_R   0.998199 0.448325 0.451828 -0.040188
C29   C     C_R   0.033807 0.537218 0.539345 -0.037168
C30   C     C_R   0.455963 0.473132 0.964784 -0.040118
C31   C     C_R   0.545577 0.562473 0.995506 -0.039157
C32   C     C_R   0.959598 0.179736 0.439095 0.965950
C33   C     C_R   0.710404 0.941673 0.581487 -0.036362
C34   C     C_R   0.039409 0.819797 0.561638 0.887736
C35   C     C_R   0.179244 0.439052 0.961564 0.953219
C36   C     C_R   0.822974 0.569886 0.021358 0.991347
C37   C     C_R   0.433774 0.975218 0.177494 0.938230
C38   C     C_R   0.575359 0.993052 0.838378 0.988228
C39   C     C_R   0.559996 0.820547 0.042319 0.926038
C40   C     C_R   0.435218 0.180106 0.968356 0.940874
C41   C     C_R   0.037840 0.562427 0.820254 0.961518
C42   C     C_R   0.978898 0.430216 0.176822 0.940637
C43   C     C_R   0.837025 0.994029 0.575599 0.942719
C44   C     C_R   0.008209 0.428285 0.312472 -0.045439
C45   C     C_R   0.175912 0.981040 0.431747 0.964444
C46   C     C_R   0.411830 0.973268 0.412422 -0.025805
C47   C     C_R   0.618184 0.943360 0.622499 0.007574
C48   C     C_R   0.981626 0.403202 0.407917 -0.005044
C49   C     C_R   0.050000 0.581864 0.584178 -0.025438
C50   C     C_R   0.410844 0.424411 0.954765 -0.004099
C51   C     C_R   0.590278 0.603262 0.015632 -0.021375
C52   C     C_R   0.267494 0.990051 0.395340 -0.216205
C53   C     C_R   0.753249 0.964409 0.624079 -0.245539
C54   C     C_R   0.975437 0.392490 0.271395 -0.245003
C55   C     C_R   0.049980 0.539224 0.675881 -0.006680
C56   C     C_R   0.062106 0.588677 0.720967 -0.211007
C57   C     C_R   0.405546 0.280696 0.950781 -0.250554
C58   C     C_R   0.588230 0.720202 0.066444 -0.194370
C59   C     C_R   0.621867 0.965151 0.755067 -0.224134
C60   C     C_R   0.398813 0.982021 0.269187 -0.206296
C61   C     C_R   0.727957 0.608625 0.025586 -0.237884
C62   C     C_R   0.277627 0.414799 0.939497 -0.211955
C63   C     C_R   0.069117 0.717748 0.587586 -0.237703
C64   C     C_R   0.935606 0.280707 0.410915 -0.214069
C65   C     C_R   0.489289 0.929205 0.756052 0.075253
C66   C     C_R   0.453761 0.329901 0.959042 -0.042552
C67   C     C_R   0.546346 0.978101 0.283997 0.090353
C68   C     C_R   0.096040 0.694371 0.440198 0.079289
C69   C     C_R   0.917127 0.303902 0.554962 0.074320
C70   C     C_R   0.734896 0.513356 0.938145 0.075690
C71   C     C_R   0.281206 0.562805 0.950352 0.078577
C72   C     C_R   0.275403 0.010337 0.532674 0.095159
C73   C     C_R   0.756020 0.913623 0.501391 0.069056
C74   C     C_R   0.543708 0.291062 0.969793 0.088677
C75   C     C_R   0.443025 0.701455 0.080541 0.087170
C76   C     C_R   0.064937 0.488455 0.263416 0.082741
C77   C     C_R   0.539552 0.674447 0.056505 -0.002448
C78   C     C_R   0.043316 0.446695 0.715885 0.087608
C79   C     C_R   0.306888 0.994919 0.305753 0.313532
C80   C     C_R   0.712373 0.964861 0.713903 0.352733
C81   C     C_R   0.931492 0.324749 0.323369 0.365506
C82   C     C_R   0.086730 0.669789 0.670971 0.351757
C83   C     C_R   0.326202 0.329680 0.924950 0.358008
C84   C     C_R   0.676539 0.675955 0.069683 0.351894
C85   C     C_R   0.705345 0.919540 0.449456 0.114473
C86   C     C_R   0.328088 0.982233 0.591698 0.056699
C87   C     C_R   0.003350 0.415610 0.679764 0.048905
C88   C     C_R   0.575615 0.946590 0.712508 -0.006361
C89   C     C_R   0.069240 0.542831 0.306312 0.102944
C90   C     C_R   0.399776 0.668767 0.048997 0.063343
C91   C     C_R   0.595184 0.350897 0.941925 0.105457
C92   C     C_R   0.600691 0.945195 0.341980 0.056800
C93   C     C_R   0.434892 0.944307 0.703084 0.062553
C94   C     C_R   0.317576 0.597061 0.987297 0.065557
C95   C     C_R   0.690405 0.458966 0.936253 0.065666
C96   C     C_R   0.943107 0.342267 0.598007 0.066750
C97   C     C_R   0.086665 0.645054 0.394588 0.066167
C98   C     C_R   0.747569 0.909911 0.362156 -0.189635
C99   C     C_R   0.453566 0.976271 0.320272 -0.003938
C100  C     C_R   0.287972 0.978155 0.683546 -0.217904
C101  C     C_R   0.969363 0.339139 0.730310 -0.232077
C102  C     C_R   0.109621 0.614989 0.256601 -0.183241
C103  C     C_R   0.306962 0.707076 0.053801 -0.222111
C104  C     C_R   0.690129 0.319645 0.921619 -0.201609
C105  C     C_R   0.695710 0.925158 0.308267 -0.234257
C106  C     C_R   0.341104 0.955210 0.739374 -0.211328
C107  C     C_R   0.267845 0.675107 0.018378 -0.232588
C108  C     C_R   0.737777 0.376242 0.912597 -0.213136
C109  C     C_R   0.935136 0.306187 0.691243 -0.210242
C110  C     C_R   0.686089 0.575325 0.991802 -0.016013
C111  C     C_R   0.116173 0.666694 0.299611 -0.238782
C112  C     C_R   0.558823 0.944343 0.432199 0.022544
C113  C     C_R   0.475317 0.949408 0.611176 0.020681
C114  C     C_R   0.980528 0.416902 0.546298 0.021694
C115  C     C_R   0.049806 0.569975 0.445125 0.026254
C116  C     C_R   0.407947 0.555271 0.987884 0.028911
C117  C     C_R   0.595272 0.486987 0.961184 0.019621
C118  C     C_R   0.610799 0.935365 0.484955 0.007378
C119  C     C_R   0.422775 0.961922 0.557186 0.023407
C120  C     C_R   0.451115 0.595831 0.010733 0.017476
H1    H     H_    0.306872 0.951737 0.809661 0.128165
H2    H     H_    0.264755 0.764273 0.081100 0.123933
H3    H     H_    0.134492 0.633545 0.183727 0.150576
H4    H     H_    0.966434 0.305904 0.801032 0.119409
H5    H     H_    0.271537 0.129457 0.161524 0.132241
H6    H     H_    0.179123 0.137402 0.264089 0.104351
H7    H     H_    0.182475 0.052366 0.132169 0.217993
H8    H     H_    0.088737 0.090584 0.222043 0.235797
H9    H     H_    0.109902 0.253506 0.133987 0.270248
H10   H     H_    0.068054 0.208941 0.082359 0.246393
H11   H     H_    0.185539 0.207116 0.041360 0.297370
H12   H     H_    0.730634 0.921589 0.239837 0.136324
H13   H     H_    0.860473 0.854346 0.747709 0.123117
H14   H     H_    0.769286 0.846727 0.852953 0.129677
H15   H     H_    0.902302 0.959571 0.789165 0.220958
H16   H     H_    0.818748 0.937457 0.897366 0.210334
H17   H     H_    0.901628 0.767518 0.927736 0.295346
H18   H     H_    0.971706 0.835135 0.908767 0.224115
H19   H     H_    0.986472 0.793087 0.819967 0.307190
H20   H     H_    0.781035 0.346732 0.247036 0.169466
H21   H     H_    0.773095 0.386076 0.333795 0.104691
H22   H     H_    0.791449 0.185222 0.354956 0.246516
H23   H     H_    0.146229 0.722484 0.257404 0.131067
H24   H     H_    0.777436 0.226811 0.443869 0.219084
H25   H     H_    0.626830 0.336853 0.425159 0.263065
H26   H     H_    0.631545 0.218564 0.450489 0.274921
H27   H     H_    0.640323 0.294714 0.336255 0.265317
H28   H     H_    0.202069 0.774843 0.579781 0.152204
H29   H     H_    0.250746 0.650501 0.606649 0.122111
H30   H     H_    0.242263 0.769929 0.709076 0.230897
H31   H     H_    0.297858 0.646461 0.726165 0.230138
H32   H     H_    0.402754 0.677810 0.571639 0.263799
H33   H     H_    0.407366 0.739582 0.634854 0.273855
H34   H     H_    0.907163 0.249049 0.733979 0.128110
H35   H     H_    0.346656 0.800518 0.550593 0.269018
H36   H     H_    0.312916 0.258170 0.781815 0.169020
H37   H     H_    0.408284 0.276556 0.785186 0.122311
H38   H     H_    0.228413 0.432284 0.767463 0.248643
H39   H     H_    0.335720 0.445352 0.748766 0.206704
H40   H     H_    0.403317 0.383693 0.616507 0.263311
H41   H     H_    0.306440 0.484451 0.603572 0.261179
H42   H     H_    0.294873 0.371498 0.634263 0.264780
H43   H     H_    0.756229 0.654334 0.217781 0.170310
H44   H     H_    0.672276 0.609767 0.226506 0.101865
H45   H     H_    0.810815 0.350501 0.895440 0.132077
H46   H     H_    0.642156 0.812341 0.210700 0.241710
H47   H     H_    0.556144 0.764804 0.226566 0.203452
H48   H     H_    0.583398 0.652489 0.374570 0.261244
H49   H     H_    0.548908 0.771251 0.372070 0.273063
H50   H     H_    0.666443 0.704396 0.359286 0.270489
H51   H     H_    0.459889 0.817136 0.858700 0.179435
H52   H     H_    0.402538 0.917918 0.883834 0.195867
H53   H     H_    0.634337 0.008474 0.158095 0.178351
H54   H     H_    0.588131 0.092910 0.208544 0.181966
H55   H     H_    0.112609 0.814568 0.342873 0.195923
H56   H     H_    0.197433 0.709316 0.019613 0.119513
H57   H     H_    0.210804 0.729856 0.355747 0.169537
H58   H     H_    0.798899 0.282575 0.646307 0.179948
H59   H     H_    0.889488 0.186625 0.650970 0.200039
H60   H     H_    0.818094 0.536757 0.810067 0.179319
H61   H     H_    0.868963 0.451061 0.887598 0.207504
H62   H     H_    0.244542 0.683991 0.857003 0.160388
H63   H     H_    0.157749 0.656795 0.944378 0.193740
H64   H     H_    0.199403 0.136559 0.549770 0.174681
H65   H     H_    0.144878 0.054402 0.608122 0.189053
H66   H     H_    0.870993 0.832687 0.541608 0.190531
H67   H     H_    0.215605 0.990181 0.713755 0.128563
H68   H     H_    0.889037 0.898544 0.429154 0.222131
H69   H     H_    0.503467 0.197277 0.092353 0.221349
H70   H     H_    0.613536 0.158467 0.025877 0.208219
H71   H     H_    0.350229 0.716716 0.199393 0.169615
H72   H     H_    0.347607 0.816263 0.112809 0.199617
H73   H     H_    0.141642 0.421698 0.165182 0.179463
H74   H     H_    0.115203 0.540226 0.126849 0.220529
H75   H     H_    0.147426 0.330372 0.739542 0.172765
H76   H     H_    0.059697 0.342703 0.832725 0.188196
H77   H     H_    0.820299 0.896000 0.332948 0.144135
H78   H     H_    0.727180 0.251810 0.912590 0.134196
N1    N     N_3   0.465521 0.880457 0.851019 -0.418781
N2    N     N_3   0.390463 0.754673 0.143170 -0.441646
N3    N     N_3   0.132784 0.480932 0.179003 -0.449595
N4    N     N_3   0.099191 0.378287 0.773313 -0.419073
N5    N     N_3   0.574631 0.042635 0.198094 -0.428433
N6    N     N_3   0.145313 0.761688 0.390116 -0.424566
N7    N     N_3   0.857760 0.246262 0.607345 -0.431033
N8    N     N_3   0.822747 0.516889 0.875591 -0.434936
N9    N     N_3   0.217904 0.628917 0.900080 -0.408017
N10   N     N_3   0.189398 0.080102 0.546563 -0.411313
N11   N     N_3   0.849310 0.859053 0.483767 -0.454155
N12   N     N_3   0.562623 0.214128 0.046772 -0.456243
O1    O     O_R   0.982940 0.138950 0.510160 -0.627723
O2    O     O_R   0.982940 0.510160 0.138950 -0.651577
O3    O     O_R   0.861050 0.017060 0.489840 -0.659517
O4    O     O_R   0.138950 0.982940 0.510160 -0.638662
O5    O     O_R   0.867700 0.025880 0.612340 -0.573395
O6    O     O_R   0.132300 0.974120 0.387660 -0.577429
O7    O     O_R   0.025880 0.612340 0.867700 -0.601692
O8    O     O_R   0.974120 0.387660 0.132300 -0.584217
O9    O     O_R   0.612340 0.867700 0.025880 -0.610463
O10   O     O_R   0.387660 0.132300 0.974120 -0.587291
O11   O     O_R   0.387660 0.974120 0.132300 -0.582909
O12   O     O_R   0.017060 0.861050 0.489840 -0.652939
O13   O     O_R   0.612340 0.025880 0.867700 -0.573106
O14   O     O_R   0.132300 0.387660 0.974120 -0.598315
O15   O     O_R   0.867700 0.612340 0.025880 -0.596291
O16   O     O_R   0.974120 0.132300 0.387660 -0.597222
O17   O     O_R   0.025880 0.867700 0.612340 -0.620394
O18   O     O_3   0.255303 0.003797 0.254847 -0.601674
O19   O     O_3   0.757528 0.977250 0.758435 -0.600132
O20   O     O_3   0.898002 0.291234 0.284622 -0.605741
O21   O     O_3   0.131311 0.699353 0.702428 -0.620309
O22   O     O_3   0.290012 0.290921 0.894172 -0.629682
O23   O     O_R   0.138950 0.510160 0.982940 -0.653327
O24   O     O_3   0.716421 0.709008 0.102490 -0.609243
O25   O     O_R   0.861050 0.489840 0.017060 -0.634236
O26   O     O_R   0.510160 0.982940 0.138950 -0.646499
O27   O     O_R   0.489840 0.017060 0.861050 -0.636452
O28   O     O_R   0.489840 0.861050 0.017060 -0.644115
O29   O     O_R   0.510160 0.138950 0.982940 -0.650180
O30   O     O_R   0.017060 0.489840 0.861050 -0.639148
Zn1   Zn    Zn3+2 0.004880 0.004880 0.583590 0.912464
Zn2   Zn    Zn3+2 0.995120 0.995120 0.416410 0.896971
Zn3   Zn    Zn3+2 0.004880 0.583590 0.004880 0.908070
Zn4   Zn    Zn3+2 0.995120 0.416410 0.995120 0.915383
Zn5   Zn    Zn3+2 0.583590 0.004880 0.004880 0.910705
Zn6   Zn    Zn3+2 0.416410 0.995120 0.995120 0.913137

loop_
_geom_bond_atom_site_label_1
_geom_bond_atom_site_label_2
_ccdc_geom_bond_type
C25   H50   S    
C39   O9    A    
C112  C118  A    
C62   C83   A    
H59   N7    S    
C60   C79   A    
C36   O15   A    
C22   H43   S    
C89   C102  A    
C68   N6    S    
H63   N9    S    
O9    Zn5   S    
O1    Zn1   S    
C17   H30   S    
C91   C104  A    
C82   O21   S    
C60   C99   A    
C43   O5    A    
C14   H22   S    
O12   Zn2   S    
C7    C8    S    
C72   N10   S    
C71   C94   A    
C30   C116  A    
C75   N2    S    
C95   C117  A    
C36   O25   A    
O11   Zn6   S    
C98   C105  A    
C74   N12   S    
O4    Zn1   S    
C26   C46   A    
C73   N11   S    
O3    Zn2   S    
C11   H18   S    
C10   H16   S    
H55   N6    S    
C32   O16   A    
O2    Zn3   S    
H69   N12   S    
C97   C111  A    
H60   N8    S    
C1    C46   A    
O16   Zn2   S    
C83   O22   S    
C25   H49   S    
C66   C74   A    
H58   N7    S    
O30   Zn4   S    
C45   O6    A    
H73   N3    S    
C12   H21   S    
H52   N1    S    
C3    C91   A    
H62   N9    S    
C31   C120  A    
C44   C76   A    
C11   H19   S    
C59   C88   A    
C31   C117  A    
C9    O19   S    
H51   N1    S    
C85   C98   A    
C2    C50   A    
C58   C77   A    
C87   C101  A    
C40   C57   S    
C43   C53   S    
C19   C20   S    
C16   C17   S    
C20   H39   S    
C6    O18   S    
C12   H20   S    
C16   H29   S    
C35   O23   A    
O8    Zn4   S    
C7    H8    S    
C97   C115  A    
C52   C79   A    
C70   C110  A    
C19   O22   S    
C80   O19   S    
C4    C29   A    
C75   C90   A    
C67   C99   A    
C76   C89   A    
C9    H14   S    
C69   C96   A    
C65   C93   A    
C30   C50   A    
C101  C109  A    
H61   N8    S    
C24   C64   A    
C65   N1    S    
C5    C115  A    
C33   C53   A    
C19   H36   S    
H65   N10   S    
C96   C114  A    
C102  C111  A    
C17   H31   S    
C104  H78   S    
C18   H32   S    
C61   C110  A    
O23   Zn3   S    
C24   C69   A    
C17   C18   S    
C105  H12   S    
C22   C23   S    
C25   H48   S    
O6    Zn2   S    
C64   C81   A    
C14   H24   S    
C94   C107  A    
O5    Zn1   S    
C1    C72   A    
C21   H41   S    
C63   C82   A    
C101  H4    S    
C53   C80   A    
C44   C48   A    
C26   C119  A    
C6    H6    S    
C10   C11   S    
H75   N4    S    
C32   O1    A    
C94   C116  A    
C76   N3    S    
O14   Zn4   S    
C29   C49   A    
C45   C52   S    
C49   C55   A    
H74   N3    S    
O13   Zn5   S    
C116  C120  A    
C4    C87   A    
C19   H37   S    
C38   O13   A    
C3    C30   A    
C84   O24   S    
O7    Zn3   S    
C41   C56   S    
C58   C84   A    
C93   C106  A    
C23   H46   S    
C75   C77   A    
H68   N11   S    
C24   C48   A    
C41   O7    A    
C13   C63   A    
C73   C85   A    
O25   Zn4   S    
O28   Zn6   S    
C8    H11   S    
C57   C83   A    
C45   O4    A    
C5    C28   A    
C68   C97   A    
C113  C119  A    
C2    C71   A    
H71   N2    S    
C56   C82   A    
C109  H34   S    
C50   C66   A    
C74   C91   A    
C32   C64   S    
C86   C119  A    
C18   H33   S    
C28   C114  A    
C3    C117  A    
C13   C49   A    
C100  H67   S    
C27   C113  A    
C33   C73   A    
C12   C14   S    
C51   C110  A    
C81   O20   S    
C8    H10   S    
C33   C47   A    
C21   H40   S    
C23   H47   S    
C70   N8    S    
H76   N4    S    
C102  H3    S    
C43   O3    A    
C78   C87   A    
C26   C112  A    
C79   O18   S    
C104  C108  A    
C42   O2    A    
H57   N6    S    
C37   O26   A    
C15   H25   S    
C9    C10   S    
C27   C118  A    
C27   C47   A    
C55   C78   A    
O10   Zn6   S    
C28   C48   A    
C21   H42   S    
C98   H77   S    
H70   N12   S    
C67   C92   A    
C100  C106  A    
O26   Zn5   S    
C92   C112  A    
O15   Zn3   S    
C78   N4    S    
C6    H5    S    
C31   C51   A    
C42   O8    A    
C61   C84   A    
C59   C80   A    
O17   Zn1   S    
C15   H26   S    
C72   C86   A    
C12   O20   S    
C6    C7    S    
C111  H23   S    
C40   O29   A    
C96   C109  A    
C16   O21   S    
C69   N7    S    
C34   O17   A    
H64   N10   S    
O29   Zn5   S    
H53   N5    S    
C103  C107  A    
C47   C88   A    
C46   C99   A    
C22   H44   S    
C70   C95   A    
C11   H17   S    
C37   O11   A    
C10   H15   S    
C57   C66   A    
C35   O14   A    
C42   C54   S    
C38   O27   A    
C15   H27   S    
C86   C100  A    
C39   C58   S    
C108  H45   S    
C16   H28   S    
C51   C77   A    
C65   C88   A    
C106  H1    S    
C71   N9    S    
C34   C63   S    
C22   O24   S    
O27   Zn6   S    
C93   C113  A    
C35   C62   S    
H54   N5    S    
H72   N2    S    
C36   C61   S    
C29   C115  A    
C85   C118  A    
C1    C52   A    
C5    C89   A    
C90   C103  A    
C37   C60   S    
C67   N5    S    
C95   C108  A    
C4    C114  A    
C55   C56   A    
C38   C59   S    
C44   C54   A    
C92   C105  A    
C39   O28   A    
C23   C25   S    
C20   C21   S    
C107  H56   S    
H66   N11   S    
C8    H9    S    
C14   C15   S    
C20   H38   S    
C7    H7    S    
C103  H2    S    
C2    C62   A    
C13   C68   A    
C54   C81   A    
C40   O10   A    
C18   H35   S    
C34   O12   A    
C90   C120  A    
C41   O30   A    
C9    H13   S    
