data_str_m9_o4_o16_f0_sra.sym.115
_audit_creation_date              2012-12-11T17:00:15-0500
_audit_creation_method            fapswitch 2.2
_symmetry_space_group_name_H-M    P1
_symmetry_Int_Tables_number       1
_space_group_crystal_system       triclinic
_cell_length_a                    6.979849
_cell_length_b                    13.566034
_cell_length_c                    20.259935
_cell_angle_alpha                 103.063499
_cell_angle_beta                  89.676223
_cell_angle_gamma                 90.851976
_cell_volume                      1868.53093464

loop_
_atom_site_label
_atom_site_type_symbol
_atom_type_description
_atom_site_fract_x
_atom_site_fract_y
_atom_site_fract_z
_atom_type_partial_charge
O1    O     O_R   0.506770 0.599700 0.449550 -0.529776
O2    O     O_R   0.179980 0.595740 0.587960 -0.549731
O3    O     O_R   0.004580 0.400300 0.550450 -0.541995
C1    C     C_R   0.348216 0.617649 0.615030 0.675763
O4    O     O_R   0.177380 0.611700 0.452380 -0.539274
O5    O     O_R   0.001970 0.416370 0.413900 -0.518515
C2    C     C_R   0.347610 0.638215 0.435698 0.751699
O6    O     O_R   0.509390 0.583630 0.586100 -0.542015
O7    O     O_3   0.337530 0.435890 0.487530 -0.363882
V1    V     V_3+5 0.064660 0.511890 0.502310 1.448086
O8    O     O_R   0.671950 0.404260 0.412040 -0.527750
C3    C     C_R   0.840185 0.382415 0.384958 0.733720
O9    O     O_R   0.674540 0.388300 0.547620 -0.545188
C4    C     C_R   0.842151 0.361660 0.564213 0.677831
V2    V     V_3+5 0.564030 0.488110 0.497690 1.459456
O10   O     O_3   0.841030 0.564110 0.512470 -0.380141
C5    C     C_R   0.834683 0.108879 0.610280 -0.159026
H1    H     H_    0.826521 0.158892 0.517160 0.098613
H2    H     H_    0.835050 0.983081 0.693156 0.117595
H3    H     H_    0.826288 0.029731 0.584420 0.110000
C6    C     C_R   0.846863 0.284362 0.603957 -0.025539
C7    C     C_R   0.874969 0.317270 0.930649 -0.165287
C8    C     C_R   0.875234 0.393762 0.895234 -0.119063
C9    C     C_R   0.867750 0.370333 0.824686 -0.158351
C10   C     C_R   0.859717 0.268450 0.787391 0.076932
C11   C     C_R   0.857878 0.190335 0.824169 0.069944
C12   C     C_R   0.853515 0.241476 0.714998 0.071051
C13   C     C_R   0.843581 0.137426 0.681295 0.144216
C14   C     C_R   0.842051 0.062502 0.718533 -0.206902
C15   C     C_R   0.849518 0.088344 0.788759 -0.197262
C16   C     C_R   0.856385 0.314026 0.674611 -0.213411
C17   C     C_R   0.835219 0.182019 0.571880 -0.177013
C18   C     C_R   0.865786 0.215916 0.895906 -0.075442
H4    H     H_    0.864187 0.394213 0.696178 0.090800
H5    H     H_    0.882096 0.337145 0.985496 0.106163
H6    H     H_    0.868472 0.433942 0.801118 0.105811
H7    H     H_    0.881879 0.472099 0.922692 0.117682
H8    H     H_    0.848373 0.027309 0.815144 0.108343
C19   C     C_R   0.712378 0.252374 0.202985 0.004761
C20   C     C_R   0.866100 0.186859 0.183017 -0.102693
C21   C     C_R   0.012359 0.187228 0.230694 -0.144099
H9    H     H_    0.130128 0.135361 0.218189 0.122716
C22   C     C_R   0.000581 0.249420 0.296528 -0.102641
H10   H     H_    0.104269 0.243822 0.334266 0.150071
C23   C     C_R   0.848683 0.315646 0.316000 -0.129817
C24   C     C_R   0.702242 0.312983 0.268885 0.125826
C25   C     C_3   0.497635 0.283716 0.275971 0.494164
C26   C     C_3   0.505214 0.224106 0.202816 -0.412565
H11   H     H_    0.422475 0.258265 0.167103 0.192604
H12   H     H_    0.481546 0.141221 0.195891 0.144394
C27   C     C_R   0.499252 0.679444 0.729811 0.103874
C28   C     C_R   0.351475 0.683641 0.684231 -0.107056
C29   C     C_R   0.196474 0.747643 0.708431 -0.176996
H13   H     H_    0.077942 0.752810 0.675347 0.129656
C30   C     C_R   0.198261 0.810577 0.774104 -0.173343
H14   H     H_    0.082024 0.862623 0.789450 0.127835
C31   C     C_R   0.355309 0.811589 0.817521 -0.110861
C32   C     C_R   0.501612 0.742216 0.794619 0.102229
C33   C     C_3   0.712445 0.759923 0.791630 -0.400264
C34   C     C_3   0.709673 0.691333 0.721102 -0.408083
H15   H     H_    0.791574 0.727622 0.829100 0.171919
H16   H     H_    0.748366 0.840022 0.791753 0.164805
H17   H     H_    0.786670 0.619220 0.717829 0.166057
H18   H     H_    0.744170 0.731557 0.680335 0.166413
C35   C     C_R   0.483582 0.879301 0.385702 -0.155213
H19   H     H_    0.479191 0.829544 0.478866 0.102124
H20   H     H_    0.555560 0.996590 0.300341 0.125890
H21   H     H_    0.545066 0.952456 0.409537 0.110858
C36   C     C_R   0.364598 0.715469 0.396043 -0.051622
C37   C     C_R   0.276849 0.688723 0.071459 -0.168658
C38   C     C_R   0.240731 0.615135 0.107894 -0.113716
C39   C     C_R   0.271260 0.636049 0.177603 -0.146857
C40   C     C_R   0.341263 0.732025 0.212832 0.071859
C41   C     C_R   0.384715 0.805960 0.174614 0.073336
C42   C     C_R   0.369599 0.757151 0.284568 0.062729
C43   C     C_R   0.448201 0.853670 0.315746 0.148775
C44   C     C_R   0.493348 0.923643 0.276941 -0.215450
C45   C     C_R   0.460150 0.900880 0.207721 -0.206070
C46   C     C_R   0.324790 0.689643 0.326615 -0.193224
C47   C     C_R   0.444678 0.809997 0.425370 -0.183827
C48   C     C_R   0.349154 0.783820 0.103965 -0.078396
H22   H     H_    0.264254 0.615416 0.306933 0.155073
H23   H     H_    0.246882 0.671744 0.017607 0.103535
H24   H     H_    0.239064 0.575219 0.202201 0.148790
H25   H     H_    0.185944 0.541513 0.082036 0.124527
H26   H     H_    0.496556 0.958226 0.180210 0.121095
O11   O     O_R   0.203450 0.916320 0.913910 -0.541940
O12   O     O_R   0.535520 0.888300 0.047620 -0.541820
O13   O     O_R   0.710860 0.083650 0.086100 -0.540788
C49   C     C_R   0.365387 0.861869 0.064443 0.684406
O14   O     O_R   0.532860 0.904250 0.912040 -0.542539
O15   O     O_R   0.708190 0.099710 0.949550 -0.536773
C50   C     C_R   0.364426 0.882729 0.884832 0.696462
O16   O     O_R   0.206120 0.900260 0.050460 -0.537778
O17   O     O_3   0.375280 0.064080 0.012470 -0.369311
V3    V     V_3+5 0.648180 0.988110 0.997690 1.413049
O18   O     O_R   0.038220 0.111740 0.952370 -0.539688
C51   C     C_R   0.870624 0.138132 0.935612 0.690312
O19   O     O_R   0.040880 0.095790 0.087940 -0.542844
C52   C     C_R   0.872543 0.117022 0.115210 0.703750
V4    V     V_3+5 0.148800 0.011950 0.002300 1.418660
O20   O     O_3   0.871820 0.935920 0.987530 -0.372660
Cl1   Cl    Cl    0.350942 0.393336 0.289104 -0.705621
C53   C     C_3   0.468518 0.215951 0.327367 -0.786464
H27   H     H_    0.601969 0.176679 0.335266 0.169591
H28   H     H_    0.421207 0.261466 0.377193 0.239066
H29   H     H_    0.361748 0.154993 0.308686 0.180324

loop_
_geom_bond_atom_site_label_1
_geom_bond_atom_site_label_2
_ccdc_geom_bond_type
C30   H14   S    
O12   V3    S    
V4    O20   S    
V3    O20   S    
C40   C42   A    
C21   H9    S    
O17   V3    S    
H20   C44   S    
C1    O6    A    
C53   H28   S    
O18   C51   A    
O15   C51   A    
C44   C45   A    
C7    H5    S    
C6    C16   A    
C9    H6    S    
C35   C43   A    
C1    C28   S    
C34   H17   S    
C4    C6    S    
C13   C14   A    
O5    C3    A    
V2    O10   S    
O15   V3    S    
C5    H3    S    
C15   H8    S    
C18   C51   S    
C40   C41   A    
C37   C48   A    
O14   V3    S    
O11   V4    S    
O8    V2    S    
C25   C26   S    
O16   V4    S    
C8    C9    A    
C37   C38   A    
O1    V2    S    
O7    V1    S    
C45   H26   S    
C26   H12   S    
C33   C34   S    
C35   C47   A    
C31   C50   S    
O9    C4    A    
C21   C22   A    
C53   H27   S    
C49   O16   A    
C29   C30   A    
C6    C17   A    
C33   H15   S    
C25   Cl1   S    
O13   C52   A    
C12   C16   A    
C27   C28   A    
C9    C10   A    
C19   C20   A    
O4    C2    A    
C3    C23   S    
C10   C11   A    
C23   C24   A    
O2    C1    A    
C42   C43   A    
C20   C52   S    
C14   C15   A    
O14   C50   A    
C11   C18   A    
O19   C52   A    
C35   H21   S    
C16   H4    S    
C27   C32   A    
C43   C44   A    
C37   H23   S    
C22   C23   A    
C39   H24   S    
O3    C4    A    
C19   C24   A    
C48   C49   S    
C20   C21   A    
O19   V4    S    
O12   C49   A    
C11   C15   A    
O6    V2    S    
O9    V2    S    
C22   H10   S    
C36   C46   A    
H1    C17   S    
C41   C48   A    
O2    V1    S    
C28   C29   A    
C7    C18   A    
C24   C25   S    
C26   H11   S    
C33   H16   S    
C25   C53   S    
O1    C2    A    
C5    C13   A    
C39   C40   A    
O5    V1    S    
C46   H22   S    
O8    C3    A    
C29   H13   S    
C10   C12   A    
H19   C47   S    
C34   H18   S    
O13   V3    S    
C30   C31   A    
C2    C36   S    
O7    V2    S    
C38   C39   A    
O3    V1    S    
C8    H7    S    
C31   C32   A    
C38   H25   S    
O11   C50   A    
C32   C33   S    
O4    V1    S    
C41   C45   A    
C12   C13   A    
C5    C17   A    
C7    C8    A    
C36   C47   A    
V1    O10   S    
C27   C34   S    
C42   C46   A    
C53   H29   S    
O18   V4    S    
O17   V4    S    
C19   C26   S    
H2    C14   S    
