data_str_m9_o1_o16_f0_sra.sym.34
_audit_creation_date              2012-12-11T15:47:04-0500
_audit_creation_method            fapswitch 2.2
_symmetry_space_group_name_H-M    P1
_symmetry_Int_Tables_number       1
_space_group_crystal_system       triclinic
_cell_length_a                    20.179821
_cell_length_b                    7.250525
_cell_length_c                    13.552205
_cell_angle_alpha                 90.347087
_cell_angle_beta                  102.947806
_cell_angle_gamma                 89.679092
_cell_volume                      1932.41197666

loop_
_atom_site_label
_atom_site_type_symbol
_atom_type_description
_atom_site_fract_x
_atom_site_fract_y
_atom_site_fract_z
_atom_type_partial_charge
O1    O     O_R   0.449560 0.506810 0.599700 -0.535792
O2    O     O_R   0.550440 0.006810 0.400300 -0.533747
O3    O     O_R   0.587960 0.180060 0.595760 -0.546302
O4    O     O_R   0.412040 0.680060 0.404240 -0.544703
C1    C     C_R   0.615600 0.344954 0.615951 0.693038
C2    C     C_R   0.384980 0.845425 0.382323 0.691046
O5    O     O_R   0.452380 0.177430 0.611700 -0.540292
O6    O     O_R   0.547620 0.677430 0.388300 -0.541760
O7    O     O_R   0.413900 0.001890 0.416350 -0.535624
O8    O     O_R   0.586100 0.501890 0.583650 -0.534470
C3    C     C_R   0.435238 0.346204 0.636211 0.718469
C4    C     C_R   0.564519 0.844893 0.362863 0.713830
O9    O     O_3   0.487530 0.337490 0.435890 -0.378216
O10   O     O_3   0.512470 0.837490 0.564110 -0.377984
V1    V     V_3+5 0.502310 0.064660 0.511890 1.390854
V2    V     V_3+5 0.497690 0.564660 0.488110 1.390971
C5    C     C_R   0.608368 0.757146 0.110807 0.177850
C6    C     C_R   0.389747 0.332341 0.889602 0.179058
C7    C     C_R   0.603104 0.847550 0.282527 -0.084140
C8    C     C_R   0.394278 0.355638 0.712552 -0.074959
C9    C     C_R   0.927498 0.855293 0.315474 -0.163193
C10   C     C_R   0.070901 0.295768 0.687800 -0.158888
C11   C     C_R   0.890254 0.836790 0.390137 0.211721
C12   C     C_R   0.108205 0.255978 0.615079 0.213082
C13   C     C_R   0.819183 0.834233 0.362386 -0.168360
C14   C     C_R   0.178748 0.279294 0.639148 -0.169189
C15   C     C_R   0.783907 0.856336 0.260388 0.047781
C16   C     C_R   0.212931 0.351567 0.734047 0.048073
C17   C     C_R   0.822212 0.856410 0.184963 0.021092
C18   C     C_R   0.175126 0.380449 0.809089 0.022422
C19   C     C_R   0.711407 0.861068 0.231428 0.002926
C20   C     C_R   0.284829 0.376469 0.759499 0.004791
C21   C     C_R   0.678407 0.811602 0.129681 0.067179
C22   C     C_R   0.319068 0.379002 0.863839 0.072928
C23   C     C_R   0.717749 0.818457 0.053833 0.161287
C24   C     C_R   0.280607 0.427879 0.936257 0.156818
C25   C     C_R   0.788102 0.847007 0.082997 -0.186936
C26   C     C_R   0.209534 0.429348 0.907518 -0.193918
C27   C     C_R   0.670587 0.909801 0.301055 0.089775
C28   C     C_R   0.324301 0.396322 0.685430 0.099966
C29   C     C_R   0.573703 0.767790 0.189528 -0.212725
C30   C     C_R   0.425399 0.315767 0.812520 -0.220150
C31   C     C_R   0.894246 0.862177 0.213294 -0.098991
C32   C     C_R   0.103760 0.355031 0.784711 -0.101766
H1    H     H_    0.982594 0.858289 0.336469 0.106297
H2    H     H_    0.016385 0.273929 0.670371 0.104215
H3    H     H_    0.816980 0.853433 0.024700 0.118131
H4    H     H_    0.181110 0.463506 0.964166 0.125887
C33   C     C_R   0.222850 0.019652 0.200519 -0.139899
C34   C     C_R   0.792240 0.514139 0.754816 -0.155771
H5    H     H_    0.202863 0.145537 0.162086 0.126715
H6    H     H_    0.823543 0.636272 0.759809 0.126902
C35   C     C_R   0.288094 0.021263 0.264331 0.151764
C36   C     C_R   0.727553 0.514420 0.689209 0.166658
C37   C     C_R   0.315581 0.855936 0.313977 -0.050540
C38   C     C_R   0.685583 0.354810 0.682628 -0.054198
C39   C     C_R   0.274933 0.696397 0.298816 -0.198420
C40   C     C_R   0.711933 0.199114 0.740447 -0.205854
H7    H     H_    0.292984 0.570397 0.338190 0.137669
H8    H     H_    0.681938 0.075033 0.737408 0.135632
C41   C     C_R   0.210025 0.697319 0.234830 -0.180738
C42   C     C_R   0.776947 0.200735 0.803952 -0.151044
H9    H     H_    0.180569 0.571462 0.225392 0.133239
H10   H     H_    0.795137 0.078602 0.847355 0.125557
C43   C     C_R   0.183294 0.859200 0.184889 -0.076506
C44   C     C_R   0.817506 0.358907 0.812774 -0.074312
O11   O     O_R   0.913920 0.203370 0.916260 -0.539378
O12   O     O_R   0.086080 0.703370 0.083740 -0.540781
O13   O     O_R   0.047620 0.535540 0.888290 -0.539511
O14   O     O_R   0.952380 0.035540 0.111710 -0.537797
C45   C     C_R   0.063691 0.367523 0.862232 0.688037
C46   C     C_R   0.935808 0.868921 0.137359 0.689057
O15   O     O_R   0.912040 0.532780 0.904220 -0.546140
O16   O     O_R   0.087960 0.032780 0.095780 -0.545344
O17   O     O_R   0.949550 0.708160 0.099720 -0.534228
O18   O     O_R   0.050450 0.208160 0.900280 -0.534241
C47   C     C_R   0.885753 0.364788 0.882606 0.684273
C48   C     C_R   0.114377 0.864618 0.117016 0.684068
O19   O     O_3   0.012480 0.375300 0.064060 -0.378247
O20   O     O_3   0.987520 0.875300 0.935940 -0.378443
V3    V     V_3+5 0.997690 0.648180 0.988110 1.408406
V4    V     V_3+5 0.002310 0.148180 0.011890 1.413637
H11   H     H_    0.521961 0.717537 0.177822 0.120804
H12   H     H_    0.478784 0.277398 0.830702 0.119251
C49   C     C_3   0.325947 0.201591 0.276723 -0.754398
H13   H     H_    0.296262 0.311663 0.230065 0.183211
H14   H     H_    0.334693 0.249642 0.356459 0.215026
H15   H     H_    0.374920 0.185879 0.253038 0.212372
C50   C     C_3   0.706640 0.685265 0.626383 -0.768548
H16   H     H_    0.748575 0.787014 0.635506 0.185031
H17   H     H_    0.692195 0.648035 0.544789 0.205281
H18   H     H_    0.663705 0.755216 0.650250 0.223345
C51   C     C_3   0.688000 0.811782 0.940966 -0.775777
H19   H     H_    0.726424 0.842308 0.896287 0.193083
H20   H     H_    0.669237 0.672213 0.916201 0.217888
H21   H     H_    0.647890 0.918686 0.919773 0.205654
C52   C     C_3   0.312581 0.502662 0.039989 -0.788912
H22   H     H_    0.274704 0.573414 0.075268 0.213423
H23   H     H_    0.334921 0.389811 0.091170 0.214560
H24   H     H_    0.351661 0.606884 0.034430 0.212965
C53   C     C_3   0.569908 0.667884 0.013858 -0.773911
H25   H     H_    0.597631 0.543784 0.996383 0.210676
H26   H     H_    0.519006 0.619195 0.020056 0.202814
H27   H     H_    0.559886 0.767498 0.950706 0.212468
C54   C     C_3   0.426739 0.273169 0.994313 -0.781985
H28   H     H_    0.395627 0.171966 0.025076 0.212910
H29   H     H_    0.475705 0.203083 0.993309 0.207155
H30   H     H_    0.439381 0.393554 0.045523 0.206467
C55   C     C_3   0.694740 0.045142 0.387348 -0.772662
H31   H     H_    0.657964 0.161103 0.381546 0.222827
H32   H     H_    0.699164 0.976227 0.461457 0.196124
H33   H     H_    0.743663 0.110981 0.384250 0.211880
C56   C     C_3   0.295421 0.482331 0.582748 -0.792326
H34   H     H_    0.327019 0.601250 0.570803 0.220270
H35   H     H_    0.294698 0.379529 0.521446 0.186485
H36   H     H_    0.243860 0.541153 0.576627 0.214531
H37   H     H_    0.792017 0.808341 0.421158 0.140184
H38   H     H_    0.206650 0.232904 0.584190 0.142808
C57   C     C_3   0.925622 0.817209 0.499555 -0.801960
H39   H     H_    0.981802 0.818755 0.509919 0.214240
H40   H     H_    0.910505 0.932794 0.544095 0.207129
H41   H     H_    0.910967 0.684735 0.529266 0.211165
C58   C     C_3   0.073662 0.183547 0.512476 -0.803833
H42   H     H_    0.017756 0.173667 0.504066 0.216120
H43   H     H_    0.083671 0.277276 0.453016 0.211482
H44   H     H_    0.093745 0.044101 0.500886 0.207081

loop_
_geom_bond_atom_site_label_1
_geom_bond_atom_site_label_2
_ccdc_geom_bond_type
C40   C42   A    
C31   C46   S    
C15   C17   A    
C1    C38   S    
O11   C47   A    
C2    C37   S    
O2    C4    A    
C2    O7    A    
C52   H22   S    
C58   H42   S    
C49   H13   S    
O5    C3    A    
C54   H29   S    
C51   H19   S    
C33   C43   A    
O12   V3    S    
C51   H21   S    
C23   C25   A    
C12   C14   A    
C6    C30   A    
C11   C57   S    
C45   O18   A    
C8    C28   A    
C58   H43   S    
C40   H8    S    
C29   H11   S    
C18   C26   A    
C32   C45   S    
C41   H9    S    
O13   C45   A    
C5    C53   S    
C42   H10   S    
C9    C31   A    
C10   C32   A    
C38   C40   A    
C33   H5    S    
O1    C3    A    
C34   H6    S    
C19   C21   A    
C24   C52   S    
C25   H3    S    
C26   H4    S    
C56   H36   S    
O5    V1    S    
O6    V2    S    
C17   C31   A    
C35   C49   S    
C18   C32   A    
C5    C21   A    
O16   V4    S    
C46   O17   A    
O15   V3    S    
C52   H23   S    
C9    H1    S    
C57   H40   S    
O12   C48   A    
C54   H30   S    
C36   C38   A    
C3    C8    S    
C42   C44   A    
C49   H14   S    
C15   C19   A    
C53   H25   S    
C16   C20   A    
C30   H12   S    
C36   C50   S    
O4    C2    A    
C55   H33   S    
O18   V4    S    
O17   V3    S    
C58   H44   S    
C12   C58   S    
C20   C22   A    
O4    V2    S    
C37   C39   A    
C6    C22   A    
C23   C51   S    
C28   C56   S    
O6    C4    A    
O1    V2    S    
C34   C36   A    
C50   H18   S    
O2    V1    S    
C34   C44   A    
C7    C27   A    
O13   V3    S    
C10   H2    S    
C53   H27   S    
C9    C11   A    
C10   C12   A    
C50   H17   S    
C35   C37   A    
C24   C26   A    
C52   H24   S    
O3    V1    S    
C49   H15   S    
C56   H34   S    
C57   H41   S    
C44   C47   S    
C43   C48   S    
C14   H38   S    
O20   V3    S    
O3    C1    A    
C13   H37   S    
O19   V4    S    
C8    C30   A    
C57   H39   S    
C39   C41   A    
C13   C15   A    
C54   H28   S    
C14   C16   A    
C55   H32   S    
O7    V1    S    
C6    C54   S    
C1    O8    A    
O8    V2    S    
C55   H31   S    
C51   H20   S    
C33   C35   A    
C4    C7    S    
C16   C18   A    
C21   C23   A    
C19   C27   A    
C22   C24   A    
C20   C28   A    
O14   V4    S    
C5    C29   A    
C39   H7    S    
C41   C43   A    
C27   C55   S    
C11   C13   A    
O11   V4    S    
C53   H26   S    
O16   C48   A    
O9    V2    S    
C17   C25   A    
O15   C47   A    
O10   V1    S    
O14   C46   A    
C50   H16   S    
C7    C29   A    
C56   H35   S    
