data_str_m3_o10_o17_f0_pcu.sym.27
_audit_creation_date              2013-03-05T15:40:48-0500
_audit_creation_method            fapswitch 2.2
_symmetry_space_group_name_H-M    P1
_symmetry_Int_Tables_number       1
_space_group_crystal_system       triclinic
_cell_length_a                    7.827167
_cell_length_b                    8.552063
_cell_length_c                    14.879911
_cell_angle_alpha                 91.410211
_cell_angle_beta                  86.03921
_cell_angle_gamma                 93.272251
_cell_volume                      991.825137028

loop_
_atom_site_label
_atom_site_type_symbol
_atom_site_description
_atom_site_fract_x
_atom_site_fract_y
_atom_site_fract_z
_atom_type_partial_charge
O1    O     O_R   0.389250 0.738570 0.505970 -0.618746
O2    O     O_R   0.610750 0.261430 0.494030 -0.618745
O3    O     O_R   0.678390 0.711620 0.490370 -0.600845
O4    O     O_R   0.321610 0.288380 0.509630 -0.600847
C1    C     C_R   0.545256 0.794341 0.497659 0.919696
C2    C     C_R   0.454743 0.205659 0.502341 0.919695
O5    O     O_R   0.355420 0.513510 0.639950 -0.583457
O6    O     O_R   0.644580 0.486490 0.360050 -0.583456
O7    O     O_R   0.644560 0.486560 0.624350 -0.579618
O8    O     O_R   0.355440 0.513440 0.375650 -0.579618
C3    C     C_R   0.502572 0.501678 0.672395 0.846324
C4    C     C_R   0.497428 0.498322 0.327604 0.846323
Zn1   Zn    Zn3+2 0.306940 0.517990 0.510420 1.100772
Zn2   Zn    Zn3+2 0.693060 0.482010 0.489580 1.100773
C5    C     C_R   0.439504 0.354294 0.186521 0.461830
C6    C     C_R   0.560496 0.645706 0.813479 0.461830
C7    C     C_R   0.491652 0.492926 0.232609 -0.165407
C8    C     C_R   0.508348 0.507074 0.767390 -0.165407
C9    C     C_R   0.544686 0.629517 0.188438 -0.196914
C10   C     C_R   0.455314 0.370483 0.811562 -0.196915
C11   C     C_R   0.548034 0.633026 0.095928 0.101101
C12   C     C_R   0.451966 0.366974 0.904072 0.101101
C13   C     C_R   0.497205 0.497199 0.046964 -0.071138
C14   C     C_R   0.502795 0.502801 0.953036 -0.071138
C15   C     C_R   0.441465 0.356122 0.092005 0.025521
C16   C     C_R   0.558535 0.643878 0.907995 0.025521
C17   C     C_R   0.602823 0.771347 0.052528 -0.297815
C18   C     C_R   0.397177 0.228653 0.947472 -0.297815
C19   C     C_R   0.608944 0.779007 0.958753 0.475067
C20   C     C_R   0.391056 0.220992 0.041247 0.475067
H1    H     H_    0.584349 0.733498 0.226822 0.169290
H2    H     H_    0.415652 0.266501 0.773178 0.169289
H3    H     H_    0.641184 0.874217 0.091950 0.180623
H4    H     H_    0.358816 0.125783 0.908050 0.180623
C21   C     C_2   0.569173 0.957774 0.496418 -0.325678
C22   C     C_2   0.430827 0.042226 0.503582 -0.325679
H5    H     H_    0.700160 0.008051 0.489636 0.211370
H6    H     H_    0.299840 0.991949 0.510363 0.211369
N1    N     N_2   0.950330 0.457950 0.475660 0.031460
N2    N     N_2   0.049670 0.542050 0.524340 0.031460
O9    O     O_3   0.389238 0.217018 0.231164 -0.660188
H7    H     H_    0.404273 0.228526 0.296413 0.332324
O10   O     O_3   0.610761 0.782982 0.768835 -0.660188
H8    H     H_    0.595725 0.771474 0.703587 0.332324
O11   O     O_3   0.663850 0.916911 0.916433 -0.681666
H9    H     H_    0.693411 0.998557 0.962154 0.334048
O12   O     O_3   0.336151 0.083089 0.083567 -0.681666
H10   H     H_    0.306589 0.001443 0.037846 0.334048
N3    N     N_R   0.022453 0.419408 0.391055 0.308260
O13   O     O_R   0.011784 0.514258 0.324918 -0.352676
O14   O     O_R   0.059459 0.275227 0.373021 -0.363535
N4    N     N_R   0.977547 0.580593 0.608945 0.308260
O15   O     O_R   0.988219 0.485745 0.675083 -0.352676
O16   O     O_R   0.940536 0.724773 0.626977 -0.363535

loop_
_geom_bond_atom_site_label_1
_geom_bond_atom_site_label_2
_geom_bond_distance
_ccdc_geom_bond_type
C4    C7    1.416892 S    
O7    Zn2   2.014893 S    
C3    C8    1.416892 S    
C9    C11   1.376004 A    
C17   C19   1.395900 A    
O9    H7    0.987889 S    
C21   C22   1.332334 D    
O6    C4    1.289364 A    
C13   C14   1.397231 A    
C9    H1    1.086900 S    
N3    O14   1.300017 A    
C22   H6    1.087998 S    
C11   C17   1.393452 A    
C18   H4    1.084887 S    
C12   C18   1.393452 A    
O11   H9    0.991890 S    
C17   H3    1.084887 S    
O5    C3    1.289363 A    
O7    C3    1.290362 A    
C6    O10   1.387045 S    
O2    C2    1.284286 A    
O3    Zn2   1.973225 S    
O8    C4    1.290362 A    
O1    C1    1.284286 A    
C1    C21   1.399945 S    
C18   C20   1.395900 A    
N1    N3    1.383775 S    
C14   C16   1.426350 A    
N4    O16   1.300017 A    
C8    C10   1.383326 A    
C11   C13   1.408565 A    
O10   H8    0.987888 S    
C6    C16   1.405871 A    
O2    Zn2   1.959469 S    
C12   C14   1.408565 A    
C5    C15   1.405871 A    
O4    C2    1.289525 A    
O1    Zn1   1.959468 S    
C10   C12   1.376004 A    
C20   O12   1.383271 S    
O5    Zn1   1.991643 S    
C13   C15   1.426351 A    
N4    O15   1.300702 A    
C5    O9    1.387045 S    
C16   C19   1.416954 A    
C6    C8    1.409239 A    
N3    O13   1.300702 A    
C10   H2    1.086900 S    
C21   H5    1.087999 S    
N1    N2    1.278625 D    
C5    C7    1.409239 A    
C15   C20   1.416954 A    
Zn1   N2    2.031698 S    
O6    Zn2   1.991644 S    
C7    C9    1.383325 A    
Zn2   N1    2.031697 S    
N2    N4    1.383776 S    
C19   O11   1.383271 S    
O12   H10   0.991889 S    
O4    Zn1   1.973226 S    
C2    C22   1.399945 S    
O3    C1    1.289527 A    
O8    Zn1   2.014894 S    
