data_str_m2_o16_o24_f0_pcu.sym.97
_audit_creation_date              2012-12-10T17:36:50-0500
_audit_creation_method            fapswitch 2.2
_symmetry_space_group_name_H-M    P1
_symmetry_Int_Tables_number       1
_space_group_crystal_system       triclinic
_cell_length_a                    10.600653
_cell_length_b                    12.412796
_cell_length_c                    13.16153
_cell_angle_alpha                 117.177615
_cell_angle_beta                  76.498096
_cell_angle_gamma                 101.209881
_cell_volume                      1490.32875917

loop_
_atom_site_label
_atom_site_type_symbol
_atom_type_description
_atom_site_fract_x
_atom_site_fract_y
_atom_site_fract_z
_atom_type_partial_charge
C1    C     C_R   0.518807 0.854653 0.285671 0.822812
C2    C     C_3   0.015103 0.014151 0.603887 -0.180584
C3    C     C_3   0.932004 0.907182 0.521572 -0.109657
C4    C     C_3   0.877234 0.998965 0.499700 0.014554
C5    C     C_R   0.282191 0.297375 0.007752 -0.186699
C6    C     C_R   0.445167 0.229084 0.835433 -0.042933
C7    C     C_R   0.646974 0.802050 0.086083 -0.023499
C8    C     C_R   0.672517 0.722532 0.969655 -0.223961
C9    C     C_R   0.605512 0.607038 0.926217 -0.027554
C10   C     C_R   0.511291 0.567047 0.002252 0.036759
C11   C     C_R   0.468734 0.655991 0.115812 0.069024
C12   C     C_R   0.740262 0.999590 0.499719 0.829691
C13   C     C_R   0.455307 0.443981 0.970735 0.094043
C14   C     C_R   0.342156 0.417225 0.041183 0.168303
C15   C     C_R   0.289962 0.510197 0.143899 -0.234852
C16   C     C_R   0.353070 0.627343 0.181584 -0.178405
C17   C     C_R   0.511109 0.345625 0.874037 -0.209325
C18   C     C_R   0.331712 0.204086 0.903635 -0.189190
C19   C     C_R   0.541868 0.771886 0.160416 -0.138043
C20   C     C_R   0.732354 0.360131 0.356543 -0.260138
C21   C     C_R   0.320988 0.762075 0.645057 0.062714
C22   C     C_R   0.285427 0.672816 0.684893 -0.293956
C23   C     C_R   0.479336 0.145123 0.713739 0.777985
C24   C     C_R   0.355208 0.571375 0.637526 0.028477
C25   C     C_R   0.459770 0.555031 0.542520 -0.124434
C26   C     C_R   0.497334 0.653626 0.508669 0.140776
C27   C     C_R   0.532886 0.449351 0.482561 -0.022038
C28   C     C_R   0.651837 0.454516 0.407934 0.074170
C29   C     C_R   0.689067 0.551754 0.380864 -0.323387
C30   C     C_R   0.611179 0.644582 0.423153 0.596839
C31   C     C_R   0.493887 0.336646 0.489489 0.085981
C32   C     C_R   0.693131 0.257452 0.375508 0.102488
C33   C     C_R   0.259757 0.000315 0.500131 0.763479
C34   C     C_3   0.984902 0.985289 0.395472 -0.154282
C35   C     C_3   0.042030 0.893641 0.417344 -0.159394
C36   C     C_3   0.122803 0.000531 0.499690 0.022028
C37   C     C_3   0.068010 0.092262 0.477777 -0.132506
C38   C     C_3   0.958024 0.105805 0.582014 -0.175851
Cu1   Cu    Cu3+1 0.529830 0.098270 0.475420 0.965293
Cu2   Cu    Cu3+1 0.470170 0.901730 0.524580 0.977331
H1    H     H_    0.079588 0.806929 0.350027 0.127008
H2    H     H_    0.606079 0.356465 0.826004 0.144575
H3    H     H_    0.747774 0.750351 0.912013 0.146102
H4    H     H_    0.308122 0.695767 0.261952 0.147903
H5    H     H_    0.757186 0.186854 0.341268 0.153709
H6    H     H_    0.777611 0.553021 0.319867 0.178575
H7    H     H_    0.825368 0.366042 0.302470 0.134586
H8    H     H_    0.399465 0.317230 0.532818 0.131500
H9    H     H_    0.267364 0.841183 0.684845 0.129492
H10   H     H_    0.969223 0.973396 0.310297 0.150860
H11   H     H_    0.205403 0.685545 0.756535 0.147037
H12   H     H_    0.126315 0.168175 0.459943 0.141676
H13   H     H_    0.920408 0.192493 0.649317 0.139181
H14   H     H_    0.030805 0.026014 0.689056 0.131079
H15   H     H_    0.873673 0.831231 0.539339 0.150297
H16   H     H_    0.278657 0.114228 0.874151 0.139057
H17   H     H_    0.201788 0.491661 0.197125 0.139318
H18   H     H_    0.194475 0.276758 0.060128 0.134398
N1    N     N_R   0.575030 0.246270 0.438190 -0.193423
N2    N     N_R   0.425760 0.754330 0.561190 -0.190541
O1    O     O_R   0.537510 0.972500 0.318130 -0.582910
O2    O     O_R   0.487140 0.806530 0.359650 -0.507111
O3    O     O_R   0.708330 0.082950 0.479220 -0.599386
O4    O     O_R   0.657960 0.916980 0.520740 -0.521591
O5    O     O_R   0.512860 0.193470 0.640350 -0.555428
O6    O     O_R   0.462490 0.027500 0.681870 -0.596638
O7    O     O_R   0.342040 0.083020 0.479260 -0.592332
O8    O     O_R   0.291670 0.917050 0.520780 -0.603349
C39   C     C_1   0.735235 0.911626 0.125850 0.262462
N3    N     N_1   0.807839 0.998270 0.155780 -0.342054
C40   C     C_1   0.628545 0.540029 0.801654 0.220734
N4    N     N_1   0.648429 0.487154 0.701828 -0.276651
C41   C     C_1   0.324979 0.497291 0.700283 0.214605
N5    N     N_1   0.300144 0.439018 0.751721 -0.286603
F1    F     F_    0.654123 0.719975 0.372790 -0.658195

loop_
_geom_bond_atom_site_label_1
_geom_bond_atom_site_label_2
_ccdc_geom_bond_type
Cu2   N2    S    
C34   C37   S    
Cu1   O5    S    
C41   N5    T    
C35   C36   S    
C8    H3    S    
C1    O2    A    
C21   H9    S    
C7    C8    A    
C11   C19   A    
C29   C30   A    
C5    H18   S    
C23   O6    A    
C36   C37   S    
C12   O4    A    
C24   C41   S    
C15   C16   A    
C33   C36   S    
Cu2   O2    S    
C34   C35   S    
C32   H5    S    
C31   N1    A    
C17   H2    S    
C3    H15   S    
C8    C9    A    
C4    C12   S    
C9    C10   A    
C16   H4    S    
C18   H16   S    
Cu2   O6    S    
C13   C14   A    
C15   H17   S    
C6    C18   A    
Cu1   O1    S    
C4    C34   S    
C34   H10   S    
C1    C19   S    
C27   C31   A    
C24   C25   A    
C21   N2    A    
C2    H14   S    
Cu1   Cu2   S    
C37   H12   S    
C5    C18   A    
C20   C28   A    
C25   C26   A    
C37   C38   S    
C11   C16   A    
C2    C38   S    
C3    C35   S    
Cu1   N1    S    
C5    C14   A    
C4    C38   S    
C26   C30   A    
C7    C19   A    
C31   H8    S    
C22   C24   A    
C3    C4    S    
C33   O7    A    
C20   C32   A    
C2    C36   S    
C12   O3    A    
C6    C17   A    
C28   C29   A    
Cu1   O7    S    
C9    C40   S    
C10   C13   A    
C1    O1    A    
C7    C39   S    
C25   C27   A    
Cu1   O3    S    
Cu2   O4    S    
C13   C17   A    
C29   H6    S    
C23   O5    A    
C2    C3    S    
C40   N4    T    
C30   F1    S    
C38   H13   S    
C6    C23   S    
C39   N3    T    
C35   H1    S    
C20   H7    S    
C10   C11   A    
Cu2   O8    S    
C27   C28   A    
C14   C15   A    
C32   N1    A    
C21   C22   A    
C26   N2    A    
C33   O8    A    
C22   H11   S    
