data_str_m3_o5_o29_f0_pcu.sym.115
_audit_creation_date              2013-03-05T16:48:40-0500
_audit_creation_method            fapswitch 2.2
_symmetry_space_group_name_H-M    P1
_symmetry_Int_Tables_number       1
_space_group_crystal_system       triclinic
_cell_length_a                    27.786593
_cell_length_b                    8.925748
_cell_length_c                    8.091342
_cell_angle_alpha                 90.00168
_cell_angle_beta                  90.005003
_cell_angle_gamma                 89.996691
_cell_volume                      2006.78329238

loop_
_atom_site_label
_atom_site_type_symbol
_atom_site_description
_atom_site_fract_x
_atom_site_fract_y
_atom_site_fract_z
_atom_type_partial_charge
O1    O     O_R   0.500000 0.285350 0.636850 -0.607351
O2    O     O_R   0.500000 0.714650 0.363150 -0.607219
O3    O     O_R   0.500000 0.714650 0.636850 -0.607393
O4    O     O_R   0.500000 0.285350 0.363150 -0.607229
C1    C     C_R   0.499999 0.217952 0.499999 0.964536
C2    C     C_R   0.500001 0.782048 0.500001 0.964391
O5    O     O_R   0.428760 0.500000 0.636860 -0.590720
O6    O     O_R   0.571240 0.500000 0.363140 -0.590866
O7    O     O_R   0.571240 0.500000 0.636860 -0.590738
O8    O     O_R   0.428760 0.500000 0.363140 -0.590891
C3    C     C_R   0.405777 0.500056 0.499984 1.004139
C4    C     C_R   0.594222 0.499934 0.499999 1.004028
Zn1   Zn    Zn3+2 0.500000 0.500000 0.682780 1.127761
Zn2   Zn    Zn3+2 0.500000 0.500000 0.317220 1.127813
C5    C     C_R   0.176942 0.369471 0.467392 0.637399
C6    C     C_R   0.823052 0.630516 0.467679 0.637292
C7    C     C_R   0.176860 0.631261 0.529263 0.637156
C8    C     C_R   0.823147 0.368731 0.529561 0.637266
O9    O     O_2   0.201835 0.243426 0.432748 -0.469736
O10   O     O_2   0.798153 0.756562 0.433080 -0.469840
O11   O     O_2   0.201666 0.757400 0.564212 -0.469979
O12   O     O_2   0.798347 0.242596 0.564567 -0.469951
N1    N     N_R   0.200868 0.500390 0.498567 -0.321830
N2    N     N_R   0.799132 0.499589 0.498853 -0.321812
C9    C     C_R   0.277408 0.577547 0.374032 0.253640
C10   C     C_R   0.722600 0.422359 0.374275 0.253592
C11   C     C_R   0.277233 0.423305 0.624509 0.253642
C12   C     C_R   0.722757 0.576631 0.624745 0.253638
C13   C     C_R   0.327832 0.580962 0.376801 0.180006
C14   C     C_R   0.672173 0.418953 0.376945 0.180065
C15   C     C_R   0.327669 0.419770 0.622587 0.179901
C16   C     C_R   0.672321 0.580167 0.622714 0.179944
C17   C     C_R   0.252360 0.500438 0.499061 -0.008636
C18   C     C_R   0.747641 0.499509 0.499312 -0.008612
C19   C     C_R   0.101251 0.500240 0.497825 -0.047046
C20   C     C_R   0.898748 0.499769 0.498018 -0.047052
C21   C     C_R   0.126681 0.365893 0.471811 -0.037071
C22   C     C_R   0.873312 0.634110 0.472039 -0.037018
C23   C     C_R   0.126601 0.634685 0.524109 -0.037023
C24   C     C_R   0.873404 0.365320 0.524352 -0.037050
C25   C     C_R   0.101489 0.231798 0.449604 -0.099571
C26   C     C_R   0.898495 0.768209 0.449797 -0.099585
C27   C     C_R   0.101334 0.768696 0.545950 -0.099818
C28   C     C_R   0.898674 0.231316 0.546169 -0.099836
C29   C     C_R   0.353028 0.500303 0.499852 -0.348513
C30   C     C_R   0.646971 0.499662 0.499925 -0.348527
H1    H     H_    0.120248 0.127608 0.425948 0.194230
H2    H     H_    0.879729 0.872393 0.426170 0.194262
H3    H     H_    0.120026 0.872970 0.569730 0.194077
H4    H     H_    0.879985 0.127042 0.569988 0.194063
C31   C     C_R   0.974758 0.362170 0.506570 0.049611
C32   C     C_R   0.025239 0.637845 0.506509 0.049603
C33   C     C_R   0.974678 0.637710 0.488697 0.049554
C34   C     C_R   0.025315 0.362302 0.488650 0.049552
C35   C     C_R   0.949541 0.499880 0.497734 0.084134
C36   C     C_R   0.050455 0.500133 0.497630 0.084140
C37   C     C_R   0.948550 0.229273 0.535441 -0.206790
C38   C     C_R   0.051454 0.770744 0.535313 -0.206798
C39   C     C_R   0.948380 0.770469 0.459964 -0.206892
C40   C     C_R   0.051606 0.229540 0.459862 -0.206881
H5    H     H_    0.966009 0.123161 0.556881 0.134237
H6    H     H_    0.033999 0.876860 0.556775 0.134234
H7    H     H_    0.965768 0.876651 0.438306 0.134371
H8    H     H_    0.034210 0.123360 0.438235 0.134363
C41   C     C_1   0.500000 0.065195 0.499998 -0.072608
C42   C     C_1   0.500000 0.934805 0.500001 -0.072656
N3    N     N_1   0.500000 0.500000 0.073640 0.022331
N4    N     N_1   0.500000 0.500000 0.926360 0.022294
N5    N     N_R   0.352966 0.332654 0.744052 0.260666
O13   O     O_R   0.345591 0.355355 0.900842 -0.263251
O14   O     O_R   0.381453 0.224764 0.697916 -0.344855
N6    N     N_R   0.647009 0.667143 0.744234 0.260699
O15   O     O_R   0.654203 0.643738 0.901009 -0.263517
O16   O     O_R   0.618636 0.775375 0.698214 -0.344581
N7    N     N_R   0.353301 0.667902 0.255644 0.260667
O17   O     O_R   0.381634 0.776083 0.302076 -0.344915
O18   O     O_R   0.346357 0.644305 0.098769 -0.264064
N8    N     N_R   0.646715 0.331919 0.255822 0.260643
O19   O     O_R   0.618342 0.223864 0.302315 -0.345030
O20   O     O_R   0.653741 0.355179 0.098937 -0.263776
N9    N     N_R   0.251009 0.345316 0.751262 0.256662
O21   O     O_R   0.260238 0.205280 0.782791 -0.232608
O22   O     O_R   0.216408 0.412079 0.830733 -0.315771
N10   N     N_R   0.748967 0.654466 0.751682 0.256637
O23   O     O_R   0.739606 0.794296 0.783905 -0.232569
O24   O     O_R   0.783626 0.587711 0.830886 -0.315915
N11   N     N_R   0.251375 0.655339 0.246638 0.256569
O25   O     O_R   0.260797 0.795130 0.214422 -0.232480
O26   O     O_R   0.216848 0.588532 0.166826 -0.315533
N12   N     N_R   0.748641 0.344417 0.247033 0.256557
O27   O     O_R   0.739282 0.204499 0.215267 -0.232518
O28   O     O_R   0.783128 0.411199 0.167018 -0.315444

loop_
_geom_bond_atom_site_label_1
_geom_bond_atom_site_label_2
_geom_bond_distance
_ccdc_geom_bond_type
C38   H6    1.078174 S    
N11   O25   1.301313 A    
C12   N10   1.438002 S    
N6    O16   1.301273 A    
O3    C2    1.260169 A    
N9    O21   1.301205 A    
C33   C39   1.411405 A    
C16   N6    1.436726 S    
C34   C40   1.411397 A    
C11   C17   1.407781 A    
C5    O9    1.350066 S    
C7    N1    1.367894 A    
C2    C42   1.363474 S    
O1    C1    1.260153 A    
C19   C21   1.407648 A    
N10   O24   1.301170 A    
C22   C26   1.398151 A    
N8    O20   1.301037 A    
C9    N11   1.437973 S    
C7    C23   1.397467 A    
N5    O14   1.301238 A    
C8    C24   1.397443 A    
C5    C21   1.397423 A    
C20   C24   1.407701 A    
O7    Zn1   2.014115 S    
C27   C38   1.388774 A    
C10   C18   1.407765 A    
N1    C17   1.430779 S    
Zn2   N3    1.970889 S    
C31   C37   1.411422 A    
O3    Zn1   1.951633 S    
C6    O10   1.350066 S    
C5    N1    1.367904 A    
C12   C18   1.407855 A    
C6    N2    1.367918 A    
C21   C25   1.398173 A    
O2    C2    1.260153 A    
N9    O22   1.301142 A    
O5    C3    1.278386 A    
C33   C35   1.416608 A    
C9    C13   1.401635 A    
C34   C36   1.416629 A    
C11   C15   1.401891 A    
N3    N4    1.191692 T    
C12   C16   1.401907 A    
N10   O23   1.301279 A    
C1    C41   1.363474 S    
O8    Zn2   2.014117 S    
N8    O19   1.301311 A    
C27   H3    1.083088 S    
C11   N9    1.437922 S    
C23   C27   1.398163 A    
C7    O11   1.350094 S    
C13   C29   1.414080 A    
C19   C23   1.407663 A    
N7    O17   1.301289 A    
C15   N5    1.436833 S    
N12   O28   1.301144 A    
C24   C28   1.398118 A    
C28   C37   1.388720 A    
O6    C4    1.278264 A    
C25   H1    1.083106 S    
C26   H2    1.083116 S    
N7    O18   1.301051 A    
C32   C38   1.411414 A    
C4    C30   1.465723 S    
C10   C14   1.401706 A    
N11   O26   1.301128 A    
C8    N2    1.367894 A    
C3    C29   1.465736 S    
O1    Zn1   1.951612 S    
C32   C33   1.412290 A    
C28   H4    1.083117 S    
O6    Zn2   2.014051 S    
C19   C36   1.411443 A    
C8    O12   1.350098 S    
C16   C30   1.414024 A    
C14   C30   1.414047 A    
C25   C40   1.388735 A    
N6    O15   1.301047 A    
C26   C39   1.388691 A    
C37   H5    1.078169 S    
C13   N7    1.436751 S    
C10   N12   1.437909 S    
C39   H7    1.078177 S    
C40   H8    1.078194 S    
C31   C34   1.412289 A    
C20   C22   1.407634 A    
C20   C35   1.411367 A    
N12   O27   1.301288 A    
O4    C1    1.260169 A    
C31   C35   1.416624 A    
O4    Zn2   1.951633 S    
N5    O13   1.300972 A    
O2    Zn2   1.951611 S    
O7    C4    1.278367 A    
N2    C18   1.430770 S    
O8    C3    1.278262 A    
C14   N8    1.436757 S    
O5    Zn1   2.014054 S    
C41   C42   1.163827 T    
C15   C29   1.414098 A    
C9    C17   1.407761 A    
C32   C36   1.416649 A    
C6    C22   1.397378 A    
Zn1   N4    1.970889 S    
